VeraChem MOL file


 25 24  0  0  0  0  0  0  0  0999 V2000     
   20.1602   19.3401   27.8084 C   0  0  0  0  0  0  0  0  0  0  0  0
   21.2160   19.7053   28.2866 O   0  5  0  0  0  0  0  0  0  0  0  0
   19.0781   19.5687   28.3118 O   0  0  0  0  0  0  0  0  0  0  0  0
   20.1938   18.5724   26.4918 C   0  0  0  0  0  0  0  0  0  0  0  0
   19.3542   17.8670   26.4874 H   0  0  0  0  0  0  0  0  0  0  0  0
   21.1158   17.9792   26.4669 H   0  0  0  0  0  0  0  0  0  0  0  0
   20.1203   19.4990   25.2533 C   0  0  0  0  0  0  0  0  0  0  0  0
   19.1984   20.0952   25.3003 H   0  0  0  0  0  0  0  0  0  0  0  0
   20.9599   20.2075   25.2799 H   0  0  0  0  0  0  0  0  0  0  0  0
   20.1561   18.6986   23.9335 C   0  0  0  0  0  0  0  0  0  0  0  0
   19.3163   17.9905   23.9105 H   0  0  0  0  0  0  0  0  0  0  0  0
   21.0782   18.1028   23.8902 H   0  0  0  0  0  0  0  0  0  0  0  0
   20.0828   19.6250   22.7006 C   0  0  0  0  0  0  0  0  0  0  0  0
   19.1607   20.2207   22.7436 H   0  0  0  0  0  0  0  0  0  0  0  0
   20.9225   20.3331   22.7233 H   0  0  0  0  0  0  0  0  0  0  0  0
   20.1187   18.8252   21.3804 C   0  0  0  0  0  0  0  0  0  0  0  0
   19.2790   18.1170   21.3573 H   0  0  0  0  0  0  0  0  0  0  0  0
   21.0407   18.2293   21.3371 H   0  0  0  0  0  0  0  0  0  0  0  0
   20.0455   19.7510   20.1479 C   0  0  0  0  0  0  0  0  0  0  0  0
   19.1233   20.3473   20.1868 H   0  0  0  0  0  0  0  0  0  0  0  0
   20.8850   20.4598   20.1667 H   0  0  0  0  0  0  0  0  0  0  0  0
   20.0816   18.9487   18.8317 C   0  0  0  0  0  0  0  0  0  0  0  0
   19.2341   18.2533   18.7721 H   0  0  0  0  0  0  0  0  0  0  0  0
   20.0289   19.6222   17.9664 H   0  0  0  0  0  0  0  0  0  0  0  0
   21.0090   18.3665   18.7519 H   0  0  0  0  0  0  0  0  0  0  0  0
  1  2  1  0  0  0  0
  1  3  2  0  0  0  0
  1  4  1  0  0  0  0
  4  5  1  0  0  0  0
  4  6  1  0  0  0  0
  4  7  1  0  0  0  0
  7  8  1  0  0  0  0
  7  9  1  0  0  0  0
  7 10  1  0  0  0  0
 10 11  1  0  0  0  0
 10 12  1  0  0  0  0
 10 13  1  0  0  0  0
 13 14  1  0  0  0  0
 13 15  1  0  0  0  0
 13 16  1  0  0  0  0
 16 17  1  0  0  0  0
 16 18  1  0  0  0  0
 16 19  1  0  0  0  0
 19 20  1  0  0  0  0
 19 21  1  0  0  0  0
 19 22  1  0  0  0  0
 22 23  1  0  0  0  0
 22 24  1  0  0  0  0
 22 25  1  0  0  0  0
M  END
> <VM2 Rank>
1

> <Conf_Id>
1130

> <Probability>
22.96

> <Sum Probability>
22.96

> <Delta G>
0.000

> <G>
-7.962

> <E>
-32.361

> <-TS>
24.398

> <U+W>
-52.928

> <U>
5.617

> <W>
-58.543

> <W(PB)>
-61.065

> <W(SA)>
2.522

> <Valence>
7.531

> <Coulomb>
-2.818

> <VdW>
0.904

> <VdW6>
-7.640

> <VdW12>
8.544

> <Bond>
0.115

> <Angle>
2.271

> <Pdih>
5.144

> <Idih>
0.001

> <Tether>
0.000

$$$$
VeraChem MOL file


 25 24  0  0  0  0  0  0  0  0999 V2000     
   19.8608   19.1635   27.5407 C   0  0  0  0  0  0  0  0  0  0  0  0
   20.6744   18.7866   28.3609 O   0  5  0  0  0  0  0  0  0  0  0  0
   18.8683   19.8055   27.8229 O   0  0  0  0  0  0  0  0  0  0  0  0
   20.1116   18.8330   26.0738 C   0  0  0  0  0  0  0  0  0  0  0  0
   19.1370   18.6966   25.5919 H   0  0  0  0  0  0  0  0  0  0  0  0
   20.6360   17.8712   26.0267 H   0  0  0  0  0  0  0  0  0  0  0  0
   20.9340   19.9274   25.3450 C   0  0  0  0  0  0  0  0  0  0  0  0
   20.3778   20.8749   25.3595 H   0  0  0  0  0  0  0  0  0  0  0  0
   21.8618   20.1039   25.9067 H   0  0  0  0  0  0  0  0  0  0  0  0
   21.2997   19.5578   23.8877 C   0  0  0  0  0  0  0  0  0  0  0  0
   21.8647   18.6157   23.8777 H   0  0  0  0  0  0  0  0  0  0  0  0
   21.9744   20.3290   23.4915 H   0  0  0  0  0  0  0  0  0  0  0  0
   20.0709   19.4385   22.9569 C   0  0  0  0  0  0  0  0  0  0  0  0
   19.4214   18.6213   23.2963 H   0  0  0  0  0  0  0  0  0  0  0  0
   19.4792   20.3626   23.0097 H   0  0  0  0  0  0  0  0  0  0  0  0
   20.4875   19.1767   21.4933 C   0  0  0  0  0  0  0  0  0  0  0  0
   21.0826   18.2546   21.4408 H   0  0  0  0  0  0  0  0  0  0  0  0
   21.1327   19.9940   21.1430 H   0  0  0  0  0  0  0  0  0  0  0  0
   19.2628   19.0530   20.5626 C   0  0  0  0  0  0  0  0  0  0  0  0
   18.6159   18.2347   20.9082 H   0  0  0  0  0  0  0  0  0  0  0  0
   18.6658   19.9743   20.6116 H   0  0  0  0  0  0  0  0  0  0  0  0
   19.6830   18.7919   19.1022 C   0  0  0  0  0  0  0  0  0  0  0  0
   20.2556   17.8588   19.0191 H   0  0  0  0  0  0  0  0  0  0  0  0
   18.8005   18.7068   18.4550 H   0  0  0  0  0  0  0  0  0  0  0  0
   20.3057   19.6115   18.7201 H   0  0  0  0  0  0  0  0  0  0  0  0
  1  2  1  0  0  0  0
  1  3  2  0  0  0  0
  1  4  1  0  0  0  0
  4  5  1  0  0  0  0
  4  6  1  0  0  0  0
  4  7  1  0  0  0  0
  7  8  1  0  0  0  0
  7  9  1  0  0  0  0
  7 10  1  0  0  0  0
 10 11  1  0  0  0  0
 10 12  1  0  0  0  0
 10 13  1  0  0  0  0
 13 14  1  0  0  0  0
 13 15  1  0  0  0  0
 13 16  1  0  0  0  0
 16 17  1  0  0  0  0
 16 18  1  0  0  0  0
 16 19  1  0  0  0  0
 19 20  1  0  0  0  0
 19 21  1  0  0  0  0
 19 22  1  0  0  0  0
 22 23  1  0  0  0  0
 22 24  1  0  0  0  0
 22 25  1  0  0  0  0
M  END
> <VM2 Rank>
2

> <Conf_Id>
1266

> <Probability>
5.67

> <Sum Probability>
28.63

> <Delta G>
0.834

> <G>
-7.128

> <E>
-31.637

> <-TS>
24.508

> <U+W>
-52.204

> <U>
6.575

> <W>
-58.780

> <W(PB)>
-61.323

> <W(SA)>
2.543

> <Valence>
8.051

> <Coulomb>
-2.490

> <VdW>
1.015

> <VdW6>
-8.339

> <VdW12>
9.354

> <Bond>
0.157

> <Angle>
2.513

> <Pdih>
5.379

> <Idih>
0.001

> <Tether>
0.000

$$$$
VeraChem MOL file


 25 24  0  0  0  0  0  0  0  0999 V2000     
   20.1317   19.7075   27.5208 C   0  0  0  0  0  0  0  0  0  0  0  0
   20.9466   19.3332   28.3409 O   0  5  0  0  0  0  0  0  0  0  0  0
   19.0296   20.1292   27.8110 O   0  0  0  0  0  0  0  0  0  0  0  0
   20.5036   19.6200   26.0450 C   0  0  0  0  0  0  0  0  0  0  0  0
   21.5852   19.7769   25.9570 H   0  0  0  0  0  0  0  0  0  0  0  0
   20.0108   20.4508   25.5277 H   0  0  0  0  0  0  0  0  0  0  0  0
   20.1055   18.2641   25.4059 C   0  0  0  0  0  0  0  0  0  0  0  0
   20.5405   17.4513   26.0039 H   0  0  0  0  0  0  0  0  0  0  0  0
   19.0152   18.1392   25.4596 H   0  0  0  0  0  0  0  0  0  0  0  0
   20.5781   18.1091   23.9408 C   0  0  0  0  0  0  0  0  0  0  0  0
   20.3582   17.0847   23.6103 H   0  0  0  0  0  0  0  0  0  0  0  0
   21.6696   18.2238   23.8921 H   0  0  0  0  0  0  0  0  0  0  0  0
   19.9055   19.1062   22.9691 C   0  0  0  0  0  0  0  0  0  0  0  0
   18.8135   19.0262   23.0589 H   0  0  0  0  0  0  0  0  0  0  0  0
   20.1758   20.1348   23.2409 H   0  0  0  0  0  0  0  0  0  0  0  0
   20.3224   18.8453   21.5054 C   0  0  0  0  0  0  0  0  0  0  0  0
   20.0491   17.8194   21.2226 H   0  0  0  0  0  0  0  0  0  0  0  0
   21.4148   18.9212   21.4162 H   0  0  0  0  0  0  0  0  0  0  0  0
   19.6558   19.8417   20.5338 C   0  0  0  0  0  0  0  0  0  0  0  0
   18.5628   19.7676   20.6195 H   0  0  0  0  0  0  0  0  0  0  0  0
   19.9288   20.8692   20.8117 H   0  0  0  0  0  0  0  0  0  0  0  0
   20.0743   19.5777   19.0734 C   0  0  0  0  0  0  0  0  0  0  0  0
   19.7846   18.5666   18.7585 H   0  0  0  0  0  0  0  0  0  0  0  0
   19.5914   20.2947   18.3969 H   0  0  0  0  0  0  0  0  0  0  0  0
   21.1610   19.6763   18.9523 H   0  0  0  0  0  0  0  0  0  0  0  0
  1  2  1  0  0  0  0
  1  3  2  0  0  0  0
  1  4  1  0  0  0  0
  4  5  1  0  0  0  0
  4  6  1  0  0  0  0
  4  7  1  0  0  0  0
  7  8  1  0  0  0  0
  7  9  1  0  0  0  0
  7 10  1  0  0  0  0
 10 11  1  0  0  0  0
 10 12  1  0  0  0  0
 10 13  1  0  0  0  0
 13 14  1  0  0  0  0
 13 15  1  0  0  0  0
 13 16  1  0  0  0  0
 16 17  1  0  0  0  0
 16 18  1  0  0  0  0
 16 19  1  0  0  0  0
 19 20  1  0  0  0  0
 19 21  1  0  0  0  0
 19 22  1  0  0  0  0
 22 23  1  0  0  0  0
 22 24  1  0  0  0  0
 22 25  1  0  0  0  0
M  END
> <VM2 Rank>
3

> <Conf_Id>
1028

> <Probability>
5.44

> <Sum Probability>
34.07

> <Delta G>
0.858

> <G>
-7.104

> <E>
-31.613

> <-TS>
24.509

> <U+W>
-52.180

> <U>
6.575

> <W>
-58.756

> <W(PB)>
-61.294

> <W(SA)>
2.538

> <Valence>
8.051

> <Coulomb>
-2.490

> <VdW>
1.015

> <VdW6>
-8.339

> <VdW12>
9.354

> <Bond>
0.157

> <Angle>
2.514

> <Pdih>
5.379

> <Idih>
0.001

> <Tether>
0.000

$$$$
VeraChem MOL file


 25 24  0  0  0  0  0  0  0  0999 V2000     
   20.1309   19.1677   27.7051 C   0  0  0  0  0  0  0  0  0  0  0  0
   21.2280   19.2464   28.2216 O   0  5  0  0  0  0  0  0  0  0  0  0
   19.2296   18.4786   28.1402 O   0  0  0  0  0  0  0  0  0  0  0  0
   19.8786   19.9598   26.4271 C   0  0  0  0  0  0  0  0  0  0  0  0
   20.4682   20.8831   26.4767 H   0  0  0  0  0  0  0  0  0  0  0  0
   18.8214   20.2506   26.4097 H   0  0  0  0  0  0  0  0  0  0  0  0
   20.2358   19.1653   25.1468 C   0  0  0  0  0  0  0  0  0  0  0  0
   21.2937   18.8704   25.1859 H   0  0  0  0  0  0  0  0  0  0  0  0
   19.6471   18.2378   25.1192 H   0  0  0  0  0  0  0  0  0  0  0  0
   19.9717   19.9880   23.8671 C   0  0  0  0  0  0  0  0  0  0  0  0
   20.5605   20.9150   23.8990 H   0  0  0  0  0  0  0  0  0  0  0  0
   18.9136   20.2817   23.8312 H   0  0  0  0  0  0  0  0  0  0  0  0
   20.3288   19.1934   22.5924 C   0  0  0  0  0  0  0  0  0  0  0  0
   21.3875   18.9022   22.6261 H   0  0  0  0  0  0  0  0  0  0  0  0
   19.7414   18.2662   22.5702 H   0  0  0  0  0  0  0  0  0  0  0  0
   20.0604   20.0172   21.3117 C   0  0  0  0  0  0  0  0  0  0  0  0
   20.5993   20.9720   21.3815 H   0  0  0  0  0  0  0  0  0  0  0  0
   18.9923   20.2667   21.2491 H   0  0  0  0  0  0  0  0  0  0  0  0
   20.5005   19.2988   20.0148 C   0  0  0  0  0  0  0  0  0  0  0  0
   20.3857   19.9931   19.1710 H   0  0  0  0  0  0  0  0  0  0  0  0
   21.5700   19.0534   20.0712 H   0  0  0  0  0  0  0  0  0  0  0  0
   19.6887   18.0189   19.7192 C   0  0  0  0  0  0  0  0  0  0  0  0
   18.6128   18.2344   19.6878 H   0  0  0  0  0  0  0  0  0  0  0  0
   19.9773   17.5972   18.7477 H   0  0  0  0  0  0  0  0  0  0  0  0
   19.8638   17.2485   20.4805 H   0  0  0  0  0  0  0  0  0  0  0  0
  1  2  1  0  0  0  0
  1  3  2  0  0  0  0
  1  4  1  0  0  0  0
  4  5  1  0  0  0  0
  4  6  1  0  0  0  0
  4  7  1  0  0  0  0
  7  8  1  0  0  0  0
  7  9  1  0  0  0  0
  7 10  1  0  0  0  0
 10 11  1  0  0  0  0
 10 12  1  0  0  0  0
 10 13  1  0  0  0  0
 13 14  1  0  0  0  0
 13 15  1  0  0  0  0
 13 16  1  0  0  0  0
 16 17  1  0  0  0  0
 16 18  1  0  0  0  0
 16 19  1  0  0  0  0
 19 20  1  0  0  0  0
 19 21  1  0  0  0  0
 19 22  1  0  0  0  0
 22 23  1  0  0  0  0
 22 24  1  0  0  0  0
 22 25  1  0  0  0  0
M  END
> <VM2 Rank>
4

> <Conf_Id>
921

> <Probability>
5.00

> <Sum Probability>
39.06

> <Delta G>
0.909

> <G>
-7.053

> <E>
-31.561

> <-TS>
24.508

> <U+W>
-52.129

> <U>
6.630

> <W>
-58.759

> <W(PB)>
-61.280

> <W(SA)>
2.521

> <Valence>
8.032

> <Coulomb>
-2.441

> <VdW>
1.039

> <VdW6>
-8.257

> <VdW12>
9.295

> <Bond>
0.146

> <Angle>
2.498

> <Pdih>
5.387

> <Idih>
0.001

> <Tether>
0.000

$$$$
VeraChem MOL file


 25 24  0  0  0  0  0  0  0  0999 V2000     
   20.0215   19.1705   27.6698 C   0  0  0  0  0  0  0  0  0  0  0  0
   21.0605   19.2689   28.2924 O   0  5  0  0  0  0  0  0  0  0  0  0
   18.9409   19.5172   28.1041 O   0  0  0  0  0  0  0  0  0  0  0  0
   20.0803   18.6011   26.2569 C   0  0  0  0  0  0  0  0  0  0  0  0
   19.1422   18.0663   26.0659 H   0  0  0  0  0  0  0  0  0  0  0  0
   20.8887   17.8609   26.2213 H   0  0  0  0  0  0  0  0  0  0  0  0
   20.3044   19.6897   25.1786 C   0  0  0  0  0  0  0  0  0  0  0  0
   19.4940   20.4297   25.2359 H   0  0  0  0  0  0  0  0  0  0  0  0
   21.2403   20.2244   25.3922 H   0  0  0  0  0  0  0  0  0  0  0  0
   20.3600   19.0884   23.7574 C   0  0  0  0  0  0  0  0  0  0  0  0
   19.4240   18.5506   23.5583 H   0  0  0  0  0  0  0  0  0  0  0  0
   21.1726   18.3511   23.7025 H   0  0  0  0  0  0  0  0  0  0  0  0
   20.5798   20.1798   22.6845 C   0  0  0  0  0  0  0  0  0  0  0  0
   19.7409   20.8891   22.7001 H   0  0  0  0  0  0  0  0  0  0  0  0
   21.4789   20.7566   22.9413 H   0  0  0  0  0  0  0  0  0  0  0  0
   20.7530   19.6140   21.2548 C   0  0  0  0  0  0  0  0  0  0  0  0
   21.5945   18.9080   21.2379 H   0  0  0  0  0  0  0  0  0  0  0  0
   21.0275   20.4402   20.5847 H   0  0  0  0  0  0  0  0  0  0  0  0
   19.4833   18.9245   20.7062 C   0  0  0  0  0  0  0  0  0  0  0  0
   19.2356   18.0464   21.3168 H   0  0  0  0  0  0  0  0  0  0  0  0
   18.6295   19.6129   20.7728 H   0  0  0  0  0  0  0  0  0  0  0  0
   19.6694   18.4798   19.2414 C   0  0  0  0  0  0  0  0  0  0  0  0
   19.8810   19.3401   18.5929 H   0  0  0  0  0  0  0  0  0  0  0  0
   20.5008   17.7686   19.1498 H   0  0  0  0  0  0  0  0  0  0  0  0
   18.7611   17.9894   18.8677 H   0  0  0  0  0  0  0  0  0  0  0  0
  1  2  1  0  0  0  0
  1  3  2  0  0  0  0
  1  4  1  0  0  0  0
  4  5  1  0  0  0  0
  4  6  1  0  0  0  0
  4  7  1  0  0  0  0
  7  8  1  0  0  0  0
  7  9  1  0  0  0  0
  7 10  1  0  0  0  0
 10 11  1  0  0  0  0
 10 12  1  0  0  0  0
 10 13  1  0  0  0  0
 13 14  1  0  0  0  0
 13 15  1  0  0  0  0
 13 16  1  0  0  0  0
 16 17  1  0  0  0  0
 16 18  1  0  0  0  0
 16 19  1  0  0  0  0
 19 20  1  0  0  0  0
 19 21  1  0  0  0  0
 19 22  1  0  0  0  0
 22 23  1  0  0  0  0
 22 24  1  0  0  0  0
 22 25  1  0  0  0  0
M  END
> <VM2 Rank>
5

> <Conf_Id>
1285

> <Probability>
4.94

> <Sum Probability>
44.00

> <Delta G>
0.916

> <G>
-7.047

> <E>
-31.546

> <-TS>
24.499

> <U+W>
-52.114

> <U>
6.583

> <W>
-58.697

> <W(PB)>
-61.199

> <W(SA)>
2.502

> <Valence>
8.069

> <Coulomb>
-2.516

> <VdW>
1.031

> <VdW6>
-8.305

> <VdW12>
9.335

> <Bond>
0.150

> <Angle>
2.522

> <Pdih>
5.396

> <Idih>
0.001

> <Tether>
0.000

$$$$
VeraChem MOL file


 25 24  0  0  0  0  0  0  0  0999 V2000     
   20.3739   19.6426   27.4433 C   0  0  0  0  0  0  0  0  0  0  0  0
   21.5155   20.0316   27.5914 O   0  5  0  0  0  0  0  0  0  0  0  0
   19.4214   20.1085   28.0369 O   0  0  0  0  0  0  0  0  0  0  0  0
   20.1196   18.5218   26.4416 C   0  0  0  0  0  0  0  0  0  0  0  0
   19.2732   17.9265   26.8047 H   0  0  0  0  0  0  0  0  0  0  0  0
   20.9983   17.8658   26.4341 H   0  0  0  0  0  0  0  0  0  0  0  0
   19.8321   19.0460   25.0131 C   0  0  0  0  0  0  0  0  0  0  0  0
   18.9557   19.7082   25.0393 H   0  0  0  0  0  0  0  0  0  0  0  0
   20.6835   19.6545   24.6808 H   0  0  0  0  0  0  0  0  0  0  0  0
   19.5826   17.8895   24.0174 C   0  0  0  0  0  0  0  0  0  0  0  0
   18.7796   17.2494   24.4077 H   0  0  0  0  0  0  0  0  0  0  0  0
   20.4790   17.2578   23.9508 H   0  0  0  0  0  0  0  0  0  0  0  0
   19.1818   18.3700   22.6024 C   0  0  0  0  0  0  0  0  0  0  0  0
   18.9047   17.4923   22.0027 H   0  0  0  0  0  0  0  0  0  0  0  0
   18.2825   18.9977   22.6681 H   0  0  0  0  0  0  0  0  0  0  0  0
   20.3046   19.1427   21.8721 C   0  0  0  0  0  0  0  0  0  0  0  0
   21.2190   18.5341   21.8562 H   0  0  0  0  0  0  0  0  0  0  0  0
   20.5420   20.0646   22.4186 H   0  0  0  0  0  0  0  0  0  0  0  0
   19.9013   19.5036   20.4268 C   0  0  0  0  0  0  0  0  0  0  0  0
   19.6692   18.5872   19.8666 H   0  0  0  0  0  0  0  0  0  0  0  0
   18.9857   20.1111   20.4388 H   0  0  0  0  0  0  0  0  0  0  0  0
   21.0203   20.2775   19.7010 C   0  0  0  0  0  0  0  0  0  0  0  0
   21.2509   21.2157   20.2224 H   0  0  0  0  0  0  0  0  0  0  0  0
   21.9399   19.6801   19.6474 H   0  0  0  0  0  0  0  0  0  0  0  0
   20.7169   20.5253   18.6755 H   0  0  0  0  0  0  0  0  0  0  0  0
  1  2  1  0  0  0  0
  1  3  2  0  0  0  0
  1  4  1  0  0  0  0
  4  5  1  0  0  0  0
  4  6  1  0  0  0  0
  4  7  1  0  0  0  0
  7  8  1  0  0  0  0
  7  9  1  0  0  0  0
  7 10  1  0  0  0  0
 10 11  1  0  0  0  0
 10 12  1  0  0  0  0
 10 13  1  0  0  0  0
 13 14  1  0  0  0  0
 13 15  1  0  0  0  0
 13 16  1  0  0  0  0
 16 17  1  0  0  0  0
 16 18  1  0  0  0  0
 16 19  1  0  0  0  0
 19 20  1  0  0  0  0
 19 21  1  0  0  0  0
 19 22  1  0  0  0  0
 22 23  1  0  0  0  0
 22 24  1  0  0  0  0
 22 25  1  0  0  0  0
M  END
> <VM2 Rank>
6

> <Conf_Id>
1286

> <Probability>
4.85

> <Sum Probability>
48.86

> <Delta G>
0.926

> <G>
-7.036

> <E>
-31.542

> <-TS>
24.506

> <U+W>
-52.110

> <U>
7.044

> <W>
-59.153

> <W(PB)>
-61.665

> <W(SA)>
2.511

> <Valence>
8.064

> <Coulomb>
-2.027

> <VdW>
1.007

> <VdW6>
-8.345

> <VdW12>
9.352

> <Bond>
0.151

> <Angle>
2.518

> <Pdih>
5.395

> <Idih>
0.001

> <Tether>
0.000

$$$$
VeraChem MOL file


 25 24  0  0  0  0  0  0  0  0999 V2000     
   19.9015   19.6127   27.4487 C   0  0  0  0  0  0  0  0  0  0  0  0
   20.8008   20.1964   28.0208 O   0  5  0  0  0  0  0  0  0  0  0  0
   18.7235   19.8541   27.6237 O   0  0  0  0  0  0  0  0  0  0  0  0
   20.2726   18.5316   26.4399 C   0  0  0  0  0  0  0  0  0  0  0  0
   19.4841   17.7695   26.4517 H   0  0  0  0  0  0  0  0  0  0  0  0
   21.1956   18.0487   26.7825 H   0  0  0  0  0  0  0  0  0  0  0  0
   20.4585   19.0858   25.0059 C   0  0  0  0  0  0  0  0  0  0  0  0
   19.5295   19.5812   24.6942 H   0  0  0  0  0  0  0  0  0  0  0  0
   21.2445   19.8536   25.0128 H   0  0  0  0  0  0  0  0  0  0  0  0
   20.8291   17.9686   24.0030 C   0  0  0  0  0  0  0  0  0  0  0  0
   20.0186   17.2285   23.9562 H   0  0  0  0  0  0  0  0  0  0  0  0
   21.7155   17.4358   24.3737 H   0  0  0  0  0  0  0  0  0  0  0  0
   21.1333   18.4939   22.5799 C   0  0  0  0  0  0  0  0  0  0  0  0
   21.9473   19.2303   22.6258 H   0  0  0  0  0  0  0  0  0  0  0  0
   21.5053   17.6574   21.9726 H   0  0  0  0  0  0  0  0  0  0  0  0
   19.9053   19.1174   21.8767 C   0  0  0  0  0  0  0  0  0  0  0  0
   19.5659   20.0027   22.4299 H   0  0  0  0  0  0  0  0  0  0  0  0
   19.0751   18.3979   21.8811 H   0  0  0  0  0  0  0  0  0  0  0  0
   20.2263   19.5242   20.4230 C   0  0  0  0  0  0  0  0  0  0  0  0
   21.0578   20.2425   20.4148 H   0  0  0  0  0  0  0  0  0  0  0  0
   20.5593   18.6436   19.8563 H   0  0  0  0  0  0  0  0  0  0  0  0
   19.0021   20.1494   19.7244 C   0  0  0  0  0  0  0  0  0  0  0  0
   18.6668   21.0518   20.2523 H   0  0  0  0  0  0  0  0  0  0  0  0
   19.2479   20.4321   18.6925 H   0  0  0  0  0  0  0  0  0  0  0  0
   18.1643   19.4405   19.6912 H   0  0  0  0  0  0  0  0  0  0  0  0
  1  2  1  0  0  0  0
  1  3  2  0  0  0  0
  1  4  1  0  0  0  0
  4  5  1  0  0  0  0
  4  6  1  0  0  0  0
  4  7  1  0  0  0  0
  7  8  1  0  0  0  0
  7  9  1  0  0  0  0
  7 10  1  0  0  0  0
 10 11  1  0  0  0  0
 10 12  1  0  0  0  0
 10 13  1  0  0  0  0
 13 14  1  0  0  0  0
 13 15  1  0  0  0  0
 13 16  1  0  0  0  0
 16 17  1  0  0  0  0
 16 18  1  0  0  0  0
 16 19  1  0  0  0  0
 19 20  1  0  0  0  0
 19 21  1  0  0  0  0
 19 22  1  0  0  0  0
 22 23  1  0  0  0  0
 22 24  1  0  0  0  0
 22 25  1  0  0  0  0
M  END
> <VM2 Rank>
7

> <Conf_Id>
1015

> <Probability>
4.72

> <Sum Probability>
53.58

> <Delta G>
0.943

> <G>
-7.020

> <E>
-31.526

> <-TS>
24.506

> <U+W>
-52.093

> <U>
7.044

> <W>
-59.137

> <W(PB)>
-61.633

> <W(SA)>
2.496

> <Valence>
8.064

> <Coulomb>
-2.027

> <VdW>
1.007

> <VdW6>
-8.345

> <VdW12>
9.352

> <Bond>
0.151

> <Angle>
2.518

> <Pdih>
5.395

> <Idih>
0.001

> <Tether>
0.000

$$$$
VeraChem MOL file


 25 24  0  0  0  0  0  0  0  0999 V2000     
   20.0592   19.4467   27.7000 C   0  0  0  0  0  0  0  0  0  0  0  0
   21.0534   19.9253   28.2089 O   0  5  0  0  0  0  0  0  0  0  0  0
   18.9335   19.6289   28.1198 O   0  0  0  0  0  0  0  0  0  0  0  0
   20.2317   18.5882   26.4520 C   0  0  0  0  0  0  0  0  0  0  0  0
   19.4463   17.8228   26.4539 H   0  0  0  0  0  0  0  0  0  0  0  0
   21.1932   18.0664   26.5278 H   0  0  0  0  0  0  0  0  0  0  0  0
   20.1722   19.4122   25.1423 C   0  0  0  0  0  0  0  0  0  0  0  0
   19.2093   19.9388   25.0883 H   0  0  0  0  0  0  0  0  0  0  0  0
   20.9561   20.1821   25.1619 H   0  0  0  0  0  0  0  0  0  0  0  0
   20.3490   18.5211   23.8938 C   0  0  0  0  0  0  0  0  0  0  0  0
   19.5643   17.7522   23.8772 H   0  0  0  0  0  0  0  0  0  0  0  0
   21.3117   17.9948   23.9520 H   0  0  0  0  0  0  0  0  0  0  0  0
   20.2896   19.3454   22.5896 C   0  0  0  0  0  0  0  0  0  0  0  0
   19.3280   19.8728   22.5410 H   0  0  0  0  0  0  0  0  0  0  0  0
   21.0762   20.1120   22.6040 H   0  0  0  0  0  0  0  0  0  0  0  0
   20.4629   18.4511   21.3401 C   0  0  0  0  0  0  0  0  0  0  0  0
   19.6481   17.7156   21.2954 H   0  0  0  0  0  0  0  0  0  0  0  0
   21.3948   17.8775   21.4377 H   0  0  0  0  0  0  0  0  0  0  0  0
   20.5135   19.2480   20.0157 C   0  0  0  0  0  0  0  0  0  0  0  0
   21.3318   19.9803   20.0543 H   0  0  0  0  0  0  0  0  0  0  0  0
   20.7549   18.5561   19.1971 H   0  0  0  0  0  0  0  0  0  0  0  0
   19.1879   19.9672   19.6839 C   0  0  0  0  0  0  0  0  0  0  0  0
   18.9634   20.7520   20.4169 H   0  0  0  0  0  0  0  0  0  0  0  0
   19.2460   20.4424   18.6961 H   0  0  0  0  0  0  0  0  0  0  0  0
   18.3494   19.2588   19.6693 H   0  0  0  0  0  0  0  0  0  0  0  0
  1  2  1  0  0  0  0
  1  3  2  0  0  0  0
  1  4  1  0  0  0  0
  4  5  1  0  0  0  0
  4  6  1  0  0  0  0
  4  7  1  0  0  0  0
  7  8  1  0  0  0  0
  7  9  1  0  0  0  0
  7 10  1  0  0  0  0
 10 11  1  0  0  0  0
 10 12  1  0  0  0  0
 10 13  1  0  0  0  0
 13 14  1  0  0  0  0
 13 15  1  0  0  0  0
 13 16  1  0  0  0  0
 16 17  1  0  0  0  0
 16 18  1  0  0  0  0
 16 19  1  0  0  0  0
 19 20  1  0  0  0  0
 19 21  1  0  0  0  0
 19 22  1  0  0  0  0
 22 23  1  0  0  0  0
 22 24  1  0  0  0  0
 22 25  1  0  0  0  0
M  END
> <VM2 Rank>
8

> <Conf_Id>
1345

> <Probability>
4.67

> <Sum Probability>
58.25

> <Delta G>
0.950

> <G>
-7.012

> <E>
-31.520

> <-TS>
24.508

> <U+W>
-52.088

> <U>
6.630

> <W>
-58.718

> <W(PB)>
-61.241

> <W(SA)>
2.524

> <Valence>
8.032

> <Coulomb>
-2.441

> <VdW>
1.039

> <VdW6>
-8.257

> <VdW12>
9.295

> <Bond>
0.146

> <Angle>
2.498

> <Pdih>
5.387

> <Idih>
0.001

> <Tether>
0.000

$$$$
VeraChem MOL file


 25 24  0  0  0  0  0  0  0  0999 V2000     
   20.3159   19.1893   27.6664 C   0  0  0  0  0  0  0  0  0  0  0  0
   21.3533   19.6715   28.0762 O   0  5  0  0  0  0  0  0  0  0  0  0
   19.2875   19.1553   28.3129 O   0  0  0  0  0  0  0  0  0  0  0  0
   20.2976   18.6150   26.2544 C   0  0  0  0  0  0  0  0  0  0  0  0
   19.5894   17.7779   26.2362 H   0  0  0  0  0  0  0  0  0  0  0  0
   21.2915   18.2036   26.0411 H   0  0  0  0  0  0  0  0  0  0  0  0
   19.9122   19.6647   25.1831 C   0  0  0  0  0  0  0  0  0  0  0  0
   18.9210   20.0764   25.4190 H   0  0  0  0  0  0  0  0  0  0  0  0
   20.6231   20.5018   25.2229 H   0  0  0  0  0  0  0  0  0  0  0  0
   19.9008   19.0592   23.7627 C   0  0  0  0  0  0  0  0  0  0  0  0
   19.1876   18.2245   23.7253 H   0  0  0  0  0  0  0  0  0  0  0  0
   20.8928   18.6445   23.5413 H   0  0  0  0  0  0  0  0  0  0  0  0
   19.5195   20.1123   22.6968 C   0  0  0  0  0  0  0  0  0  0  0  0
   18.5606   20.5705   22.9751 H   0  0  0  0  0  0  0  0  0  0  0  0
   20.2616   20.9223   22.6940 H   0  0  0  0  0  0  0  0  0  0  0  0
   19.3866   19.5270   21.2706 C   0  0  0  0  0  0  0  0  0  0  0  0
   18.9941   20.3106   20.6082 H   0  0  0  0  0  0  0  0  0  0  0  0
   18.6414   18.7198   21.2721 H   0  0  0  0  0  0  0  0  0  0  0  0
   20.7206   19.0034   20.6918 C   0  0  0  0  0  0  0  0  0  0  0  0
   21.4814   19.7946   20.7398 H   0  0  0  0  0  0  0  0  0  0  0  0
   21.0917   18.1647   21.2954 H   0  0  0  0  0  0  0  0  0  0  0  0
   20.5587   18.5365   19.2311 C   0  0  0  0  0  0  0  0  0  0  0  0
   20.2248   19.3620   18.5889 H   0  0  0  0  0  0  0  0  0  0  0  0
   21.5130   18.1647   18.8359 H   0  0  0  0  0  0  0  0  0  0  0  0
   19.8225   17.7253   19.1577 H   0  0  0  0  0  0  0  0  0  0  0  0
  1  2  1  0  0  0  0
  1  3  2  0  0  0  0
  1  4  1  0  0  0  0
  4  5  1  0  0  0  0
  4  6  1  0  0  0  0
  4  7  1  0  0  0  0
  7  8  1  0  0  0  0
  7  9  1  0  0  0  0
  7 10  1  0  0  0  0
 10 11  1  0  0  0  0
 10 12  1  0  0  0  0
 10 13  1  0  0  0  0
 13 14  1  0  0  0  0
 13 15  1  0  0  0  0
 13 16  1  0  0  0  0
 16 17  1  0  0  0  0
 16 18  1  0  0  0  0
 16 19  1  0  0  0  0
 19 20  1  0  0  0  0
 19 21  1  0  0  0  0
 19 22  1  0  0  0  0
 22 23  1  0  0  0  0
 22 24  1  0  0  0  0
 22 25  1  0  0  0  0
M  END
> <VM2 Rank>
9

> <Conf_Id>
1064

> <Probability>
4.66

> <Sum Probability>
62.91

> <Delta G>
0.951

> <G>
-7.012

> <E>
-31.511

> <-TS>
24.500

> <U+W>
-52.079

> <U>
6.583

> <W>
-58.662

> <W(PB)>
-61.145

> <W(SA)>
2.483

> <Valence>
8.068

> <Coulomb>
-2.516

> <VdW>
1.031

> <VdW6>
-8.305

> <VdW12>
9.335

> <Bond>
0.150

> <Angle>
2.522

> <Pdih>
5.396

> <Idih>
0.001

> <Tether>
0.000

$$$$
VeraChem MOL file


 25 24  0  0  0  0  0  0  0  0999 V2000     
   19.9392   19.5649   27.3299 C   0  0  0  0  0  0  0  0  0  0  0  0
   20.7381   20.3658   27.7741 O   0  5  0  0  0  0  0  0  0  0  0  0
   18.7368   19.7412   27.3337 O   0  0  0  0  0  0  0  0  0  0  0  0
   20.4769   18.2590   26.7513 C   0  0  0  0  0  0  0  0  0  0  0  0
   19.6601   17.5279   26.7191 H   0  0  0  0  0  0  0  0  0  0  0  0
   21.2227   17.8711   27.4551 H   0  0  0  0  0  0  0  0  0  0  0  0
   21.1178   18.4085   25.3471 C   0  0  0  0  0  0  0  0  0  0  0  0
   21.9149   19.1638   25.3894 H   0  0  0  0  0  0  0  0  0  0  0  0
   21.5963   17.4591   25.0709 H   0  0  0  0  0  0  0  0  0  0  0  0
   20.0879   18.7947   24.2618 C   0  0  0  0  0  0  0  0  0  0  0  0
   19.6170   19.7527   24.5224 H   0  0  0  0  0  0  0  0  0  0  0  0
   19.2865   18.0438   24.2326 H   0  0  0  0  0  0  0  0  0  0  0  0
   20.7414   18.9069   22.8675 C   0  0  0  0  0  0  0  0  0  0  0  0
   21.5426   19.6581   22.8977 H   0  0  0  0  0  0  0  0  0  0  0  0
   21.2104   17.9491   22.6035 H   0  0  0  0  0  0  0  0  0  0  0  0
   19.7131   19.2936   21.7827 C   0  0  0  0  0  0  0  0  0  0  0  0
   19.2439   20.2513   22.0467 H   0  0  0  0  0  0  0  0  0  0  0  0
   18.9116   18.5427   21.7525 H   0  0  0  0  0  0  0  0  0  0  0  0
   20.3659   19.4065   20.3890 C   0  0  0  0  0  0  0  0  0  0  0  0
   21.1670   20.1583   20.4150 H   0  0  0  0  0  0  0  0  0  0  0  0
   20.8348   18.4496   20.1209 H   0  0  0  0  0  0  0  0  0  0  0  0
   19.3358   19.7928   19.3087 C   0  0  0  0  0  0  0  0  0  0  0  0
   18.8734   20.7625   19.5356 H   0  0  0  0  0  0  0  0  0  0  0  0
   19.8168   19.8688   18.3249 H   0  0  0  0  0  0  0  0  0  0  0  0
   18.5388   19.0409   19.2391 H   0  0  0  0  0  0  0  0  0  0  0  0
  1  2  1  0  0  0  0
  1  3  2  0  0  0  0
  1  4  1  0  0  0  0
  4  5  1  0  0  0  0
  4  6  1  0  0  0  0
  4  7  1  0  0  0  0
  7  8  1  0  0  0  0
  7  9  1  0  0  0  0
  7 10  1  0  0  0  0
 10 11  1  0  0  0  0
 10 12  1  0  0  0  0
 10 13  1  0  0  0  0
 13 14  1  0  0  0  0
 13 15  1  0  0  0  0
 13 16  1  0  0  0  0
 16 17  1  0  0  0  0
 16 18  1  0  0  0  0
 16 19  1  0  0  0  0
 19 20  1  0  0  0  0
 19 21  1  0  0  0  0
 19 22  1  0  0  0  0
 22 23  1  0  0  0  0
 22 24  1  0  0  0  0
 22 25  1  0  0  0  0
M  END
> <VM2 Rank>
10

> <Conf_Id>
487

> <Probability>
2.27

> <Sum Probability>
65.18

> <Delta G>
1.380

> <G>
-6.582

> <E>
-31.294

> <-TS>
24.711

> <U+W>
-51.862

> <U>
7.816

> <W>
-59.677

> <W(PB)>
-62.182

> <W(SA)>
2.505

> <Valence>
7.785

> <Coulomb>
-0.714

> <VdW>
0.744

> <VdW6>
-8.514

> <VdW12>
9.259

> <Bond>
0.136

> <Angle>
2.433

> <Pdih>
5.216

> <Idih>
0.000

> <Tether>
0.000

$$$$
VeraChem MOL file


 25 24  0  0  0  0  0  0  0  0999 V2000     
   20.2308   18.9547   27.3352 C   0  0  0  0  0  0  0  0  0  0  0  0
   21.3530   19.0792   27.7847 O   0  5  0  0  0  0  0  0  0  0  0  0
   19.6126   17.9084   27.3493 O   0  0  0  0  0  0  0  0  0  0  0  0
   19.5564   20.1851   26.7350 C   0  0  0  0  0  0  0  0  0  0  0  0
   19.7184   21.0187   27.4284 H   0  0  0  0  0  0  0  0  0  0  0  0
   18.4746   20.0084   26.6981 H   0  0  0  0  0  0  0  0  0  0  0  0
   20.0846   20.5705   25.3288 C   0  0  0  0  0  0  0  0  0  0  0  0
   19.6483   21.5352   25.0363 H   0  0  0  0  0  0  0  0  0  0  0  0
   21.1727   20.7170   25.3763 H   0  0  0  0  0  0  0  0  0  0  0  0
   19.7453   19.5117   24.2558 C   0  0  0  0  0  0  0  0  0  0  0  0
   18.6579   19.3592   24.2215 H   0  0  0  0  0  0  0  0  0  0  0  0
   20.1933   18.5472   24.5327 H   0  0  0  0  0  0  0  0  0  0  0  0
   20.2524   19.9304   22.8589 C   0  0  0  0  0  0  0  0  0  0  0  0
   19.8035   20.8932   22.5786 H   0  0  0  0  0  0  0  0  0  0  0  0
   21.3399   20.0824   22.8942 H   0  0  0  0  0  0  0  0  0  0  0  0
   19.9144   18.8725   21.7863 C   0  0  0  0  0  0  0  0  0  0  0  0
   18.8269   18.7200   21.7511 H   0  0  0  0  0  0  0  0  0  0  0  0
   20.3631   17.9095   22.0665 H   0  0  0  0  0  0  0  0  0  0  0  0
   20.4215   19.2903   20.3900 C   0  0  0  0  0  0  0  0  0  0  0  0
   19.9732   20.2524   20.1056 H   0  0  0  0  0  0  0  0  0  0  0  0
   21.5094   19.4417   20.4211 H   0  0  0  0  0  0  0  0  0  0  0  0
   20.0820   18.2312   19.3219 C   0  0  0  0  0  0  0  0  0  0  0  0
   18.9968   18.0824   19.2473 H   0  0  0  0  0  0  0  0  0  0  0  0
   20.4497   18.5443   18.3361 H   0  0  0  0  0  0  0  0  0  0  0  0
   20.5445   17.2657   19.5652 H   0  0  0  0  0  0  0  0  0  0  0  0
  1  2  1  0  0  0  0
  1  3  2  0  0  0  0
  1  4  1  0  0  0  0
  4  5  1  0  0  0  0
  4  6  1  0  0  0  0
  4  7  1  0  0  0  0
  7  8  1  0  0  0  0
  7  9  1  0  0  0  0
  7 10  1  0  0  0  0
 10 11  1  0  0  0  0
 10 12  1  0  0  0  0
 10 13  1  0  0  0  0
 13 14  1  0  0  0  0
 13 15  1  0  0  0  0
 13 16  1  0  0  0  0
 16 17  1  0  0  0  0
 16 18  1  0  0  0  0
 16 19  1  0  0  0  0
 19 20  1  0  0  0  0
 19 21  1  0  0  0  0
 19 22  1  0  0  0  0
 22 23  1  0  0  0  0
 22 24  1  0  0  0  0
 22 25  1  0  0  0  0
M  END
> <VM2 Rank>
11

> <Conf_Id>
54

> <Probability>
2.24

> <Sum Probability>
67.42

> <Delta G>
1.388

> <G>
-6.575

> <E>
-31.286

> <-TS>
24.711

> <U+W>
-51.854

> <U>
7.816

> <W>
-59.670

> <W(PB)>
-62.157

> <W(SA)>
2.487

> <Valence>
7.785

> <Coulomb>
-0.713

> <VdW>
0.744

> <VdW6>
-8.515

> <VdW12>
9.259

> <Bond>
0.136

> <Angle>
2.433

> <Pdih>
5.215

> <Idih>
0.000

> <Tether>
0.000

$$$$
VeraChem MOL file


 25 24  0  0  0  0  0  0  0  0999 V2000     
   20.1099   19.8189   27.3324 C   0  0  0  0  0  0  0  0  0  0  0  0
   21.1343   20.4352   27.5502 O   0  5  0  0  0  0  0  0  0  0  0  0
   19.3799   19.3959   28.2070 O   0  0  0  0  0  0  0  0  0  0  0  0
   19.7318   19.5401   25.8821 C   0  0  0  0  0  0  0  0  0  0  0  0
   20.0756   20.3884   25.2796 H   0  0  0  0  0  0  0  0  0  0  0  0
   18.6377   19.5146   25.8147 H   0  0  0  0  0  0  0  0  0  0  0  0
   20.3319   18.2124   25.3507 C   0  0  0  0  0  0  0  0  0  0  0  0
   21.4289   18.2682   25.3795 H   0  0  0  0  0  0  0  0  0  0  0  0
   20.0450   17.3987   26.0312 H   0  0  0  0  0  0  0  0  0  0  0  0
   19.8641   17.8508   23.9209 C   0  0  0  0  0  0  0  0  0  0  0  0
   18.7676   17.7862   23.8977 H   0  0  0  0  0  0  0  0  0  0  0  0
   20.2398   16.8482   23.6751 H   0  0  0  0  0  0  0  0  0  0  0  0
   20.3496   18.8487   22.8440 C   0  0  0  0  0  0  0  0  0  0  0  0
   19.9237   19.8395   23.0426 H   0  0  0  0  0  0  0  0  0  0  0  0
   21.4419   18.9490   22.9024 H   0  0  0  0  0  0  0  0  0  0  0  0
   19.9488   18.3916   21.4221 C   0  0  0  0  0  0  0  0  0  0  0  0
   18.8542   18.3355   21.3465 H   0  0  0  0  0  0  0  0  0  0  0  0
   20.3249   17.3732   21.2542 H   0  0  0  0  0  0  0  0  0  0  0  0
   20.4982   19.3075   20.3037 C   0  0  0  0  0  0  0  0  0  0  0  0
   21.5935   19.3619   20.3732 H   0  0  0  0  0  0  0  0  0  0  0  0
   20.2716   18.8501   19.3307 H   0  0  0  0  0  0  0  0  0  0  0  0
   19.9045   20.7328   20.3328 C   0  0  0  0  0  0  0  0  0  0  0  0
   20.2044   21.2735   21.2391 H   0  0  0  0  0  0  0  0  0  0  0  0
   20.2554   21.3124   19.4693 H   0  0  0  0  0  0  0  0  0  0  0  0
   18.8078   20.7024   20.2963 H   0  0  0  0  0  0  0  0  0  0  0  0
  1  2  1  0  0  0  0
  1  3  2  0  0  0  0
  1  4  1  0  0  0  0
  4  5  1  0  0  0  0
  4  6  1  0  0  0  0
  4  7  1  0  0  0  0
  7  8  1  0  0  0  0
  7  9  1  0  0  0  0
  7 10  1  0  0  0  0
 10 11  1  0  0  0  0
 10 12  1  0  0  0  0
 10 13  1  0  0  0  0
 13 14  1  0  0  0  0
 13 15  1  0  0  0  0
 13 16  1  0  0  0  0
 16 17  1  0  0  0  0
 16 18  1  0  0  0  0
 16 19  1  0  0  0  0
 19 20  1  0  0  0  0
 19 21  1  0  0  0  0
 19 22  1  0  0  0  0
 22 23  1  0  0  0  0
 22 24  1  0  0  0  0
 22 25  1  0  0  0  0
M  END
> <VM2 Rank>
12

> <Conf_Id>
1177

> <Probability>
1.32

> <Sum Probability>
68.73

> <Delta G>
1.703

> <G>
-6.259

> <E>
-30.875

> <-TS>
24.616

> <U+W>
-51.442

> <U>
7.701

> <W>
-59.143

> <W(PB)>
-61.609

> <W(SA)>
2.466

> <Valence>
8.550

> <Coulomb>
-1.988

> <VdW>
1.139

> <VdW6>
-8.988

> <VdW12>
10.127

> <Bond>
0.191

> <Angle>
2.738

> <Pdih>
5.621

> <Idih>
0.001

> <Tether>
0.000

$$$$
VeraChem MOL file


 25 24  0  0  0  0  0  0  0  0999 V2000     
   20.5515   19.2705   27.3961 C   0  0  0  0  0  0  0  0  0  0  0  0
   21.5342   19.9709   27.5394 O   0  5  0  0  0  0  0  0  0  0  0  0
   19.8337   18.9223   28.3127 O   0  0  0  0  0  0  0  0  0  0  0  0
   20.1854   18.8233   25.9855 C   0  0  0  0  0  0  0  0  0  0  0  0
   19.7050   17.8400   26.0543 H   0  0  0  0  0  0  0  0  0  0  0  0
   21.1180   18.6917   25.4253 H   0  0  0  0  0  0  0  0  0  0  0  0
   19.2499   19.8267   25.2623 C   0  0  0  0  0  0  0  0  0  0  0  0
   18.3691   20.0063   25.8943 H   0  0  0  0  0  0  0  0  0  0  0  0
   19.7599   20.7946   25.1591 H   0  0  0  0  0  0  0  0  0  0  0  0
   18.7728   19.3366   23.8744 C   0  0  0  0  0  0  0  0  0  0  0  0
   18.0317   20.0500   23.4886 H   0  0  0  0  0  0  0  0  0  0  0  0
   18.2519   18.3755   23.9831 H   0  0  0  0  0  0  0  0  0  0  0  0
   19.9178   19.1959   22.8449 C   0  0  0  0  0  0  0  0  0  0  0  0
   20.4691   20.1434   22.7881 H   0  0  0  0  0  0  0  0  0  0  0  0
   20.6286   18.4284   23.1773 H   0  0  0  0  0  0  0  0  0  0  0  0
   19.3810   18.8152   21.4456 C   0  0  0  0  0  0  0  0  0  0  0  0
   18.7135   19.6060   21.0771 H   0  0  0  0  0  0  0  0  0  0  0  0
   18.7690   17.9070   21.5330 H   0  0  0  0  0  0  0  0  0  0  0  0
   20.4980   18.5567   20.4078 C   0  0  0  0  0  0  0  0  0  0  0  0
   21.1628   17.7598   20.7687 H   0  0  0  0  0  0  0  0  0  0  0  0
   20.0394   18.1825   19.4821 H   0  0  0  0  0  0  0  0  0  0  0  0
   21.3286   19.8158   20.0772 C   0  0  0  0  0  0  0  0  0  0  0  0
   20.6813   20.6368   19.7422 H   0  0  0  0  0  0  0  0  0  0  0  0
   21.8985   20.1601   20.9492 H   0  0  0  0  0  0  0  0  0  0  0  0
   22.0464   19.6024   19.2747 H   0  0  0  0  0  0  0  0  0  0  0  0
  1  2  1  0  0  0  0
  1  3  2  0  0  0  0
  1  4  1  0  0  0  0
  4  5  1  0  0  0  0
  4  6  1  0  0  0  0
  4  7  1  0  0  0  0
  7  8  1  0  0  0  0
  7  9  1  0  0  0  0
  7 10  1  0  0  0  0
 10 11  1  0  0  0  0
 10 12  1  0  0  0  0
 10 13  1  0  0  0  0
 13 14  1  0  0  0  0
 13 15  1  0  0  0  0
 13 16  1  0  0  0  0
 16 17  1  0  0  0  0
 16 18  1  0  0  0  0
 16 19  1  0  0  0  0
 19 20  1  0  0  0  0
 19 21  1  0  0  0  0
 19 22  1  0  0  0  0
 22 23  1  0  0  0  0
 22 24  1  0  0  0  0
 22 25  1  0  0  0  0
M  END
> <VM2 Rank>
13

> <Conf_Id>
182

> <Probability>
1.27

> <Sum Probability>
70.00

> <Delta G>
1.726

> <G>
-6.236

> <E>
-30.856

> <-TS>
24.620

> <U+W>
-51.423

> <U>
7.651

> <W>
-59.074

> <W(PB)>
-61.560

> <W(SA)>
2.486

> <Valence>
8.550

> <Coulomb>
-2.035

> <VdW>
1.135

> <VdW6>
-8.973

> <VdW12>
10.108

> <Bond>
0.188

> <Angle>
2.738

> <Pdih>
5.623

> <Idih>
0.001

> <Tether>
0.000

$$$$
VeraChem MOL file


 25 24  0  0  0  0  0  0  0  0999 V2000     
   20.1385   19.8208   27.3321 C   0  0  0  0  0  0  0  0  0  0  0  0
   20.9359   19.4945   28.1890 O   0  5  0  0  0  0  0  0  0  0  0  0
   19.0497   20.3029   27.5743 O   0  0  0  0  0  0  0  0  0  0  0  0
   20.5154   19.5899   25.8731 C   0  0  0  0  0  0  0  0  0  0  0  0
   21.6021   19.7029   25.7806 H   0  0  0  0  0  0  0  0  0  0  0  0
   20.0533   20.3870   25.2799 H   0  0  0  0  0  0  0  0  0  0  0  0
   20.0759   18.1962   25.3537 C   0  0  0  0  0  0  0  0  0  0  0  0
   20.4790   17.4263   26.0261 H   0  0  0  0  0  0  0  0  0  0  0  0
   18.9816   18.1129   25.4077 H   0  0  0  0  0  0  0  0  0  0  0  0
   20.5528   17.8946   23.9129 C   0  0  0  0  0  0  0  0  0  0  0  0
   20.3014   16.8521   23.6744 H   0  0  0  0  0  0  0  0  0  0  0  0
   21.6478   17.9691   23.8645 H   0  0  0  0  0  0  0  0  0  0  0  0
   19.9203   18.8214   22.8489 C   0  0  0  0  0  0  0  0  0  0  0  0
   18.8257   18.7827   22.9326 H   0  0  0  0  0  0  0  0  0  0  0  0
   20.2218   19.8585   23.0392 H   0  0  0  0  0  0  0  0  0  0  0  0
   20.3430   18.4167   21.4176 C   0  0  0  0  0  0  0  0  0  0  0  0
   20.0951   17.3586   21.2569 H   0  0  0  0  0  0  0  0  0  0  0  0
   21.4338   18.4994   21.3168 H   0  0  0  0  0  0  0  0  0  0  0  0
   19.6564   19.2540   20.3134 C   0  0  0  0  0  0  0  0  0  0  0  0
   19.9168   18.8276   19.3348 H   0  0  0  0  0  0  0  0  0  0  0  0
   18.5650   19.1692   20.4080 H   0  0  0  0  0  0  0  0  0  0  0  0
   20.0653   20.7430   20.3310 C   0  0  0  0  0  0  0  0  0  0  0  0
   21.1559   20.8518   20.2694 H   0  0  0  0  0  0  0  0  0  0  0  0
   19.6241   21.2722   19.4766 H   0  0  0  0  0  0  0  0  0  0  0  0
   19.7201   21.2427   21.2447 H   0  0  0  0  0  0  0  0  0  0  0  0
  1  2  1  0  0  0  0
  1  3  2  0  0  0  0
  1  4  1  0  0  0  0
  4  5  1  0  0  0  0
  4  6  1  0  0  0  0
  4  7  1  0  0  0  0
  7  8  1  0  0  0  0
  7  9  1  0  0  0  0
  7 10  1  0  0  0  0
 10 11  1  0  0  0  0
 10 12  1  0  0  0  0
 10 13  1  0  0  0  0
 13 14  1  0  0  0  0
 13 15  1  0  0  0  0
 13 16  1  0  0  0  0
 16 17  1  0  0  0  0
 16 18  1  0  0  0  0
 16 19  1  0  0  0  0
 19 20  1  0  0  0  0
 19 21  1  0  0  0  0
 19 22  1  0  0  0  0
 22 23  1  0  0  0  0
 22 24  1  0  0  0  0
 22 25  1  0  0  0  0
M  END
> <VM2 Rank>
14

> <Conf_Id>
1183

> <Probability>
1.25

> <Sum Probability>
71.26

> <Delta G>
1.733

> <G>
-6.229

> <E>
-30.845

> <-TS>
24.616

> <U+W>
-51.412

> <U>
7.701

> <W>
-59.113

> <W(PB)>
-61.583

> <W(SA)>
2.470

> <Valence>
8.550

> <Coulomb>
-1.988

> <VdW>
1.139

> <VdW6>
-8.988

> <VdW12>
10.127

> <Bond>
0.191

> <Angle>
2.738

> <Pdih>
5.621

> <Idih>
0.001

> <Tether>
0.000

$$$$
VeraChem MOL file


 25 24  0  0  0  0  0  0  0  0999 V2000     
   19.7714   19.2205   27.4051 C   0  0  0  0  0  0  0  0  0  0  0  0
   20.5487   18.9678   28.3044 O   0  5  0  0  0  0  0  0  0  0  0  0
   18.7111   19.7903   27.5721 O   0  0  0  0  0  0  0  0  0  0  0  0
   20.1588   18.8217   25.9857 C   0  0  0  0  0  0  0  0  0  0  0  0
   19.2380   18.5717   25.4470 H   0  0  0  0  0  0  0  0  0  0  0  0
   20.7620   17.9077   26.0418 H   0  0  0  0  0  0  0  0  0  0  0  0
   20.9421   19.9351   25.2427 C   0  0  0  0  0  0  0  0  0  0  0  0
   20.3108   20.8299   25.1527 H   0  0  0  0  0  0  0  0  0  0  0  0
   21.8071   20.2262   25.8546 H   0  0  0  0  0  0  0  0  0  0  0  0
   21.4458   19.5077   23.8435 C   0  0  0  0  0  0  0  0  0  0  0  0
   22.0873   18.6210   23.9388 H   0  0  0  0  0  0  0  0  0  0  0  0
   22.0808   20.3092   23.4418 H   0  0  0  0  0  0  0  0  0  0  0  0
   20.3046   19.2207   22.8404 C   0  0  0  0  0  0  0  0  0  0  0  0
   19.7054   18.3694   23.1879 H   0  0  0  0  0  0  0  0  0  0  0  0
   19.6358   20.0902   22.7978 H   0  0  0  0  0  0  0  0  0  0  0  0
   20.8532   18.9096   21.4286 C   0  0  0  0  0  0  0  0  0  0  0  0
   21.5779   18.0871   21.5005 H   0  0  0  0  0  0  0  0  0  0  0  0
   21.4057   19.7787   21.0459 H   0  0  0  0  0  0  0  0  0  0  0  0
   19.7547   18.5092   20.4164 C   0  0  0  0  0  0  0  0  0  0  0  0
   20.2359   18.1953   19.4798 H   0  0  0  0  0  0  0  0  0  0  0  0
   19.2057   17.6343   20.7913 H   0  0  0  0  0  0  0  0  0  0  0  0
   18.7626   19.6514   20.1071 C   0  0  0  0  0  0  0  0  0  0  0  0
   19.2918   20.5479   19.7586 H   0  0  0  0  0  0  0  0  0  0  0  0
   18.0596   19.3469   19.3210 H   0  0  0  0  0  0  0  0  0  0  0  0
   18.1737   19.9212   20.9926 H   0  0  0  0  0  0  0  0  0  0  0  0
  1  2  1  0  0  0  0
  1  3  2  0  0  0  0
  1  4  1  0  0  0  0
  4  5  1  0  0  0  0
  4  6  1  0  0  0  0
  4  7  1  0  0  0  0
  7  8  1  0  0  0  0
  7  9  1  0  0  0  0
  7 10  1  0  0  0  0
 10 11  1  0  0  0  0
 10 12  1  0  0  0  0
 10 13  1  0  0  0  0
 13 14  1  0  0  0  0
 13 15  1  0  0  0  0
 13 16  1  0  0  0  0
 16 17  1  0  0  0  0
 16 18  1  0  0  0  0
 16 19  1  0  0  0  0
 19 20  1  0  0  0  0
 19 21  1  0  0  0  0
 19 22  1  0  0  0  0
 22 23  1  0  0  0  0
 22 24  1  0  0  0  0
 22 25  1  0  0  0  0
M  END
> <VM2 Rank>
15

> <Conf_Id>
1343

> <Probability>
1.25

> <Sum Probability>
72.51

> <Delta G>
1.734

> <G>
-6.228

> <E>
-30.848

> <-TS>
24.620

> <U+W>
-51.416

> <U>
7.651

> <W>
-59.067

> <W(PB)>
-61.559

> <W(SA)>
2.493

> <Valence>
8.550

> <Coulomb>
-2.035

> <VdW>
1.135

> <VdW6>
-8.973

> <VdW12>
10.108

> <Bond>
0.188

> <Angle>
2.738

> <Pdih>
5.623

> <Idih>
0.001

> <Tether>
0.000

$$$$
VeraChem MOL file


 25 24  0  0  0  0  0  0  0  0999 V2000     
   20.1388   19.0331   27.4846 C   0  0  0  0  0  0  0  0  0  0  0  0
   21.2269   19.2320   27.9878 O   0  5  0  0  0  0  0  0  0  0  0  0
   19.1036   18.9788   28.1189 O   0  0  0  0  0  0  0  0  0  0  0  0
   20.0651   18.8653   25.9712 C   0  0  0  0  0  0  0  0  0  0  0  0
   19.2374   18.1827   25.7445 H   0  0  0  0  0  0  0  0  0  0  0  0
   20.9895   18.3758   25.6445 H   0  0  0  0  0  0  0  0  0  0  0  0
   19.8674   20.2117   25.2274 C   0  0  0  0  0  0  0  0  0  0  0  0
   18.9832   20.7168   25.6402 H   0  0  0  0  0  0  0  0  0  0  0  0
   20.7231   20.8709   25.4285 H   0  0  0  0  0  0  0  0  0  0  0  0
   19.6789   20.0497   23.7003 C   0  0  0  0  0  0  0  0  0  0  0  0
   19.4408   21.0327   23.2714 H   0  0  0  0  0  0  0  0  0  0  0  0
   18.8090   19.4072   23.5112 H   0  0  0  0  0  0  0  0  0  0  0  0
   20.9279   19.4768   22.9870 C   0  0  0  0  0  0  0  0  0  0  0  0
   21.8099   20.0580   23.2886 H   0  0  0  0  0  0  0  0  0  0  0  0
   21.1079   18.4440   23.3127 H   0  0  0  0  0  0  0  0  0  0  0  0
   20.8223   19.5103   21.4437 C   0  0  0  0  0  0  0  0  0  0  0  0
   21.7870   19.1972   21.0216 H   0  0  0  0  0  0  0  0  0  0  0  0
   20.6574   20.5433   21.1081 H   0  0  0  0  0  0  0  0  0  0  0  0
   19.7089   18.5966   20.8836 C   0  0  0  0  0  0  0  0  0  0  0  0
   19.8447   17.5734   21.2602 H   0  0  0  0  0  0  0  0  0  0  0  0
   18.7265   18.9395   21.2343 H   0  0  0  0  0  0  0  0  0  0  0  0
   19.7133   18.5796   19.3416 C   0  0  0  0  0  0  0  0  0  0  0  0
   20.6700   18.2046   18.9551 H   0  0  0  0  0  0  0  0  0  0  0  0
   18.9156   17.9293   18.9597 H   0  0  0  0  0  0  0  0  0  0  0  0
   19.5516   19.5876   18.9376 H   0  0  0  0  0  0  0  0  0  0  0  0
  1  2  1  0  0  0  0
  1  3  2  0  0  0  0
  1  4  1  0  0  0  0
  4  5  1  0  0  0  0
  4  6  1  0  0  0  0
  4  7  1  0  0  0  0
  7  8  1  0  0  0  0
  7  9  1  0  0  0  0
  7 10  1  0  0  0  0
 10 11  1  0  0  0  0
 10 12  1  0  0  0  0
 10 13  1  0  0  0  0
 13 14  1  0  0  0  0
 13 15  1  0  0  0  0
 13 16  1  0  0  0  0
 16 17  1  0  0  0  0
 16 18  1  0  0  0  0
 16 19  1  0  0  0  0
 19 20  1  0  0  0  0
 19 21  1  0  0  0  0
 19 22  1  0  0  0  0
 22 23  1  0  0  0  0
 22 24  1  0  0  0  0
 22 25  1  0  0  0  0
M  END
> <VM2 Rank>
16

> <Conf_Id>
972

> <Probability>
1.22

> <Sum Probability>
73.73

> <Delta G>
1.748

> <G>
-6.214

> <E>
-30.850

> <-TS>
24.636

> <U+W>
-51.418

> <U>
7.389

> <W>
-58.807

> <W(PB)>
-61.285

> <W(SA)>
2.478

> <Valence>
8.557

> <Coulomb>
-2.278

> <VdW>
1.110

> <VdW6>
-9.029

> <VdW12>
10.139

> <Bond>
0.192

> <Angle>
2.716

> <Pdih>
5.648

> <Idih>
0.001

> <Tether>
0.000

$$$$
VeraChem MOL file


 25 24  0  0  0  0  0  0  0  0999 V2000     
   20.2132   19.0378   27.4837 C   0  0  0  0  0  0  0  0  0  0  0  0
   21.2611   19.1175   28.0939 O   0  5  0  0  0  0  0  0  0  0  0  0
   19.1205   19.0967   28.0122 O   0  0  0  0  0  0  0  0  0  0  0  0
   20.2728   18.8786   25.9688 C   0  0  0  0  0  0  0  0  0  0  0  0
   19.4113   18.2744   25.6628 H   0  0  0  0  0  0  0  0  0  0  0  0
   21.1756   18.3073   25.7220 H   0  0  0  0  0  0  0  0  0  0  0  0
   20.2794   20.2381   25.2227 C   0  0  0  0  0  0  0  0  0  0  0  0
   19.3512   20.7828   25.4444 H   0  0  0  0  0  0  0  0  0  0  0  0
   21.1010   20.8529   25.6157 H   0  0  0  0  0  0  0  0  0  0  0  0
   20.4519   20.0994   23.6914 C   0  0  0  0  0  0  0  0  0  0  0  0
   21.3922   19.5732   23.4814 H   0  0  0  0  0  0  0  0  0  0  0  0
   20.5522   21.1041   23.2586 H   0  0  0  0  0  0  0  0  0  0  0  0
   19.2703   19.3703   23.0062 C   0  0  0  0  0  0  0  0  0  0  0  0
   19.2315   18.3234   23.3344 H   0  0  0  0  0  0  0  0  0  0  0  0
   18.3283   19.8342   23.3289 H   0  0  0  0  0  0  0  0  0  0  0  0
   19.3351   19.4147   21.4609 C   0  0  0  0  0  0  0  0  0  0  0  0
   19.3587   20.4598   21.1232 H   0  0  0  0  0  0  0  0  0  0  0  0
   18.4090   18.9801   21.0607 H   0  0  0  0  0  0  0  0  0  0  0  0
   20.5432   18.6503   20.8739 C   0  0  0  0  0  0  0  0  0  0  0  0
   21.4814   19.1166   21.2024 H   0  0  0  0  0  0  0  0  0  0  0  0
   20.5482   17.6187   21.2521 H   0  0  0  0  0  0  0  0  0  0  0  0
   20.5054   18.6305   19.3324 C   0  0  0  0  0  0  0  0  0  0  0  0
   20.5275   19.6503   18.9263 H   0  0  0  0  0  0  0  0  0  0  0  0
   21.3708   18.0872   18.9313 H   0  0  0  0  0  0  0  0  0  0  0  0
   19.5959   18.1355   18.9676 H   0  0  0  0  0  0  0  0  0  0  0  0
  1  2  1  0  0  0  0
  1  3  2  0  0  0  0
  1  4  1  0  0  0  0
  4  5  1  0  0  0  0
  4  6  1  0  0  0  0
  4  7  1  0  0  0  0
  7  8  1  0  0  0  0
  7  9  1  0  0  0  0
  7 10  1  0  0  0  0
 10 11  1  0  0  0  0
 10 12  1  0  0  0  0
 10 13  1  0  0  0  0
 13 14  1  0  0  0  0
 13 15  1  0  0  0  0
 13 16  1  0  0  0  0
 16 17  1  0  0  0  0
 16 18  1  0  0  0  0
 16 19  1  0  0  0  0
 19 20  1  0  0  0  0
 19 21  1  0  0  0  0
 19 22  1  0  0  0  0
 22 23  1  0  0  0  0
 22 24  1  0  0  0  0
 22 25  1  0  0  0  0
M  END
> <VM2 Rank>
17

> <Conf_Id>
531

> <Probability>
1.20

> <Sum Probability>
74.93

> <Delta G>
1.758

> <G>
-6.204

> <E>
-30.840

> <-TS>
24.636

> <U+W>
-51.408

> <U>
7.389

> <W>
-58.797

> <W(PB)>
-61.267

> <W(SA)>
2.470

> <Valence>
8.557

> <Coulomb>
-2.278

> <VdW>
1.110

> <VdW6>
-9.029

> <VdW12>
10.139

> <Bond>
0.192

> <Angle>
2.716

> <Pdih>
5.648

> <Idih>
0.001

> <Tether>
0.000

$$$$
VeraChem MOL file


 25 24  0  0  0  0  0  0  0  0999 V2000     
   20.1300   19.3383   27.8293 C   0  0  0  0  0  0  0  0  0  0  0  0
   21.0194   20.1667   27.8666 O   0  5  0  0  0  0  0  0  0  0  0  0
   19.6101   18.8772   28.8259 O   0  0  0  0  0  0  0  0  0  0  0  0
   19.6204   18.8328   26.4787 C   0  0  0  0  0  0  0  0  0  0  0  0
   18.5433   19.0335   26.4398 H   0  0  0  0  0  0  0  0  0  0  0  0
   19.7445   17.7435   26.4694 H   0  0  0  0  0  0  0  0  0  0  0  0
   20.3144   19.4505   25.2356 C   0  0  0  0  0  0  0  0  0  0  0  0
   20.1917   20.5424   25.2547 H   0  0  0  0  0  0  0  0  0  0  0  0
   21.3940   19.2512   25.2842 H   0  0  0  0  0  0  0  0  0  0  0  0
   19.7407   18.8862   23.9177 C   0  0  0  0  0  0  0  0  0  0  0  0
   18.6614   19.0866   23.8713 H   0  0  0  0  0  0  0  0  0  0  0  0
   19.8645   17.7946   23.9009 H   0  0  0  0  0  0  0  0  0  0  0  0
   20.4325   19.5021   22.6825 C   0  0  0  0  0  0  0  0  0  0  0  0
   20.3089   20.5937   22.6991 H   0  0  0  0  0  0  0  0  0  0  0  0
   21.5118   19.3018   22.7286 H   0  0  0  0  0  0  0  0  0  0  0  0
   19.8593   18.9382   21.3644 C   0  0  0  0  0  0  0  0  0  0  0  0
   18.7800   19.1384   21.3181 H   0  0  0  0  0  0  0  0  0  0  0  0
   19.9829   17.8466   21.3476 H   0  0  0  0  0  0  0  0  0  0  0  0
   20.5507   19.5538   20.1298 C   0  0  0  0  0  0  0  0  0  0  0  0
   20.4275   20.6457   20.1421 H   0  0  0  0  0  0  0  0  0  0  0  0
   21.6304   19.3539   20.1716 H   0  0  0  0  0  0  0  0  0  0  0  0
   19.9755   18.9883   18.8156 C   0  0  0  0  0  0  0  0  0  0  0  0
   18.9018   19.2019   18.7326 H   0  0  0  0  0  0  0  0  0  0  0  0
   20.4782   19.4365   17.9487 H   0  0  0  0  0  0  0  0  0  0  0  0
   20.1138   17.9004   18.7624 H   0  0  0  0  0  0  0  0  0  0  0  0
  1  2  1  0  0  0  0
  1  3  2  0  0  0  0
  1  4  1  0  0  0  0
  4  5  1  0  0  0  0
  4  6  1  0  0  0  0
  4  7  1  0  0  0  0
  7  8  1  0  0  0  0
  7  9  1  0  0  0  0
  7 10  1  0  0  0  0
 10 11  1  0  0  0  0
 10 12  1  0  0  0  0
 10 13  1  0  0  0  0
 13 14  1  0  0  0  0
 13 15  1  0  0  0  0
 13 16  1  0  0  0  0
 16 17  1  0  0  0  0
 16 18  1  0  0  0  0
 16 19  1  0  0  0  0
 19 20  1  0  0  0  0
 19 21  1  0  0  0  0
 19 22  1  0  0  0  0
 22 23  1  0  0  0  0
 22 24  1  0  0  0  0
 22 25  1  0  0  0  0
M  END
> <VM2 Rank>
18

> <Conf_Id>
0

> <Probability>
1.09

> <Sum Probability>
76.02

> <Delta G>
1.818

> <G>
-6.144

> <E>
-31.062

> <-TS>
24.917

> <U+W>
-51.629

> <U>
6.586

> <W>
-58.216

> <W(PB)>
-60.757

> <W(SA)>
2.541

> <Valence>
8.027

> <Coulomb>
-2.892

> <VdW>
1.451

> <VdW6>
-7.931

> <VdW12>
9.383

> <Bond>
0.149

> <Angle>
2.726

> <Pdih>
5.152

> <Idih>
0.000

> <Tether>
0.000

$$$$
VeraChem MOL file


 25 24  0  0  0  0  0  0  0  0999 V2000     
   19.6154   19.4349   27.0508 C   0  0  0  0  0  0  0  0  0  0  0  0
   20.1491   19.2818   28.1318 O   0  5  0  0  0  0  0  0  0  0  0  0
   18.6452   20.1448   26.8737 O   0  0  0  0  0  0  0  0  0  0  0  0
   20.2101   18.7141   25.8464 C   0  0  0  0  0  0  0  0  0  0  0  0
   19.3868   18.4664   25.1667 H   0  0  0  0  0  0  0  0  0  0  0  0
   20.6425   17.7684   26.1940 H   0  0  0  0  0  0  0  0  0  0  0  0
   21.2856   19.5574   25.1138 C   0  0  0  0  0  0  0  0  0  0  0  0
   20.8325   20.4847   24.7388 H   0  0  0  0  0  0  0  0  0  0  0  0
   22.0482   19.8661   25.8420 H   0  0  0  0  0  0  0  0  0  0  0  0
   21.9861   18.7995   23.9579 C   0  0  0  0  0  0  0  0  0  0  0  0
   22.5323   17.9423   24.3748 H   0  0  0  0  0  0  0  0  0  0  0  0
   22.7469   19.4568   23.5153 H   0  0  0  0  0  0  0  0  0  0  0  0
   21.0478   18.2914   22.8343 C   0  0  0  0  0  0  0  0  0  0  0  0
   21.6578   17.7660   22.0869 H   0  0  0  0  0  0  0  0  0  0  0  0
   20.3510   17.5443   23.2362 H   0  0  0  0  0  0  0  0  0  0  0  0
   20.2565   19.4196   22.1332 C   0  0  0  0  0  0  0  0  0  0  0  0
   20.9538   20.1884   21.7735 H   0  0  0  0  0  0  0  0  0  0  0  0
   19.5842   19.9061   22.8521 H   0  0  0  0  0  0  0  0  0  0  0  0
   19.4250   18.8825   20.9493 C   0  0  0  0  0  0  0  0  0  0  0  0
   20.0886   18.3995   20.2187 H   0  0  0  0  0  0  0  0  0  0  0  0
   18.7280   18.1117   21.3064 H   0  0  0  0  0  0  0  0  0  0  0  0
   18.6322   20.0081   20.2550 C   0  0  0  0  0  0  0  0  0  0  0  0
   18.0472   19.6088   19.4163 H   0  0  0  0  0  0  0  0  0  0  0  0
   17.9363   20.4880   20.9556 H   0  0  0  0  0  0  0  0  0  0  0  0
   19.3076   20.7787   19.8608 H   0  0  0  0  0  0  0  0  0  0  0  0
  1  2  1  0  0  0  0
  1  3  2  0  0  0  0
  1  4  1  0  0  0  0
  4  5  1  0  0  0  0
  4  6  1  0  0  0  0
  4  7  1  0  0  0  0
  7  8  1  0  0  0  0
  7  9  1  0  0  0  0
  7 10  1  0  0  0  0
 10 11  1  0  0  0  0
 10 12  1  0  0  0  0
 10 13  1  0  0  0  0
 13 14  1  0  0  0  0
 13 15  1  0  0  0  0
 13 16  1  0  0  0  0
 16 17  1  0  0  0  0
 16 18  1  0  0  0  0
 16 19  1  0  0  0  0
 19 20  1  0  0  0  0
 19 21  1  0  0  0  0
 19 22  1  0  0  0  0
 22 23  1  0  0  0  0
 22 24  1  0  0  0  0
 22 25  1  0  0  0  0
M  END
> <VM2 Rank>
19

> <Conf_Id>
509

> <Probability>
1.07

> <Sum Probability>
77.10

> <Delta G>
1.825

> <G>
-6.137

> <E>
-30.981

> <-TS>
24.843

> <U+W>
-51.548

> <U>
8.114

> <W>
-59.662

> <W(PB)>
-62.135

> <W(SA)>
2.473

> <Valence>
8.487

> <Coulomb>
-1.260

> <VdW>
0.887

> <VdW6>
-9.447

> <VdW12>
10.334

> <Bond>
0.199

> <Angle>
2.915

> <Pdih>
5.373

> <Idih>
0.001

> <Tether>
0.000

$$$$
VeraChem MOL file


 25 24  0  0  0  0  0  0  0  0999 V2000     
   20.0841   18.9727   27.4387 C   0  0  0  0  0  0  0  0  0  0  0  0
   21.0697   18.4370   27.9060 O   0  5  0  0  0  0  0  0  0  0  0  0
   18.9471   18.6873   27.7586 O   0  0  0  0  0  0  0  0  0  0  0  0
   20.2847   20.0479   26.3767 C   0  0  0  0  0  0  0  0  0  0  0  0
   21.2220   20.5729   26.5966 H   0  0  0  0  0  0  0  0  0  0  0  0
   19.4729   20.7787   26.4741 H   0  0  0  0  0  0  0  0  0  0  0  0
   20.3171   19.4741   24.9387 C   0  0  0  0  0  0  0  0  0  0  0  0
   21.1287   18.7376   24.8600 H   0  0  0  0  0  0  0  0  0  0  0  0
   19.3782   18.9371   24.7495 H   0  0  0  0  0  0  0  0  0  0  0  0
   20.5169   20.5852   23.8820 C   0  0  0  0  0  0  0  0  0  0  0  0
   21.4211   21.1573   24.1312 H   0  0  0  0  0  0  0  0  0  0  0  0
   19.6787   21.2939   23.9262 H   0  0  0  0  0  0  0  0  0  0  0  0
   20.6615   20.0432   22.4401 C   0  0  0  0  0  0  0  0  0  0  0  0
   20.9117   20.8815   21.7758 H   0  0  0  0  0  0  0  0  0  0  0  0
   21.5107   19.3484   22.3994 H   0  0  0  0  0  0  0  0  0  0  0  0
   19.3820   19.3480   21.9138 C   0  0  0  0  0  0  0  0  0  0  0  0
   18.5213   20.0108   22.0768 H   0  0  0  0  0  0  0  0  0  0  0  0
   19.1862   18.4337   22.4891 H   0  0  0  0  0  0  0  0  0  0  0  0
   19.4530   18.9941   20.4101 C   0  0  0  0  0  0  0  0  0  0  0  0
   18.4756   18.6057   20.0924 H   0  0  0  0  0  0  0  0  0  0  0  0
   19.6306   19.9053   19.8222 H   0  0  0  0  0  0  0  0  0  0  0  0
   20.5368   17.9446   20.0814 C   0  0  0  0  0  0  0  0  0  0  0  0
   20.3950   17.0336   20.6774 H   0  0  0  0  0  0  0  0  0  0  0  0
   20.4918   17.6652   19.0208 H   0  0  0  0  0  0  0  0  0  0  0  0
   21.5435   18.3330   20.2803 H   0  0  0  0  0  0  0  0  0  0  0  0
  1  2  1  0  0  0  0
  1  3  2  0  0  0  0
  1  4  1  0  0  0  0
  4  5  1  0  0  0  0
  4  6  1  0  0  0  0
  4  7  1  0  0  0  0
  7  8  1  0  0  0  0
  7  9  1  0  0  0  0
  7 10  1  0  0  0  0
 10 11  1  0  0  0  0
 10 12  1  0  0  0  0
 10 13  1  0  0  0  0
 13 14  1  0  0  0  0
 13 15  1  0  0  0  0
 13 16  1  0  0  0  0
 16 17  1  0  0  0  0
 16 18  1  0  0  0  0
 16 19  1  0  0  0  0
 19 20  1  0  0  0  0
 19 21  1  0  0  0  0
 19 22  1  0  0  0  0
 22 23  1  0  0  0  0
 22 24  1  0  0  0  0
 22 25  1  0  0  0  0
M  END
> <VM2 Rank>
20

> <Conf_Id>
494

> <Probability>
1.06

> <Sum Probability>
78.16

> <Delta G>
1.834

> <G>
-6.128

> <E>
-30.769

> <-TS>
24.641

> <U+W>
-51.337

> <U>
7.838

> <W>
-59.175

> <W(PB)>
-61.669

> <W(SA)>
2.494

> <Valence>
8.536

> <Coulomb>
-1.810

> <VdW>
1.112

> <VdW6>
-8.987

> <VdW12>
10.099

> <Bond>
0.183

> <Angle>
2.701

> <Pdih>
5.652

> <Idih>
0.001

> <Tether>
0.000

$$$$
VeraChem MOL file


 25 24  0  0  0  0  0  0  0  0999 V2000     
   20.6711   19.5017   27.0385 C   0  0  0  0  0  0  0  0  0  0  0  0
   21.5395   20.3282   26.8402 O   0  5  0  0  0  0  0  0  0  0  0  0
   20.1863   19.2836   28.1313 O   0  0  0  0  0  0  0  0  0  0  0  0
   20.1444   18.7100   25.8470 C   0  0  0  0  0  0  0  0  0  0  0  0
   19.8429   17.7178   26.2030 H   0  0  0  0  0  0  0  0  0  0  0  0
   20.9765   18.5671   25.1481 H   0  0  0  0  0  0  0  0  0  0  0  0
   18.9546   19.4099   25.1407 C   0  0  0  0  0  0  0  0  0  0  0  0
   18.1761   19.6211   25.8868 H   0  0  0  0  0  0  0  0  0  0  0  0
   19.2784   20.3864   24.7568 H   0  0  0  0  0  0  0  0  0  0  0  0
   18.3287   18.5682   24.0001 C   0  0  0  0  0  0  0  0  0  0  0  0
   17.4812   19.1238   23.5761 H   0  0  0  0  0  0  0  0  0  0  0  0
   17.9046   17.6497   24.4282 H   0  0  0  0  0  0  0  0  0  0  0  0
   19.2974   18.1807   22.8545 C   0  0  0  0  0  0  0  0  0  0  0  0
   20.0918   17.5279   23.2392 H   0  0  0  0  0  0  0  0  0  0  0  0
   18.7414   17.5817   22.1205 H   0  0  0  0  0  0  0  0  0  0  0  0
   19.9241   19.3986   22.1371 C   0  0  0  0  0  0  0  0  0  0  0  0
   20.5461   19.9669   22.8411 H   0  0  0  0  0  0  0  0  0  0  0  0
   19.1275   20.0730   21.7947 H   0  0  0  0  0  0  0  0  0  0  0  0
   20.7892   18.9688   20.9336 C   0  0  0  0  0  0  0  0  0  0  0  0
   21.5856   18.2924   21.2734 H   0  0  0  0  0  0  0  0  0  0  0  0
   20.1750   18.4051   20.2177 H   0  0  0  0  0  0  0  0  0  0  0  0
   21.4179   20.1843   20.2230 C   0  0  0  0  0  0  0  0  0  0  0  0
   20.6419   20.8632   19.8455 H   0  0  0  0  0  0  0  0  0  0  0  0
   22.0636   20.7490   20.9082 H   0  0  0  0  0  0  0  0  0  0  0  0
   22.0291   19.8607   19.3705 H   0  0  0  0  0  0  0  0  0  0  0  0
  1  2  1  0  0  0  0
  1  3  2  0  0  0  0
  1  4  1  0  0  0  0
  4  5  1  0  0  0  0
  4  6  1  0  0  0  0
  4  7  1  0  0  0  0
  7  8  1  0  0  0  0
  7  9  1  0  0  0  0
  7 10  1  0  0  0  0
 10 11  1  0  0  0  0
 10 12  1  0  0  0  0
 10 13  1  0  0  0  0
 13 14  1  0  0  0  0
 13 15  1  0  0  0  0
 13 16  1  0  0  0  0
 16 17  1  0  0  0  0
 16 18  1  0  0  0  0
 16 19  1  0  0  0  0
 19 20  1  0  0  0  0
 19 21  1  0  0  0  0
 19 22  1  0  0  0  0
 22 23  1  0  0  0  0
 22 24  1  0  0  0  0
 22 25  1  0  0  0  0
M  END
> <VM2 Rank>
21

> <Conf_Id>
847

> <Probability>
1.05

> <Sum Probability>
79.20

> <Delta G>
1.840

> <G>
-6.123

> <E>
-30.966

> <-TS>
24.843

> <U+W>
-51.534

> <U>
8.114

> <W>
-59.648

> <W(PB)>
-62.099

> <W(SA)>
2.451

> <Valence>
8.487

> <Coulomb>
-1.260

> <VdW>
0.887

> <VdW6>
-9.447

> <VdW12>
10.334

> <Bond>
0.199

> <Angle>
2.915

> <Pdih>
5.373

> <Idih>
0.001

> <Tether>
0.000

$$$$
VeraChem MOL file


 25 24  0  0  0  0  0  0  0  0999 V2000     
   20.2743   18.9849   27.4364 C   0  0  0  0  0  0  0  0  0  0  0  0
   21.4456   18.8494   27.7301 O   0  5  0  0  0  0  0  0  0  0  0  0
   19.3770   18.3270   27.9251 O   0  0  0  0  0  0  0  0  0  0  0  0
   19.9124   20.0238   26.3810 C   0  0  0  0  0  0  0  0  0  0  0  0
   20.6253   20.8533   26.4609 H   0  0  0  0  0  0  0  0  0  0  0  0
   18.9205   20.4239   26.6232 H   0  0  0  0  0  0  0  0  0  0  0  0
   19.9213   19.4485   24.9432 C   0  0  0  0  0  0  0  0  0  0  0  0
   20.9170   19.0369   24.7318 H   0  0  0  0  0  0  0  0  0  0  0  0
   19.2098   18.6134   24.8822 H   0  0  0  0  0  0  0  0  0  0  0  0
   19.5556   20.5231   23.8931 C   0  0  0  0  0  0  0  0  0  0  0  0
   20.2964   21.3340   23.9190 H   0  0  0  0  0  0  0  0  0  0  0  0
   18.5912   20.9743   24.1640 H   0  0  0  0  0  0  0  0  0  0  0  0
   19.4488   19.9648   22.4541 C   0  0  0  0  0  0  0  0  0  0  0  0
   18.6954   19.1665   22.4319 H   0  0  0  0  0  0  0  0  0  0  0  0
   19.0776   20.7629   21.7971 H   0  0  0  0  0  0  0  0  0  0  0  0
   20.7947   19.4392   21.8975 C   0  0  0  0  0  0  0  0  0  0  0  0
   21.1196   18.5585   22.4668 H   0  0  0  0  0  0  0  0  0  0  0  0
   21.5665   20.2075   22.0417 H   0  0  0  0  0  0  0  0  0  0  0  0
   20.7352   19.0770   20.3953 C   0  0  0  0  0  0  0  0  0  0  0  0
   20.4284   19.9568   19.8130 H   0  0  0  0  0  0  0  0  0  0  0  0
   21.7469   18.8170   20.0546 H   0  0  0  0  0  0  0  0  0  0  0  0
   19.7881   17.8962   20.0900 C   0  0  0  0  0  0  0  0  0  0  0  0
   18.7447   18.1523   20.3126 H   0  0  0  0  0  0  0  0  0  0  0  0
   19.8443   17.6233   19.0283 H   0  0  0  0  0  0  0  0  0  0  0  0
   20.0596   17.0120   20.6813 H   0  0  0  0  0  0  0  0  0  0  0  0
  1  2  1  0  0  0  0
  1  3  2  0  0  0  0
  1  4  1  0  0  0  0
  4  5  1  0  0  0  0
  4  6  1  0  0  0  0
  4  7  1  0  0  0  0
  7  8  1  0  0  0  0
  7  9  1  0  0  0  0
  7 10  1  0  0  0  0
 10 11  1  0  0  0  0
 10 12  1  0  0  0  0
 10 13  1  0  0  0  0
 13 14  1  0  0  0  0
 13 15  1  0  0  0  0
 13 16  1  0  0  0  0
 16 17  1  0  0  0  0
 16 18  1  0  0  0  0
 16 19  1  0  0  0  0
 19 20  1  0  0  0  0
 19 21  1  0  0  0  0
 19 22  1  0  0  0  0
 22 23  1  0  0  0  0
 22 24  1  0  0  0  0
 22 25  1  0  0  0  0
M  END
> <VM2 Rank>
22

> <Conf_Id>
181

> <Probability>
1.05

> <Sum Probability>
80.25

> <Delta G>
1.841

> <G>
-6.122

> <E>
-30.763

> <-TS>
24.641

> <U+W>
-51.331

> <U>
7.838

> <W>
-59.169

> <W(PB)>
-61.673

> <W(SA)>
2.505

> <Valence>
8.536

> <Coulomb>
-1.810

> <VdW>
1.112

> <VdW6>
-8.988

> <VdW12>
10.100

> <Bond>
0.183

> <Angle>
2.701

> <Pdih>
5.652

> <Idih>
0.001

> <Tether>
0.000

$$$$
VeraChem MOL file


 25 24  0  0  0  0  0  0  0  0999 V2000     
   20.0873   19.2510   27.5834 C   0  0  0  0  0  0  0  0  0  0  0  0
   21.0906   19.2673   28.2690 O   0  5  0  0  0  0  0  0  0  0  0  0
   18.9926   19.5939   27.9843 O   0  0  0  0  0  0  0  0  0  0  0  0
   20.2137   18.7976   26.1334 C   0  0  0  0  0  0  0  0  0  0  0  0
   19.2777   18.2990   25.8585 H   0  0  0  0  0  0  0  0  0  0  0  0
   21.0110   18.0466   26.0805 H   0  0  0  0  0  0  0  0  0  0  0  0
   20.5169   19.9694   25.1636 C   0  0  0  0  0  0  0  0  0  0  0  0
   19.6887   20.6910   25.1885 H   0  0  0  0  0  0  0  0  0  0  0  0
   21.4050   20.5048   25.5271 H   0  0  0  0  0  0  0  0  0  0  0  0
   20.7745   19.5185   23.7058 C   0  0  0  0  0  0  0  0  0  0  0  0
   21.5969   18.7905   23.6858 H   0  0  0  0  0  0  0  0  0  0  0  0
   21.1179   20.3919   23.1371 H   0  0  0  0  0  0  0  0  0  0  0  0
   19.5248   18.9147   23.0187 C   0  0  0  0  0  0  0  0  0  0  0  0
   19.1807   18.0423   23.5885 H   0  0  0  0  0  0  0  0  0  0  0  0
   18.7027   19.6430   23.0375 H   0  0  0  0  0  0  0  0  0  0  0  0
   19.7812   18.4606   21.5617 C   0  0  0  0  0  0  0  0  0  0  0  0
   18.8948   17.9170   21.2071 H   0  0  0  0  0  0  0  0  0  0  0  0
   20.6134   17.7438   21.5404 H   0  0  0  0  0  0  0  0  0  0  0  0
   20.0722   19.6275   20.5907 C   0  0  0  0  0  0  0  0  0  0  0  0
   19.2667   20.3721   20.6541 H   0  0  0  0  0  0  0  0  0  0  0  0
   21.0022   20.1359   20.8764 H   0  0  0  0  0  0  0  0  0  0  0  0
   20.1991   19.1335   19.1354 C   0  0  0  0  0  0  0  0  0  0  0  0
   19.2705   18.6529   18.8007 H   0  0  0  0  0  0  0  0  0  0  0  0
   20.4089   19.9724   18.4591 H   0  0  0  0  0  0  0  0  0  0  0  0
   21.0161   18.4067   19.0376 H   0  0  0  0  0  0  0  0  0  0  0  0
  1  2  1  0  0  0  0
  1  3  2  0  0  0  0
  1  4  1  0  0  0  0
  4  5  1  0  0  0  0
  4  6  1  0  0  0  0
  4  7  1  0  0  0  0
  7  8  1  0  0  0  0
  7  9  1  0  0  0  0
  7 10  1  0  0  0  0
 10 11  1  0  0  0  0
 10 12  1  0  0  0  0
 10 13  1  0  0  0  0
 13 14  1  0  0  0  0
 13 15  1  0  0  0  0
 13 16  1  0  0  0  0
 16 17  1  0  0  0  0
 16 18  1  0  0  0  0
 16 19  1  0  0  0  0
 19 20  1  0  0  0  0
 19 21  1  0  0  0  0
 19 22  1  0  0  0  0
 22 23  1  0  0  0  0
 22 24  1  0  0  0  0
 22 25  1  0  0  0  0
M  END
> <VM2 Rank>
23

> <Conf_Id>
93

> <Probability>
1.04

> <Sum Probability>
81.29

> <Delta G>
1.846

> <G>
-6.116

> <E>
-30.665

> <-TS>
24.549

> <U+W>
-51.232

> <U>
7.506

> <W>
-58.739

> <W(PB)>
-61.275

> <W(SA)>
2.536

> <Valence>
8.668

> <Coulomb>
-2.355

> <VdW>
1.194

> <VdW6>
-8.929

> <VdW12>
10.122

> <Bond>
0.201

> <Angle>
2.816

> <Pdih>
5.651

> <Idih>
0.001

> <Tether>
0.000

$$$$
VeraChem MOL file


 25 24  0  0  0  0  0  0  0  0999 V2000     
   20.1455   19.4751   27.5761 C   0  0  0  0  0  0  0  0  0  0  0  0
   21.0244   19.0142   28.2774 O   0  5  0  0  0  0  0  0  0  0  0  0
   19.0289   19.7342   27.9794 O   0  0  0  0  0  0  0  0  0  0  0  0
   20.4539   19.7192   26.1031 C   0  0  0  0  0  0  0  0  0  0  0  0
   21.5151   19.9815   26.0170 H   0  0  0  0  0  0  0  0  0  0  0  0
   19.8753   20.5927   25.7830 H   0  0  0  0  0  0  0  0  0  0  0  0
   20.1320   18.4911   25.2122 C   0  0  0  0  0  0  0  0  0  0  0  0
   20.6521   17.6143   25.6222 H   0  0  0  0  0  0  0  0  0  0  0  0
   19.0576   18.2678   25.2680 H   0  0  0  0  0  0  0  0  0  0  0  0
   20.5535   18.6686   23.7338 C   0  0  0  0  0  0  0  0  0  0  0  0
   20.4182   17.7056   23.2253 H   0  0  0  0  0  0  0  0  0  0  0  0
   21.6260   18.9003   23.6823 H   0  0  0  0  0  0  0  0  0  0  0  0
   19.7461   19.7617   22.9910 C   0  0  0  0  0  0  0  0  0  0  0  0
   18.6736   19.5296   23.0415 H   0  0  0  0  0  0  0  0  0  0  0  0
   19.8806   20.7242   23.5003 H   0  0  0  0  0  0  0  0  0  0  0  0
   20.1678   19.9423   21.5129 C   0  0  0  0  0  0  0  0  0  0  0  0
   21.2435   20.1588   21.4608 H   0  0  0  0  0  0  0  0  0  0  0  0
   19.6538   20.8264   21.1115 H   0  0  0  0  0  0  0  0  0  0  0  0
   19.8364   18.7246   20.6205 C   0  0  0  0  0  0  0  0  0  0  0  0
   20.4045   17.8456   20.9516 H   0  0  0  0  0  0  0  0  0  0  0  0
   18.7712   18.4733   20.7169 H   0  0  0  0  0  0  0  0  0  0  0  0
   20.1645   19.0032   19.1397 C   0  0  0  0  0  0  0  0  0  0  0  0
   21.2306   19.2312   19.0102 H   0  0  0  0  0  0  0  0  0  0  0  0
   19.9272   18.1289   18.5198 H   0  0  0  0  0  0  0  0  0  0  0  0
   19.5833   19.8543   18.7613 H   0  0  0  0  0  0  0  0  0  0  0  0
  1  2  1  0  0  0  0
  1  3  2  0  0  0  0
  1  4  1  0  0  0  0
  4  5  1  0  0  0  0
  4  6  1  0  0  0  0
  4  7  1  0  0  0  0
  7  8  1  0  0  0  0
  7  9  1  0  0  0  0
  7 10  1  0  0  0  0
 10 11  1  0  0  0  0
 10 12  1  0  0  0  0
 10 13  1  0  0  0  0
 13 14  1  0  0  0  0
 13 15  1  0  0  0  0
 13 16  1  0  0  0  0
 16 17  1  0  0  0  0
 16 18  1  0  0  0  0
 16 19  1  0  0  0  0
 19 20  1  0  0  0  0
 19 21  1  0  0  0  0
 19 22  1  0  0  0  0
 22 23  1  0  0  0  0
 22 24  1  0  0  0  0
 22 25  1  0  0  0  0
M  END
> <VM2 Rank>
24

> <Conf_Id>
1038

> <Probability>
1.03

> <Sum Probability>
82.32

> <Delta G>
1.850

> <G>
-6.113

> <E>
-30.661

> <-TS>
24.548

> <U+W>
-51.228

> <U>
7.507

> <W>
-58.735

> <W(PB)>
-61.250

> <W(SA)>
2.515

> <Valence>
8.668

> <Coulomb>
-2.355

> <VdW>
1.194

> <VdW6>
-8.929

> <VdW12>
10.123

> <Bond>
0.201

> <Angle>
2.816

> <Pdih>
5.651

> <Idih>
0.001

> <Tether>
0.000

$$$$
VeraChem MOL file


 25 24  0  0  0  0  0  0  0  0999 V2000     
   20.2541   19.1211   27.5376 C   0  0  0  0  0  0  0  0  0  0  0  0
   21.3445   18.6684   27.8254 O   0  5  0  0  0  0  0  0  0  0  0  0
   19.2276   18.8238   28.1159 O   0  0  0  0  0  0  0  0  0  0  0  0
   20.1660   20.1004   26.3724 C   0  0  0  0  0  0  0  0  0  0  0  0
   21.0979   20.6776   26.3413 H   0  0  0  0  0  0  0  0  0  0  0  0
   19.3538   20.8066   26.5821 H   0  0  0  0  0  0  0  0  0  0  0  0
   19.9273   19.3977   25.0132 C   0  0  0  0  0  0  0  0  0  0  0  0
   20.7413   18.6825   24.8370 H   0  0  0  0  0  0  0  0  0  0  0  0
   18.9958   18.8172   25.0639 H   0  0  0  0  0  0  0  0  0  0  0  0
   19.8467   20.4131   23.8495 C   0  0  0  0  0  0  0  0  0  0  0  0
   20.7987   20.9545   23.7622 H   0  0  0  0  0  0  0  0  0  0  0  0
   19.0823   21.1656   24.0868 H   0  0  0  0  0  0  0  0  0  0  0  0
   19.4909   19.7686   22.4884 C   0  0  0  0  0  0  0  0  0  0  0  0
   18.5463   19.2154   22.5790 H   0  0  0  0  0  0  0  0  0  0  0  0
   19.3104   20.5764   21.7680 H   0  0  0  0  0  0  0  0  0  0  0  0
   20.5957   18.8308   21.9418 C   0  0  0  0  0  0  0  0  0  0  0  0
   20.7741   18.0194   22.6586 H   0  0  0  0  0  0  0  0  0  0  0  0
   21.5410   19.3833   21.8542 H   0  0  0  0  0  0  0  0  0  0  0  0
   20.2410   18.1934   20.5778 C   0  0  0  0  0  0  0  0  0  0  0  0
   21.0062   17.4447   20.3305 H   0  0  0  0  0  0  0  0  0  0  0  0
   19.2898   17.6493   20.6585 H   0  0  0  0  0  0  0  0  0  0  0  0
   20.1592   19.2166   19.4240 C   0  0  0  0  0  0  0  0  0  0  0  0
   19.3261   19.9162   19.5655 H   0  0  0  0  0  0  0  0  0  0  0  0
   21.0878   19.7970   19.3469 H   0  0  0  0  0  0  0  0  0  0  0  0
   20.0016   18.7031   18.4667 H   0  0  0  0  0  0  0  0  0  0  0  0
  1  2  1  0  0  0  0
  1  3  2  0  0  0  0
  1  4  1  0  0  0  0
  4  5  1  0  0  0  0
  4  6  1  0  0  0  0
  4  7  1  0  0  0  0
  7  8  1  0  0  0  0
  7  9  1  0  0  0  0
  7 10  1  0  0  0  0
 10 11  1  0  0  0  0
 10 12  1  0  0  0  0
 10 13  1  0  0  0  0
 13 14  1  0  0  0  0
 13 15  1  0  0  0  0
 13 16  1  0  0  0  0
 16 17  1  0  0  0  0
 16 18  1  0  0  0  0
 16 19  1  0  0  0  0
 19 20  1  0  0  0  0
 19 21  1  0  0  0  0
 19 22  1  0  0  0  0
 22 23  1  0  0  0  0
 22 24  1  0  0  0  0
 22 25  1  0  0  0  0
M  END
> <VM2 Rank>
25

> <Conf_Id>
1351

> <Probability>
1.03

> <Sum Probability>
83.35

> <Delta G>
1.852

> <G>
-6.111

> <E>
-30.670

> <-TS>
24.559

> <U+W>
-51.237

> <U>
7.805

> <W>
-59.042

> <W(PB)>
-61.532

> <W(SA)>
2.490

> <Valence>
8.643

> <Coulomb>
-2.028

> <VdW>
1.190

> <VdW6>
-8.891

> <VdW12>
10.081

> <Bond>
0.190

> <Angle>
2.795

> <Pdih>
5.656

> <Idih>
0.001

> <Tether>
0.000

$$$$
VeraChem MOL file


 25 24  0  0  0  0  0  0  0  0999 V2000     
   19.7040   19.2289   27.2211 C   0  0  0  0  0  0  0  0  0  0  0  0
   20.4107   18.6346   28.0110 O   0  5  0  0  0  0  0  0  0  0  0  0
   18.4896   19.1936   27.2451 O   0  0  0  0  0  0  0  0  0  0  0  0
   20.3789   20.0491   26.1274 C   0  0  0  0  0  0  0  0  0  0  0  0
   21.3129   20.4552   26.5338 H   0  0  0  0  0  0  0  0  0  0  0  0
   19.7302   20.9010   25.8909 H   0  0  0  0  0  0  0  0  0  0  0  0
   20.6652   19.2250   24.8480 C   0  0  0  0  0  0  0  0  0  0  0  0
   21.3082   18.3710   25.1019 H   0  0  0  0  0  0  0  0  0  0  0  0
   19.7190   18.8136   24.4720 H   0  0  0  0  0  0  0  0  0  0  0  0
   21.3429   20.0813   23.7535 C   0  0  0  0  0  0  0  0  0  0  0  0
   22.2458   20.5464   24.1722 H   0  0  0  0  0  0  0  0  0  0  0  0
   20.6809   20.9087   23.4664 H   0  0  0  0  0  0  0  0  0  0  0  0
   21.7512   19.2698   22.4983 C   0  0  0  0  0  0  0  0  0  0  0  0
   22.2574   19.9429   21.7931 H   0  0  0  0  0  0  0  0  0  0  0  0
   22.4985   18.5189   22.7889 H   0  0  0  0  0  0  0  0  0  0  0  0
   20.5899   18.5552   21.7617 C   0  0  0  0  0  0  0  0  0  0  0  0
   20.1409   17.7961   22.4155 H   0  0  0  0  0  0  0  0  0  0  0  0
   21.0088   18.0086   20.9059 H   0  0  0  0  0  0  0  0  0  0  0  0
   19.4950   19.5197   21.2529 C   0  0  0  0  0  0  0  0  0  0  0  0
   19.0082   20.0178   22.1019 H   0  0  0  0  0  0  0  0  0  0  0  0
   19.9513   20.3067   20.6370 H   0  0  0  0  0  0  0  0  0  0  0  0
   18.4255   18.7768   20.4270 C   0  0  0  0  0  0  0  0  0  0  0  0
   17.6538   19.4745   20.0767 H   0  0  0  0  0  0  0  0  0  0  0  0
   18.8721   18.2958   19.5469 H   0  0  0  0  0  0  0  0  0  0  0  0
   17.9336   18.0016   21.0291 H   0  0  0  0  0  0  0  0  0  0  0  0
  1  2  1  0  0  0  0
  1  3  2  0  0  0  0
  1  4  1  0  0  0  0
  4  5  1  0  0  0  0
  4  6  1  0  0  0  0
  4  7  1  0  0  0  0
  7  8  1  0  0  0  0
  7  9  1  0  0  0  0
  7 10  1  0  0  0  0
 10 11  1  0  0  0  0
 10 12  1  0  0  0  0
 10 13  1  0  0  0  0
 13 14  1  0  0  0  0
 13 15  1  0  0  0  0
 13 16  1  0  0  0  0
 16 17  1  0  0  0  0
 16 18  1  0  0  0  0
 16 19  1  0  0  0  0
 19 20  1  0  0  0  0
 19 21  1  0  0  0  0
 19 22  1  0  0  0  0
 22 23  1  0  0  0  0
 22 24  1  0  0  0  0
 22 25  1  0  0  0  0
M  END
> <VM2 Rank>
26

> <Conf_Id>
565

> <Probability>
1.00

> <Sum Probability>
84.34

> <Delta G>
1.871

> <G>
-6.092

> <E>
-30.923

> <-TS>
24.831

> <U+W>
-51.490

> <U>
8.128

> <W>
-59.618

> <W(PB)>
-62.090

> <W(SA)>
2.472

> <Valence>
8.508

> <Coulomb>
-1.299

> <VdW>
0.919

> <VdW6>
-9.370

> <VdW12>
10.289

> <Bond>
0.192

> <Angle>
2.932

> <Pdih>
5.383

> <Idih>
0.000

> <Tether>
0.000

$$$$
VeraChem MOL file


 25 24  0  0  0  0  0  0  0  0999 V2000     
   19.7736   19.5910   27.2108 C   0  0  0  0  0  0  0  0  0  0  0  0
   20.6583   19.9233   27.9748 O   0  5  0  0  0  0  0  0  0  0  0  0
   18.6589   20.0747   27.2203 O   0  0  0  0  0  0  0  0  0  0  0  0
   20.0852   18.5208   26.1707 C   0  0  0  0  0  0  0  0  0  0  0  0
   19.1647   17.9581   25.9743 H   0  0  0  0  0  0  0  0  0  0  0  0
   20.8067   17.8205   26.6085 H   0  0  0  0  0  0  0  0  0  0  0  0
   20.6429   19.1091   24.8513 C   0  0  0  0  0  0  0  0  0  0  0  0
   19.9124   19.8204   24.4434 H   0  0  0  0  0  0  0  0  0  0  0  0
   21.5591   19.6768   25.0649 H   0  0  0  0  0  0  0  0  0  0  0  0
   20.9438   18.0042   23.8124 C   0  0  0  0  0  0  0  0  0  0  0  0
   20.0195   17.4665   23.5640 H   0  0  0  0  0  0  0  0  0  0  0  0
   21.6147   17.2616   24.2654 H   0  0  0  0  0  0  0  0  0  0  0  0
   21.6104   18.5371   22.5191 C   0  0  0  0  0  0  0  0  0  0  0  0
   22.5856   18.9726   22.7761 H   0  0  0  0  0  0  0  0  0  0  0  0
   21.8240   17.6869   21.8571 H   0  0  0  0  0  0  0  0  0  0  0  0
   20.7885   19.5893   21.7323 C   0  0  0  0  0  0  0  0  0  0  0  0
   21.3711   19.8945   20.8525 H   0  0  0  0  0  0  0  0  0  0  0  0
   20.6592   20.4952   22.3389 H   0  0  0  0  0  0  0  0  0  0  0  0
   19.4091   19.0724   21.2654 C   0  0  0  0  0  0  0  0  0  0  0  0
   19.5353   18.1400   20.6982 H   0  0  0  0  0  0  0  0  0  0  0  0
   18.7814   18.8371   22.1351 H   0  0  0  0  0  0  0  0  0  0  0  0
   18.6821   20.1121   20.3888 C   0  0  0  0  0  0  0  0  0  0  0  0
   19.2658   20.3446   19.4885 H   0  0  0  0  0  0  0  0  0  0  0  0
   17.7033   19.7316   20.0691 H   0  0  0  0  0  0  0  0  0  0  0  0
   18.5185   21.0459   20.9424 H   0  0  0  0  0  0  0  0  0  0  0  0
  1  2  1  0  0  0  0
  1  3  2  0  0  0  0
  1  4  1  0  0  0  0
  4  5  1  0  0  0  0
  4  6  1  0  0  0  0
  4  7  1  0  0  0  0
  7  8  1  0  0  0  0
  7  9  1  0  0  0  0
  7 10  1  0  0  0  0
 10 11  1  0  0  0  0
 10 12  1  0  0  0  0
 10 13  1  0  0  0  0
 13 14  1  0  0  0  0
 13 15  1  0  0  0  0
 13 16  1  0  0  0  0
 16 17  1  0  0  0  0
 16 18  1  0  0  0  0
 16 19  1  0  0  0  0
 19 20  1  0  0  0  0
 19 21  1  0  0  0  0
 19 22  1  0  0  0  0
 22 23  1  0  0  0  0
 22 24  1  0  0  0  0
 22 25  1  0  0  0  0
M  END
> <VM2 Rank>
27

> <Conf_Id>
399

> <Probability>
0.93

> <Sum Probability>
85.28

> <Delta G>
1.909

> <G>
-6.053

> <E>
-30.883

> <-TS>
24.830

> <U+W>
-51.451

> <U>
8.128

> <W>
-59.579

> <W(PB)>
-62.033

> <W(SA)>
2.454

> <Valence>
8.508

> <Coulomb>
-1.300

> <VdW>
0.920

> <VdW6>
-9.369

> <VdW12>
10.289

> <Bond>
0.192

> <Angle>
2.932

> <Pdih>
5.383

> <Idih>
0.001

> <Tether>
0.000

$$$$
VeraChem MOL file


 25 24  0  0  0  0  0  0  0  0999 V2000     
   20.2587   19.5162   27.5293 C   0  0  0  0  0  0  0  0  0  0  0  0
   21.3593   19.9551   27.7987 O   0  5  0  0  0  0  0  0  0  0  0  0
   19.2396   19.8607   28.0945 O   0  0  0  0  0  0  0  0  0  0  0  0
   20.1475   18.4918   26.4058 C   0  0  0  0  0  0  0  0  0  0  0  0
   19.3192   17.8138   26.6442 H   0  0  0  0  0  0  0  0  0  0  0  0
   21.0658   17.8925   26.3990 H   0  0  0  0  0  0  0  0  0  0  0  0
   19.9243   19.1428   25.0184 C   0  0  0  0  0  0  0  0  0  0  0  0
   19.0064   19.7462   25.0446 H   0  0  0  0  0  0  0  0  0  0  0  0
   20.7545   19.8311   24.8131 H   0  0  0  0  0  0  0  0  0  0  0  0
   19.8198   18.0821   23.8978 C   0  0  0  0  0  0  0  0  0  0  0  0
   19.0383   17.3579   24.1657 H   0  0  0  0  0  0  0  0  0  0  0  0
   20.7590   17.5157   23.8336 H   0  0  0  0  0  0  0  0  0  0  0  0
   19.4783   18.6777   22.5110 C   0  0  0  0  0  0  0  0  0  0  0  0
   19.2790   17.8451   21.8246 H   0  0  0  0  0  0  0  0  0  0  0  0
   18.5467   19.2558   22.5781 H   0  0  0  0  0  0  0  0  0  0  0  0
   20.6041   19.5664   21.9266 C   0  0  0  0  0  0  0  0  0  0  0  0
   21.5364   18.9891   21.8625 H   0  0  0  0  0  0  0  0  0  0  0  0
   20.8014   20.4025   22.6092 H   0  0  0  0  0  0  0  0  0  0  0  0
   20.2636   20.1546   20.5371 C   0  0  0  0  0  0  0  0  0  0  0  0
   19.3252   20.7233   20.5946 H   0  0  0  0  0  0  0  0  0  0  0  0
   21.0456   20.8747   20.2594 H   0  0  0  0  0  0  0  0  0  0  0  0
   20.1579   19.0866   19.4267 C   0  0  0  0  0  0  0  0  0  0  0  0
   21.0729   18.4824   19.3742 H   0  0  0  0  0  0  0  0  0  0  0  0
   19.3090   18.4128   19.5966 H   0  0  0  0  0  0  0  0  0  0  0  0
   20.0116   19.5634   18.4489 H   0  0  0  0  0  0  0  0  0  0  0  0
  1  2  1  0  0  0  0
  1  3  2  0  0  0  0
  1  4  1  0  0  0  0
  4  5  1  0  0  0  0
  4  6  1  0  0  0  0
  4  7  1  0  0  0  0
  7  8  1  0  0  0  0
  7  9  1  0  0  0  0
  7 10  1  0  0  0  0
 10 11  1  0  0  0  0
 10 12  1  0  0  0  0
 10 13  1  0  0  0  0
 13 14  1  0  0  0  0
 13 15  1  0  0  0  0
 13 16  1  0  0  0  0
 16 17  1  0  0  0  0
 16 18  1  0  0  0  0
 16 19  1  0  0  0  0
 19 20  1  0  0  0  0
 19 21  1  0  0  0  0
 19 22  1  0  0  0  0
 22 23  1  0  0  0  0
 22 24  1  0  0  0  0
 22 25  1  0  0  0  0
M  END
> <VM2 Rank>
28

> <Conf_Id>
1069

> <Probability>
0.93

> <Sum Probability>
86.20

> <Delta G>
1.913

> <G>
-6.049

> <E>
-30.608

> <-TS>
24.559

> <U+W>
-51.176

> <U>
7.805

> <W>
-58.981

> <W(PB)>
-61.463

> <W(SA)>
2.483

> <Valence>
8.642

> <Coulomb>
-2.028

> <VdW>
1.191

> <VdW6>
-8.891

> <VdW12>
10.082

> <Bond>
0.190

> <Angle>
2.795

> <Pdih>
5.656

> <Idih>
0.001

> <Tether>
0.000

$$$$
VeraChem MOL file


 25 24  0  0  0  0  0  0  0  0999 V2000     
   20.4111   19.2567   27.5224 C   0  0  0  0  0  0  0  0  0  0  0  0
   21.5114   19.6718   27.8288 O   0  5  0  0  0  0  0  0  0  0  0  0
   19.4336   19.3481   28.2384 O   0  0  0  0  0  0  0  0  0  0  0  0
   20.2432   18.6042   26.1549 C   0  0  0  0  0  0  0  0  0  0  0  0
   19.4705   17.8306   26.2390 H   0  0  0  0  0  0  0  0  0  0  0  0
   21.1825   18.0983   25.9012 H   0  0  0  0  0  0  0  0  0  0  0  0
   19.8661   19.6182   25.0469 C   0  0  0  0  0  0  0  0  0  0  0  0
   18.9310   20.1255   25.3224 H   0  0  0  0  0  0  0  0  0  0  0  0
   20.6429   20.3928   24.9840 H   0  0  0  0  0  0  0  0  0  0  0  0
   19.7025   18.9335   23.6726 C   0  0  0  0  0  0  0  0  0  0  0  0
   18.9236   18.1614   23.7366 H   0  0  0  0  0  0  0  0  0  0  0  0
   20.6395   18.4247   23.4109 H   0  0  0  0  0  0  0  0  0  0  0  0
   19.3323   19.9504   22.5685 C   0  0  0  0  0  0  0  0  0  0  0  0
   18.4364   20.5045   22.8799 H   0  0  0  0  0  0  0  0  0  0  0  0
   20.1314   20.6965   22.4681 H   0  0  0  0  0  0  0  0  0  0  0  0
   19.0455   19.2943   21.1942 C   0  0  0  0  0  0  0  0  0  0  0  0
   18.7415   20.0779   20.4870 H   0  0  0  0  0  0  0  0  0  0  0  0
   18.1807   18.6243   21.2938 H   0  0  0  0  0  0  0  0  0  0  0  0
   20.2242   18.4983   20.5812 C   0  0  0  0  0  0  0  0  0  0  0  0
   20.4779   17.6431   21.2215 H   0  0  0  0  0  0  0  0  0  0  0  0
   19.8971   18.0723   19.6227 H   0  0  0  0  0  0  0  0  0  0  0  0
   21.4831   19.3586   20.3381 C   0  0  0  0  0  0  0  0  0  0  0  0
   21.9134   19.7113   21.2839 H   0  0  0  0  0  0  0  0  0  0  0  0
   22.2540   18.7739   19.8198 H   0  0  0  0  0  0  0  0  0  0  0  0
   21.2476   20.2335   19.7184 H   0  0  0  0  0  0  0  0  0  0  0  0
  1  2  1  0  0  0  0
  1  3  2  0  0  0  0
  1  4  1  0  0  0  0
  4  5  1  0  0  0  0
  4  6  1  0  0  0  0
  4  7  1  0  0  0  0
  7  8  1  0  0  0  0
  7  9  1  0  0  0  0
  7 10  1  0  0  0  0
 10 11  1  0  0  0  0
 10 12  1  0  0  0  0
 10 13  1  0  0  0  0
 13 14  1  0  0  0  0
 13 15  1  0  0  0  0
 13 16  1  0  0  0  0
 16 17  1  0  0  0  0
 16 18  1  0  0  0  0
 16 19  1  0  0  0  0
 19 20  1  0  0  0  0
 19 21  1  0  0  0  0
 19 22  1  0  0  0  0
 22 23  1  0  0  0  0
 22 24  1  0  0  0  0
 22 25  1  0  0  0  0
M  END
> <VM2 Rank>
29

> <Conf_Id>
957

> <Probability>
0.88

> <Sum Probability>
87.09

> <Delta G>
1.944

> <G>
-6.019

> <E>
-30.820

> <-TS>
24.801

> <U+W>
-51.388

> <U>
7.567

> <W>
-58.954

> <W(PB)>
-61.394

> <W(SA)>
2.440

> <Valence>
8.483

> <Coulomb>
-1.912

> <VdW>
0.996

> <VdW6>
-9.207

> <VdW12>
10.203

> <Bond>
0.188

> <Angle>
2.901

> <Pdih>
5.393

> <Idih>
0.001

> <Tether>
0.000

$$$$
VeraChem MOL file


 25 24  0  0  0  0  0  0  0  0999 V2000     
   19.9152   19.2251   27.5281 C   0  0  0  0  0  0  0  0  0  0  0  0
   20.8895   19.4413   28.2214 O   0  5  0  0  0  0  0  0  0  0  0  0
   18.7785   19.4973   27.8605 O   0  0  0  0  0  0  0  0  0  0  0  0
   20.1332   18.5972   26.1561 C   0  0  0  0  0  0  0  0  0  0  0  0
   19.2602   17.9758   25.9234 H   0  0  0  0  0  0  0  0  0  0  0  0
   20.9995   17.9281   26.2214 H   0  0  0  0  0  0  0  0  0  0  0  0
   20.3531   19.6492   25.0412 C   0  0  0  0  0  0  0  0  0  0  0  0
   19.4830   20.3189   24.9973 H   0  0  0  0  0  0  0  0  0  0  0  0
   21.2223   20.2714   25.2959 H   0  0  0  0  0  0  0  0  0  0  0  0
   20.5706   18.9887   23.6625 C   0  0  0  0  0  0  0  0  0  0  0  0
   19.6999   18.3648   23.4218 H   0  0  0  0  0  0  0  0  0  0  0  0
   21.4424   18.3218   23.7076 H   0  0  0  0  0  0  0  0  0  0  0  0
   20.7832   20.0427   22.5517 C   0  0  0  0  0  0  0  0  0  0  0  0
   19.8939   20.6814   22.4709 H   0  0  0  0  0  0  0  0  0  0  0  0
   21.6086   20.7064   22.8432 H   0  0  0  0  0  0  0  0  0  0  0  0
   21.1190   19.4263   21.1702 C   0  0  0  0  0  0  0  0  0  0  0  0
   22.0639   18.8715   21.2488 H   0  0  0  0  0  0  0  0  0  0  0  0
   21.3048   20.2410   20.4573 H   0  0  0  0  0  0  0  0  0  0  0  0
   20.0369   18.4863   20.5834 C   0  0  0  0  0  0  0  0  0  0  0  0
   20.3931   18.1039   19.6170 H   0  0  0  0  0  0  0  0  0  0  0  0
   19.9085   17.6069   21.2281 H   0  0  0  0  0  0  0  0  0  0  0  0
   18.6738   19.1798   20.3707 C   0  0  0  0  0  0  0  0  0  0  0  0
   18.2243   19.4765   21.3268 H   0  0  0  0  0  0  0  0  0  0  0  0
   18.7822   20.0766   19.7471 H   0  0  0  0  0  0  0  0  0  0  0  0
   17.9715   18.5014   19.8695 H   0  0  0  0  0  0  0  0  0  0  0  0
  1  2  1  0  0  0  0
  1  3  2  0  0  0  0
  1  4  1  0  0  0  0
  4  5  1  0  0  0  0
  4  6  1  0  0  0  0
  4  7  1  0  0  0  0
  7  8  1  0  0  0  0
  7  9  1  0  0  0  0
  7 10  1  0  0  0  0
 10 11  1  0  0  0  0
 10 12  1  0  0  0  0
 10 13  1  0  0  0  0
 13 14  1  0  0  0  0
 13 15  1  0  0  0  0
 13 16  1  0  0  0  0
 16 17  1  0  0  0  0
 16 18  1  0  0  0  0
 16 19  1  0  0  0  0
 19 20  1  0  0  0  0
 19 21  1  0  0  0  0
 19 22  1  0  0  0  0
 22 23  1  0  0  0  0
 22 24  1  0  0  0  0
 22 25  1  0  0  0  0
M  END
> <VM2 Rank>
30

> <Conf_Id>
490

> <Probability>
0.85

> <Sum Probability>
87.94

> <Delta G>
1.964

> <G>
-5.999

> <E>
-30.800

> <-TS>
24.802

> <U+W>
-51.368

> <U>
7.567

> <W>
-58.935

> <W(PB)>
-61.397

> <W(SA)>
2.463

> <Valence>
8.483

> <Coulomb>
-1.912

> <VdW>
0.996

> <VdW6>
-9.207

> <VdW12>
10.203

> <Bond>
0.188

> <Angle>
2.901

> <Pdih>
5.392

> <Idih>
0.001

> <Tether>
0.000

$$$$
VeraChem MOL file


 25 24  0  0  0  0  0  0  0  0999 V2000     
   19.9088   19.5965   27.1472 C   0  0  0  0  0  0  0  0  0  0  0  0
   20.8841   20.1970   27.5539 O   0  5  0  0  0  0  0  0  0  0  0  0
   18.7783   20.0403   27.1926 O   0  0  0  0  0  0  0  0  0  0  0  0
   20.1100   18.2001   26.5655 C   0  0  0  0  0  0  0  0  0  0  0  0
   19.3337   17.5526   26.9898 H   0  0  0  0  0  0  0  0  0  0  0  0
   21.0739   17.8108   26.9151 H   0  0  0  0  0  0  0  0  0  0  0  0
   20.0395   18.1474   25.0172 C   0  0  0  0  0  0  0  0  0  0  0  0
   20.0627   17.0979   24.6944 H   0  0  0  0  0  0  0  0  0  0  0  0
   19.0752   18.5592   24.6912 H   0  0  0  0  0  0  0  0  0  0  0  0
   21.2035   18.9145   24.3453 C   0  0  0  0  0  0  0  0  0  0  0  0
   22.1554   18.5468   24.7523 H   0  0  0  0  0  0  0  0  0  0  0  0
   21.1474   19.9806   24.6056 H   0  0  0  0  0  0  0  0  0  0  0  0
   21.2354   18.7610   22.8061 C   0  0  0  0  0  0  0  0  0  0  0  0
   22.1540   19.2307   22.4289 H   0  0  0  0  0  0  0  0  0  0  0  0
   21.3004   17.6963   22.5436 H   0  0  0  0  0  0  0  0  0  0  0  0
   20.0178   19.3994   22.0982 C   0  0  0  0  0  0  0  0  0  0  0  0
   19.9235   20.4497   22.4059 H   0  0  0  0  0  0  0  0  0  0  0  0
   19.0955   18.8906   22.4071 H   0  0  0  0  0  0  0  0  0  0  0  0
   20.1461   19.3221   20.5622 C   0  0  0  0  0  0  0  0  0  0  0  0
   21.0624   19.8360   20.2402 H   0  0  0  0  0  0  0  0  0  0  0  0
   20.2424   18.2726   20.2513 H   0  0  0  0  0  0  0  0  0  0  0  0
   18.9295   19.9557   19.8578 C   0  0  0  0  0  0  0  0  0  0  0  0
   18.8274   21.0151   20.1274 H   0  0  0  0  0  0  0  0  0  0  0  0
   19.0375   19.8924   18.7672 H   0  0  0  0  0  0  0  0  0  0  0  0
   18.0013   19.4399   20.1370 H   0  0  0  0  0  0  0  0  0  0  0  0
  1  2  1  0  0  0  0
  1  3  2  0  0  0  0
  1  4  1  0  0  0  0
  4  5  1  0  0  0  0
  4  6  1  0  0  0  0
  4  7  1  0  0  0  0
  7  8  1  0  0  0  0
  7  9  1  0  0  0  0
  7 10  1  0  0  0  0
 10 11  1  0  0  0  0
 10 12  1  0  0  0  0
 10 13  1  0  0  0  0
 13 14  1  0  0  0  0
 13 15  1  0  0  0  0
 13 16  1  0  0  0  0
 16 17  1  0  0  0  0
 16 18  1  0  0  0  0
 16 19  1  0  0  0  0
 19 20  1  0  0  0  0
 19 21  1  0  0  0  0
 19 22  1  0  0  0  0
 22 23  1  0  0  0  0
 22 24  1  0  0  0  0
 22 25  1  0  0  0  0
M  END
> <VM2 Rank>
31

> <Conf_Id>
1221

> <Probability>
0.53

> <Sum Probability>
88.47

> <Delta G>
2.244

> <G>
-5.719

> <E>
-30.533

> <-TS>
24.815

> <U+W>
-51.101

> <U>
8.902

> <W>
-60.003

> <W(PB)>
-62.478

> <W(SA)>
2.475

> <Valence>
8.305

> <Coulomb>
-0.224

> <VdW>
0.821

> <VdW6>
-9.236

> <VdW12>
10.057

> <Bond>
0.173

> <Angle>
2.663

> <Pdih>
5.469

> <Idih>
0.001

> <Tether>
0.000

$$$$
VeraChem MOL file


 25 24  0  0  0  0  0  0  0  0999 V2000     
   20.2458   18.9859   27.2707 C   0  0  0  0  0  0  0  0  0  0  0  0
   21.3807   18.7109   27.6077 O   0  5  0  0  0  0  0  0  0  0  0  0
   19.3005   18.2360   27.4161 O   0  0  0  0  0  0  0  0  0  0  0  0
   19.9932   20.3556   26.6471 C   0  0  0  0  0  0  0  0  0  0  0  0
   20.5177   21.0972   27.2610 H   0  0  0  0  0  0  0  0  0  0  0  0
   18.9226   20.5820   26.7212 H   0  0  0  0  0  0  0  0  0  0  0  0
   20.4653   20.4746   25.1747 C   0  0  0  0  0  0  0  0  0  0  0  0
   20.3730   21.5211   24.8541 H   0  0  0  0  0  0  0  0  0  0  0  0
   21.5320   20.2177   25.1126 H   0  0  0  0  0  0  0  0  0  0  0  0
   19.6537   19.5748   24.2158 C   0  0  0  0  0  0  0  0  0  0  0  0
   18.5869   19.8260   24.2920 H   0  0  0  0  0  0  0  0  0  0  0  0
   19.7556   18.5236   24.5191 H   0  0  0  0  0  0  0  0  0  0  0  0
   20.1189   19.7330   22.7520 C   0  0  0  0  0  0  0  0  0  0  0  0
   20.0121   20.7821   22.4441 H   0  0  0  0  0  0  0  0  0  0  0  0
   21.1863   19.4856   22.6856 H   0  0  0  0  0  0  0  0  0  0  0  0
   19.3087   18.8289   21.7943 C   0  0  0  0  0  0  0  0  0  0  0  0
   18.2383   19.0391   21.9245 H   0  0  0  0  0  0  0  0  0  0  0  0
   19.4542   17.7751   22.0686 H   0  0  0  0  0  0  0  0  0  0  0  0
   19.6710   19.0304   20.3044 C   0  0  0  0  0  0  0  0  0  0  0  0
   18.9746   18.4433   19.6899 H   0  0  0  0  0  0  0  0  0  0  0  0
   19.5203   20.0822   20.0248 H   0  0  0  0  0  0  0  0  0  0  0  0
   21.1154   18.6040   19.9633 C   0  0  0  0  0  0  0  0  0  0  0  0
   21.2988   17.5635   20.2617 H   0  0  0  0  0  0  0  0  0  0  0  0
   21.2937   18.6822   18.8831 H   0  0  0  0  0  0  0  0  0  0  0  0
   21.8514   19.2421   20.4681 H   0  0  0  0  0  0  0  0  0  0  0  0
  1  2  1  0  0  0  0
  1  3  2  0  0  0  0
  1  4  1  0  0  0  0
  4  5  1  0  0  0  0
  4  6  1  0  0  0  0
  4  7  1  0  0  0  0
  7  8  1  0  0  0  0
  7  9  1  0  0  0  0
  7 10  1  0  0  0  0
 10 11  1  0  0  0  0
 10 12  1  0  0  0  0
 10 13  1  0  0  0  0
 13 14  1  0  0  0  0
 13 15  1  0  0  0  0
 13 16  1  0  0  0  0
 16 17  1  0  0  0  0
 16 18  1  0  0  0  0
 16 19  1  0  0  0  0
 19 20  1  0  0  0  0
 19 21  1  0  0  0  0
 19 22  1  0  0  0  0
 22 23  1  0  0  0  0
 22 24  1  0  0  0  0
 22 25  1  0  0  0  0
M  END
> <VM2 Rank>
32

> <Conf_Id>
1360

> <Probability>
0.53

> <Sum Probability>
89.00

> <Delta G>
2.245

> <G>
-5.717

> <E>
-30.539

> <-TS>
24.822

> <U+W>
-51.107

> <U>
8.783

> <W>
-59.889

> <W(PB)>
-62.357

> <W(SA)>
2.468

> <Valence>
8.287

> <Coulomb>
-0.381

> <VdW>
0.877

> <VdW6>
-9.131

> <VdW12>
10.007

> <Bond>
0.167

> <Angle>
2.661

> <Pdih>
5.459

> <Idih>
0.000

> <Tether>
0.000

$$$$
VeraChem MOL file


 25 24  0  0  0  0  0  0  0  0999 V2000     
   20.1333   19.6086   27.2638 C   0  0  0  0  0  0  0  0  0  0  0  0
   21.0991   20.2701   27.5906 O   0  5  0  0  0  0  0  0  0  0  0  0
   18.9850   19.9833   27.3972 O   0  0  0  0  0  0  0  0  0  0  0  0
   20.3781   18.2241   26.6703 C   0  0  0  0  0  0  0  0  0  0  0  0
   19.4540   17.6393   26.7533 H   0  0  0  0  0  0  0  0  0  0  0  0
   21.1265   17.7261   27.2978 H   0  0  0  0  0  0  0  0  0  0  0  0
   20.8676   18.2466   25.1990 C   0  0  0  0  0  0  0  0  0  0  0  0
   21.7772   18.8591   25.1274 H   0  0  0  0  0  0  0  0  0  0  0  0
   21.1486   17.2274   24.9011 H   0  0  0  0  0  0  0  0  0  0  0  0
   19.7961   18.7850   24.2243 C   0  0  0  0  0  0  0  0  0  0  0  0
   19.5225   19.8115   24.5049 H   0  0  0  0  0  0  0  0  0  0  0  0
   18.8845   18.1778   24.3098 H   0  0  0  0  0  0  0  0  0  0  0  0
   20.2931   18.7688   22.7625 C   0  0  0  0  0  0  0  0  0  0  0  0
   21.2066   19.3729   22.6870 H   0  0  0  0  0  0  0  0  0  0  0  0
   20.5617   17.7426   22.4772 H   0  0  0  0  0  0  0  0  0  0  0  0
   19.2214   19.3115   21.7889 C   0  0  0  0  0  0  0  0  0  0  0  0
   18.9873   20.3550   22.0405 H   0  0  0  0  0  0  0  0  0  0  0  0
   18.2920   18.7423   21.9273 H   0  0  0  0  0  0  0  0  0  0  0  0
   19.6373   19.2187   20.3023 C   0  0  0  0  0  0  0  0  0  0  0  0
   19.8661   18.1751   20.0454 H   0  0  0  0  0  0  0  0  0  0  0  0
   18.7818   19.5113   19.6780 H   0  0  0  0  0  0  0  0  0  0  0  0
   20.8420   20.1171   19.9472 C   0  0  0  0  0  0  0  0  0  0  0  0
   21.7529   19.7883   20.4628 H   0  0  0  0  0  0  0  0  0  0  0  0
   21.0408   20.0837   18.8682 H   0  0  0  0  0  0  0  0  0  0  0  0
   20.6478   21.1618   20.2229 H   0  0  0  0  0  0  0  0  0  0  0  0
  1  2  1  0  0  0  0
  1  3  2  0  0  0  0
  1  4  1  0  0  0  0
  4  5  1  0  0  0  0
  4  6  1  0  0  0  0
  4  7  1  0  0  0  0
  7  8  1  0  0  0  0
  7  9  1  0  0  0  0
  7 10  1  0  0  0  0
 10 11  1  0  0  0  0
 10 12  1  0  0  0  0
 10 13  1  0  0  0  0
 13 14  1  0  0  0  0
 13 15  1  0  0  0  0
 13 16  1  0  0  0  0
 16 17  1  0  0  0  0
 16 18  1  0  0  0  0
 16 19  1  0  0  0  0
 19 20  1  0  0  0  0
 19 21  1  0  0  0  0
 19 22  1  0  0  0  0
 22 23  1  0  0  0  0
 22 24  1  0  0  0  0
 22 25  1  0  0  0  0
M  END
> <VM2 Rank>
33

> <Conf_Id>
1120

> <Probability>
0.52

> <Sum Probability>
89.52

> <Delta G>
2.260

> <G>
-5.703

> <E>
-30.524

> <-TS>
24.821

> <U+W>
-51.092

> <U>
8.782

> <W>
-59.874

> <W(PB)>
-62.358

> <W(SA)>
2.484

> <Valence>
8.287

> <Coulomb>
-0.382

> <VdW>
0.877

> <VdW6>
-9.130

> <VdW12>
10.007

> <Bond>
0.167

> <Angle>
2.660

> <Pdih>
5.459

> <Idih>
0.000

> <Tether>
0.000

$$$$
VeraChem MOL file


 25 24  0  0  0  0  0  0  0  0999 V2000     
   20.1154   19.2903   27.4030 C   0  0  0  0  0  0  0  0  0  0  0  0
   21.2136   19.6561   27.7733 O   0  5  0  0  0  0  0  0  0  0  0  0
   19.0742   19.7507   27.8286 O   0  0  0  0  0  0  0  0  0  0  0  0
   20.0369   18.1797   26.3592 C   0  0  0  0  0  0  0  0  0  0  0  0
   19.2864   17.4590   26.7046 H   0  0  0  0  0  0  0  0  0  0  0  0
   20.9977   17.6513   26.3367 H   0  0  0  0  0  0  0  0  0  0  0  0
   19.6640   18.6738   24.9371 C   0  0  0  0  0  0  0  0  0  0  0  0
   19.4815   17.7978   24.3019 H   0  0  0  0  0  0  0  0  0  0  0  0
   18.7206   19.2353   24.9828 H   0  0  0  0  0  0  0  0  0  0  0  0
   20.7689   19.5547   24.3058 C   0  0  0  0  0  0  0  0  0  0  0  0
   21.6999   18.9777   24.2212 H   0  0  0  0  0  0  0  0  0  0  0  0
   20.9871   20.3962   24.9777 H   0  0  0  0  0  0  0  0  0  0  0  0
   20.3854   20.1264   22.9201 C   0  0  0  0  0  0  0  0  0  0  0  0
   19.4549   20.7040   23.0055 H   0  0  0  0  0  0  0  0  0  0  0  0
   21.1642   20.8365   22.6101 H   0  0  0  0  0  0  0  0  0  0  0  0
   20.2294   19.0443   21.8264 C   0  0  0  0  0  0  0  0  0  0  0  0
   19.4015   18.3701   22.0810 H   0  0  0  0  0  0  0  0  0  0  0  0
   21.1407   18.4323   21.7828 H   0  0  0  0  0  0  0  0  0  0  0  0
   19.9621   19.6689   20.4407 C   0  0  0  0  0  0  0  0  0  0  0  0
   19.0522   20.2836   20.4813 H   0  0  0  0  0  0  0  0  0  0  0  0
   20.7891   20.3401   20.1705 H   0  0  0  0  0  0  0  0  0  0  0  0
   19.8029   18.5889   19.3517 C   0  0  0  0  0  0  0  0  0  0  0  0
   18.9612   17.9220   19.5799 H   0  0  0  0  0  0  0  0  0  0  0  0
   19.6140   19.0505   18.3737 H   0  0  0  0  0  0  0  0  0  0  0  0
   20.7115   17.9782   19.2684 H   0  0  0  0  0  0  0  0  0  0  0  0
  1  2  1  0  0  0  0
  1  3  2  0  0  0  0
  1  4  1  0  0  0  0
  4  5  1  0  0  0  0
  4  6  1  0  0  0  0
  4  7  1  0  0  0  0
  7  8  1  0  0  0  0
  7  9  1  0  0  0  0
  7 10  1  0  0  0  0
 10 11  1  0  0  0  0
 10 12  1  0  0  0  0
 10 13  1  0  0  0  0
 13 14  1  0  0  0  0
 13 15  1  0  0  0  0
 13 16  1  0  0  0  0
 16 17  1  0  0  0  0
 16 18  1  0  0  0  0
 16 19  1  0  0  0  0
 19 20  1  0  0  0  0
 19 21  1  0  0  0  0
 19 22  1  0  0  0  0
 22 23  1  0  0  0  0
 22 24  1  0  0  0  0
 22 25  1  0  0  0  0
M  END
> <VM2 Rank>
34

> <Conf_Id>
1240

> <Probability>
0.52

> <Sum Probability>
90.04

> <Delta G>
2.260

> <G>
-5.702

> <E>
-30.523

> <-TS>
24.821

> <U+W>
-51.091

> <U>
8.377

> <W>
-59.468

> <W(PB)>
-61.944

> <W(SA)>
2.476

> <Valence>
8.357

> <Coulomb>
-0.892

> <VdW>
0.912

> <VdW6>
-9.161

> <VdW12>
10.073

> <Bond>
0.177

> <Angle>
2.702

> <Pdih>
5.478

> <Idih>
0.000

> <Tether>
0.000

$$$$
VeraChem MOL file


 25 24  0  0  0  0  0  0  0  0999 V2000     
   20.0664   19.4608   27.3304 C   0  0  0  0  0  0  0  0  0  0  0  0
   20.9654   20.1514   27.7684 O   0  5  0  0  0  0  0  0  0  0  0  0
   18.8881   19.7305   27.4568 O   0  0  0  0  0  0  0  0  0  0  0  0
   20.4395   18.1755   26.5971 C   0  0  0  0  0  0  0  0  0  0  0  0
   19.5624   17.5173   26.5759 H   0  0  0  0  0  0  0  0  0  0  0  0
   21.2039   17.6665   27.1959 H   0  0  0  0  0  0  0  0  0  0  0  0
   20.9739   18.4025   25.1591 C   0  0  0  0  0  0  0  0  0  0  0  0
   21.8340   19.0855   25.1941 H   0  0  0  0  0  0  0  0  0  0  0  0
   21.3444   17.4478   24.7618 H   0  0  0  0  0  0  0  0  0  0  0  0
   19.8959   18.9668   24.2066 C   0  0  0  0  0  0  0  0  0  0  0  0
   19.5323   19.9306   24.5890 H   0  0  0  0  0  0  0  0  0  0  0  0
   19.0331   18.2871   24.1848 H   0  0  0  0  0  0  0  0  0  0  0  0
   20.4405   19.1550   22.7740 C   0  0  0  0  0  0  0  0  0  0  0  0
   21.3010   19.8375   22.7959 H   0  0  0  0  0  0  0  0  0  0  0  0
   20.8049   18.1903   22.3978 H   0  0  0  0  0  0  0  0  0  0  0  0
   19.3599   19.7169   21.8214 C   0  0  0  0  0  0  0  0  0  0  0  0
   18.9557   20.6453   22.2477 H   0  0  0  0  0  0  0  0  0  0  0  0
   18.5195   19.0121   21.7582 H   0  0  0  0  0  0  0  0  0  0  0  0
   19.8896   20.0191   20.4003 C   0  0  0  0  0  0  0  0  0  0  0  0
   19.0970   20.5206   19.8280 H   0  0  0  0  0  0  0  0  0  0  0  0
   20.7261   20.7291   20.4593 H   0  0  0  0  0  0  0  0  0  0  0  0
   20.3339   18.7555   19.6318 C   0  0  0  0  0  0  0  0  0  0  0  0
   20.6161   19.0118   18.6025 H   0  0  0  0  0  0  0  0  0  0  0  0
   21.2029   18.2828   20.1063 H   0  0  0  0  0  0  0  0  0  0  0  0
   19.5222   18.0178   19.5860 H   0  0  0  0  0  0  0  0  0  0  0  0
  1  2  1  0  0  0  0
  1  3  2  0  0  0  0
  1  4  1  0  0  0  0
  4  5  1  0  0  0  0
  4  6  1  0  0  0  0
  4  7  1  0  0  0  0
  7  8  1  0  0  0  0
  7  9  1  0  0  0  0
  7 10  1  0  0  0  0
 10 11  1  0  0  0  0
 10 12  1  0  0  0  0
 10 13  1  0  0  0  0
 13 14  1  0  0  0  0
 13 15  1  0  0  0  0
 13 16  1  0  0  0  0
 16 17  1  0  0  0  0
 16 18  1  0  0  0  0
 16 19  1  0  0  0  0
 19 20  1  0  0  0  0
 19 21  1  0  0  0  0
 19 22  1  0  0  0  0
 22 23  1  0  0  0  0
 22 24  1  0  0  0  0
 22 25  1  0  0  0  0
M  END
> <VM2 Rank>
35

> <Conf_Id>
443

> <Probability>
0.49

> <Sum Probability>
90.53

> <Delta G>
2.297

> <G>
-5.665

> <E>
-30.486

> <-TS>
24.821

> <U+W>
-51.054

> <U>
8.634

> <W>
-59.688

> <W(PB)>
-62.177

> <W(SA)>
2.489

> <Valence>
8.287

> <Coulomb>
-0.534

> <VdW>
0.881

> <VdW6>
-9.127

> <VdW12>
10.009

> <Bond>
0.168

> <Angle>
2.660

> <Pdih>
5.459

> <Idih>
0.000

> <Tether>
0.000

$$$$
VeraChem MOL file


 25 24  0  0  0  0  0  0  0  0999 V2000     
   19.9600   18.9457   27.1548 C   0  0  0  0  0  0  0  0  0  0  0  0
   21.0165   18.5145   27.5731 O   0  5  0  0  0  0  0  0  0  0  0  0
   18.9127   18.3317   27.2122 O   0  0  0  0  0  0  0  0  0  0  0  0
   19.9414   20.3427   26.5408 C   0  0  0  0  0  0  0  0  0  0  0  0
   20.8319   20.8858   26.8796 H   0  0  0  0  0  0  0  0  0  0  0  0
   19.0726   20.8704   26.9515 H   0  0  0  0  0  0  0  0  0  0  0  0
   19.8664   20.3481   24.9918 C   0  0  0  0  0  0  0  0  0  0  0  0
   18.9789   19.7834   24.6771 H   0  0  0  0  0  0  0  0  0  0  0  0
   19.7258   21.3807   24.6450 H   0  0  0  0  0  0  0  0  0  0  0  0
   21.1373   19.7573   24.3357 C   0  0  0  0  0  0  0  0  0  0  0  0
   21.2480   18.7018   24.6204 H   0  0  0  0  0  0  0  0  0  0  0  0
   22.0192   20.2785   24.7324 H   0  0  0  0  0  0  0  0  0  0  0  0
   21.1475   19.8785   22.7933 C   0  0  0  0  0  0  0  0  0  0  0  0
   21.0459   20.9340   22.5062 H   0  0  0  0  0  0  0  0  0  0  0  0
   22.1290   19.5496   22.4253 H   0  0  0  0  0  0  0  0  0  0  0  0
   20.0459   19.0417   22.1024 C   0  0  0  0  0  0  0  0  0  0  0  0
   19.0549   19.4071   22.4012 H   0  0  0  0  0  0  0  0  0  0  0  0
   20.1163   17.9968   22.4343 H   0  0  0  0  0  0  0  0  0  0  0  0
   20.1633   19.1028   20.5648 C   0  0  0  0  0  0  0  0  0  0  0  0
   20.0951   20.1471   20.2297 H   0  0  0  0  0  0  0  0  0  0  0  0
   21.1493   18.7311   20.2530 H   0  0  0  0  0  0  0  0  0  0  0  0
   19.0620   18.2710   19.8772 C   0  0  0  0  0  0  0  0  0  0  0  0
   18.0642   18.6416   20.1461 H   0  0  0  0  0  0  0  0  0  0  0  0
   19.1608   18.3254   18.7853 H   0  0  0  0  0  0  0  0  0  0  0  0
   19.1261   17.2151   20.1712 H   0  0  0  0  0  0  0  0  0  0  0  0
  1  2  1  0  0  0  0
  1  3  2  0  0  0  0
  1  4  1  0  0  0  0
  4  5  1  0  0  0  0
  4  6  1  0  0  0  0
  4  7  1  0  0  0  0
  7  8  1  0  0  0  0
  7  9  1  0  0  0  0
  7 10  1  0  0  0  0
 10 11  1  0  0  0  0
 10 12  1  0  0  0  0
 10 13  1  0  0  0  0
 13 14  1  0  0  0  0
 13 15  1  0  0  0  0
 13 16  1  0  0  0  0
 16 17  1  0  0  0  0
 16 18  1  0  0  0  0
 16 19  1  0  0  0  0
 19 20  1  0  0  0  0
 19 21  1  0  0  0  0
 19 22  1  0  0  0  0
 22 23  1  0  0  0  0
 22 24  1  0  0  0  0
 22 25  1  0  0  0  0
M  END
> <VM2 Rank>
36

> <Conf_Id>
460

> <Probability>
0.48

> <Sum Probability>
91.00

> <Delta G>
2.310

> <G>
-5.653

> <E>
-30.468

> <-TS>
24.815

> <U+W>
-51.035

> <U>
8.903

> <W>
-59.938

> <W(PB)>
-62.416

> <W(SA)>
2.478

> <Valence>
8.305

> <Coulomb>
-0.224

> <VdW>
0.821

> <VdW6>
-9.236

> <VdW12>
10.057

> <Bond>
0.173

> <Angle>
2.664

> <Pdih>
5.469

> <Idih>
0.001

> <Tether>
0.000

$$$$
VeraChem MOL file


 25 24  0  0  0  0  0  0  0  0999 V2000     
   19.8217   19.5709   27.1377 C   0  0  0  0  0  0  0  0  0  0  0  0
   20.6875   20.1252   27.7861 O   0  5  0  0  0  0  0  0  0  0  0  0
   18.7186   20.0434   26.9457 O   0  0  0  0  0  0  0  0  0  0  0  0
   20.1329   18.1977   26.5491 C   0  0  0  0  0  0  0  0  0  0  0  0
   19.1871   17.6994   26.3040 H   0  0  0  0  0  0  0  0  0  0  0  0
   20.6096   17.6034   27.3375 H   0  0  0  0  0  0  0  0  0  0  0  0
   21.0548   18.2400   25.3028 C   0  0  0  0  0  0  0  0  0  0  0  0
   21.9864   18.7644   25.5574 H   0  0  0  0  0  0  0  0  0  0  0  0
   21.3341   17.2131   25.0309 H   0  0  0  0  0  0  0  0  0  0  0  0
   20.3836   18.9230   24.0900 C   0  0  0  0  0  0  0  0  0  0  0  0
   20.1212   19.9586   24.3469 H   0  0  0  0  0  0  0  0  0  0  0  0
   19.4446   18.4033   23.8598 H   0  0  0  0  0  0  0  0  0  0  0  0
   21.3075   18.9193   22.8502 C   0  0  0  0  0  0  0  0  0  0  0  0
   22.2696   19.3751   23.1214 H   0  0  0  0  0  0  0  0  0  0  0  0
   21.5265   17.8843   22.5540 H   0  0  0  0  0  0  0  0  0  0  0  0
   20.7235   19.6908   21.6428 C   0  0  0  0  0  0  0  0  0  0  0  0
   21.4914   19.7433   20.8590 H   0  0  0  0  0  0  0  0  0  0  0  0
   20.5091   20.7272   21.9374 H   0  0  0  0  0  0  0  0  0  0  0  0
   19.4498   19.0426   21.0543 C   0  0  0  0  0  0  0  0  0  0  0  0
   19.6486   17.9900   20.8100 H   0  0  0  0  0  0  0  0  0  0  0  0
   18.6423   19.0523   21.7981 H   0  0  0  0  0  0  0  0  0  0  0  0
   18.9731   19.7812   19.7873 C   0  0  0  0  0  0  0  0  0  0  0  0
   19.7434   19.7582   19.0053 H   0  0  0  0  0  0  0  0  0  0  0  0
   18.0668   19.3114   19.3837 H   0  0  0  0  0  0  0  0  0  0  0  0
   18.7407   20.8310   20.0092 H   0  0  0  0  0  0  0  0  0  0  0  0
  1  2  1  0  0  0  0
  1  3  2  0  0  0  0
  1  4  1  0  0  0  0
  4  5  1  0  0  0  0
  4  6  1  0  0  0  0
  4  7  1  0  0  0  0
  7  8  1  0  0  0  0
  7  9  1  0  0  0  0
  7 10  1  0  0  0  0
 10 11  1  0  0  0  0
 10 12  1  0  0  0  0
 10 13  1  0  0  0  0
 13 14  1  0  0  0  0
 13 15  1  0  0  0  0
 13 16  1  0  0  0  0
 16 17  1  0  0  0  0
 16 18  1  0  0  0  0
 16 19  1  0  0  0  0
 19 20  1  0  0  0  0
 19 21  1  0  0  0  0
 19 22  1  0  0  0  0
 22 23  1  0  0  0  0
 22 24  1  0  0  0  0
 22 25  1  0  0  0  0
M  END
> <VM2 Rank>
37

> <Conf_Id>
598

> <Probability>
0.47

> <Sum Probability>
91.47

> <Delta G>
2.315

> <G>
-5.647

> <E>
-30.456

> <-TS>
24.809

> <U+W>
-51.024

> <U>
8.998

> <W>
-60.022

> <W(PB)>
-62.521

> <W(SA)>
2.499

> <Valence>
8.322

> <Coulomb>
-0.176

> <VdW>
0.852

> <VdW6>
-9.197

> <VdW12>
10.049

> <Bond>
0.171

> <Angle>
2.683

> <Pdih>
5.468

> <Idih>
0.000

> <Tether>
0.000

$$$$
VeraChem MOL file


 25 24  0  0  0  0  0  0  0  0999 V2000     
   20.2014   19.2957   27.4020 C   0  0  0  0  0  0  0  0  0  0  0  0
   21.1851   19.8854   27.8043 O   0  5  0  0  0  0  0  0  0  0  0  0
   19.0744   19.5194   27.7981 O   0  0  0  0  0  0  0  0  0  0  0  0
   20.3966   18.2027   26.3550 C   0  0  0  0  0  0  0  0  0  0  0  0
   19.5105   17.5563   26.3536 H   0  0  0  0  0  0  0  0  0  0  0  0
   21.2404   17.5838   26.6819 H   0  0  0  0  0  0  0  0  0  0  0  0
   20.6709   18.7383   24.9255 C   0  0  0  0  0  0  0  0  0  0  0  0
   21.5361   19.4152   24.9504 H   0  0  0  0  0  0  0  0  0  0  0  0
   20.9487   17.8918   24.2849 H   0  0  0  0  0  0  0  0  0  0  0  0
   19.4487   19.4707   24.3211 C   0  0  0  0  0  0  0  0  0  0  0  0
   19.1410   20.2786   24.9990 H   0  0  0  0  0  0  0  0  0  0  0  0
   18.5970   18.7799   24.2571 H   0  0  0  0  0  0  0  0  0  0  0  0
   19.7245   20.0843   22.9277 C   0  0  0  0  0  0  0  0  0  0  0  0
   18.8548   20.6893   22.6368 H   0  0  0  0  0  0  0  0  0  0  0  0
   20.5758   20.7756   22.9924 H   0  0  0  0  0  0  0  0  0  0  0  0
   19.9913   19.0292   21.8292 C   0  0  0  0  0  0  0  0  0  0  0  0
   19.1643   18.3064   21.8056 H   0  0  0  0  0  0  0  0  0  0  0  0
   20.9037   18.4659   22.0636 H   0  0  0  0  0  0  0  0  0  0  0  0
   20.1452   19.6805   20.4386 C   0  0  0  0  0  0  0  0  0  0  0  0
   19.2337   20.2409   20.1884 H   0  0  0  0  0  0  0  0  0  0  0  0
   20.9705   20.4058   20.4590 H   0  0  0  0  0  0  0  0  0  0  0  0
   20.4150   18.6278   19.3446 C   0  0  0  0  0  0  0  0  0  0  0  0
   19.5896   17.9066   19.2815 H   0  0  0  0  0  0  0  0  0  0  0  0
   20.5213   19.1081   18.3632 H   0  0  0  0  0  0  0  0  0  0  0  0
   21.3395   18.0733   19.5525 H   0  0  0  0  0  0  0  0  0  0  0  0
  1  2  1  0  0  0  0
  1  3  2  0  0  0  0
  1  4  1  0  0  0  0
  4  5  1  0  0  0  0
  4  6  1  0  0  0  0
  4  7  1  0  0  0  0
  7  8  1  0  0  0  0
  7  9  1  0  0  0  0
  7 10  1  0  0  0  0
 10 11  1  0  0  0  0
 10 12  1  0  0  0  0
 10 13  1  0  0  0  0
 13 14  1  0  0  0  0
 13 15  1  0  0  0  0
 13 16  1  0  0  0  0
 16 17  1  0  0  0  0
 16 18  1  0  0  0  0
 16 19  1  0  0  0  0
 19 20  1  0  0  0  0
 19 21  1  0  0  0  0
 19 22  1  0  0  0  0
 22 23  1  0  0  0  0
 22 24  1  0  0  0  0
 22 25  1  0  0  0  0
M  END
> <VM2 Rank>
38

> <Conf_Id>
1040

> <Probability>
0.47

> <Sum Probability>
91.94

> <Delta G>
2.321

> <G>
-5.641

> <E>
-30.462

> <-TS>
24.821

> <U+W>
-51.030

> <U>
8.377

> <W>
-59.407

> <W(PB)>
-61.873

> <W(SA)>
2.466

> <Valence>
8.357

> <Coulomb>
-0.892

> <VdW>
0.912

> <VdW6>
-9.161

> <VdW12>
10.073

> <Bond>
0.177

> <Angle>
2.702

> <Pdih>
5.478

> <Idih>
0.000

> <Tether>
0.000

$$$$
VeraChem MOL file


 25 24  0  0  0  0  0  0  0  0999 V2000     
   19.8672   19.7470   27.0047 C   0  0  0  0  0  0  0  0  0  0  0  0
   20.7278   20.4785   27.4536 O   0  5  0  0  0  0  0  0  0  0  0  0
   18.7186   20.0962   26.8161 O   0  0  0  0  0  0  0  0  0  0  0  0
   20.2477   18.3055   26.6786 C   0  0  0  0  0  0  0  0  0  0  0  0
   19.3312   17.7060   26.6207 H   0  0  0  0  0  0  0  0  0  0  0  0
   20.8265   17.9196   27.5259 H   0  0  0  0  0  0  0  0  0  0  0  0
   21.0724   18.1506   25.3743 C   0  0  0  0  0  0  0  0  0  0  0  0
   21.9717   18.7792   25.4354 H   0  0  0  0  0  0  0  0  0  0  0  0
   21.4180   17.1112   25.2930 H   0  0  0  0  0  0  0  0  0  0  0  0
   20.2617   18.5191   24.1114 C   0  0  0  0  0  0  0  0  0  0  0  0
   19.9247   19.5611   24.1889 H   0  0  0  0  0  0  0  0  0  0  0  0
   19.3596   17.8944   24.0593 H   0  0  0  0  0  0  0  0  0  0  0  0
   21.0961   18.3317   22.8231 C   0  0  0  0  0  0  0  0  0  0  0  0
   21.9706   18.9961   22.8487 H   0  0  0  0  0  0  0  0  0  0  0  0
   21.4864   17.3052   22.7967 H   0  0  0  0  0  0  0  0  0  0  0  0
   20.2924   18.5832   21.5250 C   0  0  0  0  0  0  0  0  0  0  0  0
   19.4202   17.9158   21.4972 H   0  0  0  0  0  0  0  0  0  0  0  0
   20.9215   18.3078   20.6676 H   0  0  0  0  0  0  0  0  0  0  0  0
   19.8320   20.0491   21.3587 C   0  0  0  0  0  0  0  0  0  0  0  0
   19.1371   20.3212   22.1641 H   0  0  0  0  0  0  0  0  0  0  0  0
   20.6974   20.7210   21.4412 H   0  0  0  0  0  0  0  0  0  0  0  0
   19.1373   20.2731   20.0003 C   0  0  0  0  0  0  0  0  0  0  0  0
   18.2511   19.6324   19.9025 H   0  0  0  0  0  0  0  0  0  0  0  0
   18.8135   21.3171   19.8990 H   0  0  0  0  0  0  0  0  0  0  0  0
   19.8174   20.0472   19.1687 H   0  0  0  0  0  0  0  0  0  0  0  0
  1  2  1  0  0  0  0
  1  3  2  0  0  0  0
  1  4  1  0  0  0  0
  4  5  1  0  0  0  0
  4  6  1  0  0  0  0
  4  7  1  0  0  0  0
  7  8  1  0  0  0  0
  7  9  1  0  0  0  0
  7 10  1  0  0  0  0
 10 11  1  0  0  0  0
 10 12  1  0  0  0  0
 10 13  1  0  0  0  0
 13 14  1  0  0  0  0
 13 15  1  0  0  0  0
 13 16  1  0  0  0  0
 16 17  1  0  0  0  0
 16 18  1  0  0  0  0
 16 19  1  0  0  0  0
 19 20  1  0  0  0  0
 19 21  1  0  0  0  0
 19 22  1  0  0  0  0
 22 23  1  0  0  0  0
 22 24  1  0  0  0  0
 22 25  1  0  0  0  0
M  END
> <VM2 Rank>
39

> <Conf_Id>
694

> <Probability>
0.47

> <Sum Probability>
92.41

> <Delta G>
2.323

> <G>
-5.639

> <E>
-30.458

> <-TS>
24.819

> <U+W>
-51.026

> <U>
9.231

> <W>
-60.257

> <W(PB)>
-62.740

> <W(SA)>
2.483

> <Valence>
8.319

> <Coulomb>
0.075

> <VdW>
0.838

> <VdW6>
-9.234

> <VdW12>
10.072

> <Bond>
0.172

> <Angle>
2.679

> <Pdih>
5.467

> <Idih>
0.000

> <Tether>
0.000

$$$$
VeraChem MOL file


 25 24  0  0  0  0  0  0  0  0999 V2000     
   20.3807   19.7796   26.9988 C   0  0  0  0  0  0  0  0  0  0  0  0
   21.4713   20.2711   26.7844 O   0  5  0  0  0  0  0  0  0  0  0  0
   19.4450   20.3970   27.4682 O   0  0  0  0  0  0  0  0  0  0  0  0
   20.1783   18.3010   26.6794 C   0  0  0  0  0  0  0  0  0  0  0  0
   19.6726   17.8463   27.5393 H   0  0  0  0  0  0  0  0  0  0  0  0
   21.1618   17.8223   26.5996 H   0  0  0  0  0  0  0  0  0  0  0  0
   19.3501   18.0411   25.3942 C   0  0  0  0  0  0  0  0  0  0  0  0
   19.1370   16.9662   25.3193 H   0  0  0  0  0  0  0  0  0  0  0  0
   18.3801   18.5509   25.4769 H   0  0  0  0  0  0  0  0  0  0  0  0
   20.0783   18.5074   24.1135 C   0  0  0  0  0  0  0  0  0  0  0  0
   21.0507   18.0018   24.0397 H   0  0  0  0  0  0  0  0  0  0  0  0
   20.2824   19.5837   24.1848 H   0  0  0  0  0  0  0  0  0  0  0  0
   19.2449   18.2141   22.8445 C   0  0  0  0  0  0  0  0  0  0  0  0
   18.9871   17.1463   22.8256 H   0  0  0  0  0  0  0  0  0  0  0  0
   18.2942   18.7625   22.8912 H   0  0  0  0  0  0  0  0  0  0  0  0
   19.9802   18.5634   21.5287 C   0  0  0  0  0  0  0  0  0  0  0  0
   19.3715   18.2093   20.6855 H   0  0  0  0  0  0  0  0  0  0  0  0
   20.9290   18.0117   21.4798 H   0  0  0  0  0  0  0  0  0  0  0  0
   20.2474   20.0756   21.3540 C   0  0  0  0  0  0  0  0  0  0  0  0
   19.3060   20.6326   21.4572 H   0  0  0  0  0  0  0  0  0  0  0  0
   20.9205   20.4346   22.1436 H   0  0  0  0  0  0  0  0  0  0  0  0
   20.8769   20.3837   19.9803 C   0  0  0  0  0  0  0  0  0  0  0  0
   20.2119   20.0724   19.1641 H   0  0  0  0  0  0  0  0  0  0  0  0
   21.0634   21.4602   19.8732 H   0  0  0  0  0  0  0  0  0  0  0  0
   21.8345   19.8602   19.8613 H   0  0  0  0  0  0  0  0  0  0  0  0
  1  2  1  0  0  0  0
  1  3  2  0  0  0  0
  1  4  1  0  0  0  0
  4  5  1  0  0  0  0
  4  6  1  0  0  0  0
  4  7  1  0  0  0  0
  7  8  1  0  0  0  0
  7  9  1  0  0  0  0
  7 10  1  0  0  0  0
 10 11  1  0  0  0  0
 10 12  1  0  0  0  0
 10 13  1  0  0  0  0
 13 14  1  0  0  0  0
 13 15  1  0  0  0  0
 13 16  1  0  0  0  0
 16 17  1  0  0  0  0
 16 18  1  0  0  0  0
 16 19  1  0  0  0  0
 19 20  1  0  0  0  0
 19 21  1  0  0  0  0
 19 22  1  0  0  0  0
 22 23  1  0  0  0  0
 22 24  1  0  0  0  0
 22 25  1  0  0  0  0
M  END
> <VM2 Rank>
40

> <Conf_Id>
406

> <Probability>
0.47

> <Sum Probability>
92.87

> <Delta G>
2.324

> <G>
-5.638

> <E>
-30.458

> <-TS>
24.820

> <U+W>
-51.026

> <U>
9.231

> <W>
-60.257

> <W(PB)>
-62.750

> <W(SA)>
2.494

> <Valence>
8.318

> <Coulomb>
0.075

> <VdW>
0.838

> <VdW6>
-9.234

> <VdW12>
10.072

> <Bond>
0.172

> <Angle>
2.679

> <Pdih>
5.467

> <Idih>
0.000

> <Tether>
0.000

$$$$
VeraChem MOL file


 25 24  0  0  0  0  0  0  0  0999 V2000     
   20.2269   19.4709   27.3286 C   0  0  0  0  0  0  0  0  0  0  0  0
   21.3640   19.8883   27.4280 O   0  5  0  0  0  0  0  0  0  0  0  0
   19.2579   20.0424   27.7885 O   0  0  0  0  0  0  0  0  0  0  0  0
   20.0031   18.1476   26.6021 C   0  0  0  0  0  0  0  0  0  0  0  0
   19.3235   17.5466   27.2177 H   0  0  0  0  0  0  0  0  0  0  0  0
   20.9559   17.6061   26.5596 H   0  0  0  0  0  0  0  0  0  0  0  0
   19.4111   18.3030   25.1772 C   0  0  0  0  0  0  0  0  0  0  0  0
   19.1558   17.3084   24.7870 H   0  0  0  0  0  0  0  0  0  0  0  0
   18.4722   18.8714   25.2331 H   0  0  0  0  0  0  0  0  0  0  0  0
   20.3864   18.9982   24.2009 C   0  0  0  0  0  0  0  0  0  0  0  0
   21.3279   18.4336   24.1583 H   0  0  0  0  0  0  0  0  0  0  0  0
   20.6333   20.0010   24.5762 H   0  0  0  0  0  0  0  0  0  0  0  0
   19.7896   19.1136   22.7815 C   0  0  0  0  0  0  0  0  0  0  0  0
   19.5423   18.1098   22.4124 H   0  0  0  0  0  0  0  0  0  0  0  0
   18.8500   19.6810   22.8241 H   0  0  0  0  0  0  0  0  0  0  0  0
   20.7678   19.8069   21.8052 C   0  0  0  0  0  0  0  0  0  0  0  0
   21.6894   19.2148   21.7218 H   0  0  0  0  0  0  0  0  0  0  0  0
   21.0601   20.7799   22.2234 H   0  0  0  0  0  0  0  0  0  0  0  0
   20.1715   20.0370   20.3970 C   0  0  0  0  0  0  0  0  0  0  0  0
   19.2528   20.6346   20.4761 H   0  0  0  0  0  0  0  0  0  0  0  0
   20.8804   20.6347   19.8074 H   0  0  0  0  0  0  0  0  0  0  0  0
   19.8746   18.7260   19.6370 C   0  0  0  0  0  0  0  0  0  0  0  0
   19.0842   18.1469   20.1306 H   0  0  0  0  0  0  0  0  0  0  0  0
   19.5384   18.9426   18.6148 H   0  0  0  0  0  0  0  0  0  0  0  0
   20.7725   18.0978   19.5715 H   0  0  0  0  0  0  0  0  0  0  0  0
  1  2  1  0  0  0  0
  1  3  2  0  0  0  0
  1  4  1  0  0  0  0
  4  5  1  0  0  0  0
  4  6  1  0  0  0  0
  4  7  1  0  0  0  0
  7  8  1  0  0  0  0
  7  9  1  0  0  0  0
  7 10  1  0  0  0  0
 10 11  1  0  0  0  0
 10 12  1  0  0  0  0
 10 13  1  0  0  0  0
 13 14  1  0  0  0  0
 13 15  1  0  0  0  0
 13 16  1  0  0  0  0
 16 17  1  0  0  0  0
 16 18  1  0  0  0  0
 16 19  1  0  0  0  0
 19 20  1  0  0  0  0
 19 21  1  0  0  0  0
 19 22  1  0  0  0  0
 22 23  1  0  0  0  0
 22 24  1  0  0  0  0
 22 25  1  0  0  0  0
M  END
> <VM2 Rank>
41

> <Conf_Id>
187

> <Probability>
0.44

> <Sum Probability>
93.32

> <Delta G>
2.354

> <G>
-5.608

> <E>
-30.429

> <-TS>
24.821

> <U+W>
-50.997

> <U>
8.634

> <W>
-59.631

> <W(PB)>
-62.118

> <W(SA)>
2.487

> <Valence>
8.287

> <Coulomb>
-0.534

> <VdW>
0.881

> <VdW6>
-9.127

> <VdW12>
10.008

> <Bond>
0.168

> <Angle>
2.660

> <Pdih>
5.459

> <Idih>
0.000

> <Tether>
0.000

$$$$
VeraChem MOL file


 25 24  0  0  0  0  0  0  0  0999 V2000     
   20.4511   19.6109   27.1304 C   0  0  0  0  0  0  0  0  0  0  0  0
   21.4807   20.2190   26.9138 O   0  5  0  0  0  0  0  0  0  0  0  0
   19.5372   20.0520   27.7993 O   0  0  0  0  0  0  0  0  0  0  0  0
   20.3030   18.2084   26.5472 C   0  0  0  0  0  0  0  0  0  0  0  0
   19.9236   17.5598   27.3454 H   0  0  0  0  0  0  0  0  0  0  0  0
   21.2984   17.8338   26.2796 H   0  0  0  0  0  0  0  0  0  0  0  0
   19.3547   18.1318   25.3225 C   0  0  0  0  0  0  0  0  0  0  0  0
   19.2017   17.0774   25.0555 H   0  0  0  0  0  0  0  0  0  0  0  0
   18.3703   18.5342   25.5992 H   0  0  0  0  0  0  0  0  0  0  0  0
   19.9059   18.8927   24.0955 C   0  0  0  0  0  0  0  0  0  0  0  0
   20.8976   18.4959   23.8430 H   0  0  0  0  0  0  0  0  0  0  0  0
   20.0406   19.9535   24.3479 H   0  0  0  0  0  0  0  0  0  0  0  0
   18.9615   18.7701   22.8773 C   0  0  0  0  0  0  0  0  0  0  0  0
   18.8687   17.7153   22.5847 H   0  0  0  0  0  0  0  0  0  0  0  0
   17.9560   19.1008   23.1713 H   0  0  0  0  0  0  0  0  0  0  0  0
   19.4152   19.6076   21.6579 C   0  0  0  0  0  0  0  0  0  0  0  0
   19.5034   20.6632   21.9491 H   0  0  0  0  0  0  0  0  0  0  0  0
   18.6289   19.5613   20.8921 H   0  0  0  0  0  0  0  0  0  0  0  0
   20.7468   19.1251   21.0392 C   0  0  0  0  0  0  0  0  0  0  0  0
   21.5635   19.2379   21.7643 H   0  0  0  0  0  0  0  0  0  0  0  0
   20.6772   18.0554   20.7979 H   0  0  0  0  0  0  0  0  0  0  0  0
   21.0969   19.9163   19.7628 C   0  0  0  0  0  0  0  0  0  0  0  0
   21.1996   20.9874   19.9809 H   0  0  0  0  0  0  0  0  0  0  0  0
   22.0458   19.5645   19.3377 H   0  0  0  0  0  0  0  0  0  0  0  0
   20.3179   19.7950   18.9987 H   0  0  0  0  0  0  0  0  0  0  0  0
  1  2  1  0  0  0  0
  1  3  2  0  0  0  0
  1  4  1  0  0  0  0
  4  5  1  0  0  0  0
  4  6  1  0  0  0  0
  4  7  1  0  0  0  0
  7  8  1  0  0  0  0
  7  9  1  0  0  0  0
  7 10  1  0  0  0  0
 10 11  1  0  0  0  0
 10 12  1  0  0  0  0
 10 13  1  0  0  0  0
 13 14  1  0  0  0  0
 13 15  1  0  0  0  0
 13 16  1  0  0  0  0
 16 17  1  0  0  0  0
 16 18  1  0  0  0  0
 16 19  1  0  0  0  0
 19 20  1  0  0  0  0
 19 21  1  0  0  0  0
 19 22  1  0  0  0  0
 22 23  1  0  0  0  0
 22 24  1  0  0  0  0
 22 25  1  0  0  0  0
M  END
> <VM2 Rank>
42

> <Conf_Id>
1009

> <Probability>
0.43

> <Sum Probability>
93.75

> <Delta G>
2.368

> <G>
-5.595

> <E>
-30.404

> <-TS>
24.809

> <U+W>
-50.972

> <U>
8.998

> <W>
-59.970

> <W(PB)>
-62.452

> <W(SA)>
2.482

> <Valence>
8.322

> <Coulomb>
-0.176

> <VdW>
0.852

> <VdW6>
-9.197

> <VdW12>
10.049

> <Bond>
0.171

> <Angle>
2.683

> <Pdih>
5.468

> <Idih>
0.000

> <Tether>
0.000

$$$$
VeraChem MOL file


 25 24  0  0  0  0  0  0  0  0999 V2000     
   19.8785   19.7067   26.9245 C   0  0  0  0  0  0  0  0  0  0  0  0
   20.6722   19.9373   27.8157 O   0  5  0  0  0  0  0  0  0  0  0  0
   19.1303   20.5427   26.4574 O   0  0  0  0  0  0  0  0  0  0  0  0
   19.8004   18.2822   26.3826 C   0  0  0  0  0  0  0  0  0  0  0  0
   18.8761   18.1769   25.8033 H   0  0  0  0  0  0  0  0  0  0  0  0
   19.7042   17.6110   27.2439 H   0  0  0  0  0  0  0  0  0  0  0  0
   21.0308   17.8571   25.5352 C   0  0  0  0  0  0  0  0  0  0  0  0
   21.9278   17.9046   26.1681 H   0  0  0  0  0  0  0  0  0  0  0  0
   20.9184   16.8052   25.2398 H   0  0  0  0  0  0  0  0  0  0  0  0
   21.2671   18.7192   24.2708 C   0  0  0  0  0  0  0  0  0  0  0  0
   22.1958   18.3833   23.7897 H   0  0  0  0  0  0  0  0  0  0  0  0
   21.4306   19.7663   24.5609 H   0  0  0  0  0  0  0  0  0  0  0  0
   20.1115   18.6398   23.2468 C   0  0  0  0  0  0  0  0  0  0  0  0
   19.9037   17.5882   23.0068 H   0  0  0  0  0  0  0  0  0  0  0  0
   19.1962   19.0581   23.6861 H   0  0  0  0  0  0  0  0  0  0  0  0
   20.4447   19.4090   21.9501 C   0  0  0  0  0  0  0  0  0  0  0  0
   21.3582   18.9952   21.5014 H   0  0  0  0  0  0  0  0  0  0  0  0
   20.6544   20.4600   22.1918 H   0  0  0  0  0  0  0  0  0  0  0  0
   19.2905   19.3357   20.9283 C   0  0  0  0  0  0  0  0  0  0  0  0
   19.0780   18.2856   20.6843 H   0  0  0  0  0  0  0  0  0  0  0  0
   18.3757   19.7517   21.3728 H   0  0  0  0  0  0  0  0  0  0  0  0
   19.6271   20.1044   19.6347 C   0  0  0  0  0  0  0  0  0  0  0  0
   19.8136   21.1656   19.8458 H   0  0  0  0  0  0  0  0  0  0  0  0
   20.5211   19.6886   19.1519 H   0  0  0  0  0  0  0  0  0  0  0  0
   18.7960   20.0420   18.9202 H   0  0  0  0  0  0  0  0  0  0  0  0
  1  2  1  0  0  0  0
  1  3  2  0  0  0  0
  1  4  1  0  0  0  0
  4  5  1  0  0  0  0
  4  6  1  0  0  0  0
  4  7  1  0  0  0  0
  7  8  1  0  0  0  0
  7  9  1  0  0  0  0
  7 10  1  0  0  0  0
 10 11  1  0  0  0  0
 10 12  1  0  0  0  0
 10 13  1  0  0  0  0
 13 14  1  0  0  0  0
 13 15  1  0  0  0  0
 13 16  1  0  0  0  0
 16 17  1  0  0  0  0
 16 18  1  0  0  0  0
 16 19  1  0  0  0  0
 19 20  1  0  0  0  0
 19 21  1  0  0  0  0
 19 22  1  0  0  0  0
 22 23  1  0  0  0  0
 22 24  1  0  0  0  0
 22 25  1  0  0  0  0
M  END
> <VM2 Rank>
43

> <Conf_Id>
1262

> <Probability>
0.33

> <Sum Probability>
94.08

> <Delta G>
2.536

> <G>
-5.427

> <E>
-30.290

> <-TS>
24.863

> <U+W>
-50.857

> <U>
9.443

> <W>
-60.300

> <W(PB)>
-62.764

> <W(SA)>
2.464

> <Valence>
8.294

> <Coulomb>
0.527

> <VdW>
0.622

> <VdW6>
-9.564

> <VdW12>
10.186

> <Bond>
0.185

> <Angle>
2.775

> <Pdih>
5.333

> <Idih>
0.001

> <Tether>
0.000

$$$$
VeraChem MOL file


 25 24  0  0  0  0  0  0  0  0999 V2000     
   20.3728   19.7381   26.9187 C   0  0  0  0  0  0  0  0  0  0  0  0
   20.9982   20.6613   26.4356 O   0  5  0  0  0  0  0  0  0  0  0  0
   19.5769   19.8679   27.8282 O   0  0  0  0  0  0  0  0  0  0  0  0
   20.6179   18.3340   26.3731 C   0  0  0  0  0  0  0  0  0  0  0  0
   20.8180   17.6818   27.2312 H   0  0  0  0  0  0  0  0  0  0  0  0
   21.5346   18.3457   25.7727 H   0  0  0  0  0  0  0  0  0  0  0  0
   19.4320   17.7555   25.5537 C   0  0  0  0  0  0  0  0  0  0  0  0
   19.6698   16.7258   25.2543 H   0  0  0  0  0  0  0  0  0  0  0  0
   18.5511   17.6900   26.2071 H   0  0  0  0  0  0  0  0  0  0  0  0
   19.0595   18.5788   24.2963 C   0  0  0  0  0  0  0  0  0  0  0  0
   18.7714   19.5972   24.5916 H   0  0  0  0  0  0  0  0  0  0  0  0
   18.1701   18.1273   23.8361 H   0  0  0  0  0  0  0  0  0  0  0  0
   20.1920   18.6450   23.2460 C   0  0  0  0  0  0  0  0  0  0  0  0
   21.0568   19.1766   23.6648 H   0  0  0  0  0  0  0  0  0  0  0  0
   20.5259   17.6278   22.9998 H   0  0  0  0  0  0  0  0  0  0  0  0
   19.7345   19.3637   21.9583 C   0  0  0  0  0  0  0  0  0  0  0  0
   19.3987   20.3801   22.2062 H   0  0  0  0  0  0  0  0  0  0  0  0
   18.8708   18.8369   21.5300 H   0  0  0  0  0  0  0  0  0  0  0  0
   20.8649   19.4359   20.9103 C   0  0  0  0  0  0  0  0  0  0  0  0
   21.7296   19.9652   21.3343 H   0  0  0  0  0  0  0  0  0  0  0  0
   21.2033   18.4209   20.6600 H   0  0  0  0  0  0  0  0  0  0  0  0
   20.4041   20.1539   19.6258 C   0  0  0  0  0  0  0  0  0  0  0  0
   20.0894   21.1831   19.8426 H   0  0  0  0  0  0  0  0  0  0  0  0
   21.2198   20.1963   18.8924 H   0  0  0  0  0  0  0  0  0  0  0  0
   19.5592   19.6272   19.1630 H   0  0  0  0  0  0  0  0  0  0  0  0
  1  2  1  0  0  0  0
  1  3  2  0  0  0  0
  1  4  1  0  0  0  0
  4  5  1  0  0  0  0
  4  6  1  0  0  0  0
  4  7  1  0  0  0  0
  7  8  1  0  0  0  0
  7  9  1  0  0  0  0
  7 10  1  0  0  0  0
 10 11  1  0  0  0  0
 10 12  1  0  0  0  0
 10 13  1  0  0  0  0
 13 14  1  0  0  0  0
 13 15  1  0  0  0  0
 13 16  1  0  0  0  0
 16 17  1  0  0  0  0
 16 18  1  0  0  0  0
 16 19  1  0  0  0  0
 19 20  1  0  0  0  0
 19 21  1  0  0  0  0
 19 22  1  0  0  0  0
 22 23  1  0  0  0  0
 22 24  1  0  0  0  0
 22 25  1  0  0  0  0
M  END
> <VM2 Rank>
44

> <Conf_Id>
784

> <Probability>
0.33

> <Sum Probability>
94.40

> <Delta G>
2.537

> <G>
-5.425

> <E>
-30.289

> <-TS>
24.863

> <U+W>
-50.856

> <U>
9.443

> <W>
-60.300

> <W(PB)>
-62.765

> <W(SA)>
2.465

> <Valence>
8.294

> <Coulomb>
0.528

> <VdW>
0.622

> <VdW6>
-9.564

> <VdW12>
10.186

> <Bond>
0.185

> <Angle>
2.775

> <Pdih>
5.333

> <Idih>
0.001

> <Tether>
0.000

$$$$
VeraChem MOL file


 25 24  0  0  0  0  0  0  0  0999 V2000     
   20.0315   19.7634   27.2579 C   0  0  0  0  0  0  0  0  0  0  0  0
   21.1191   19.8938   27.7841 O   0  5  0  0  0  0  0  0  0  0  0  0
   18.9911   19.6655   27.8781 O   0  0  0  0  0  0  0  0  0  0  0  0
   19.9713   19.6958   25.7361 C   0  0  0  0  0  0  0  0  0  0  0  0
   20.7693   20.3351   25.3421 H   0  0  0  0  0  0  0  0  0  0  0  0
   19.0173   20.1297   25.4137 H   0  0  0  0  0  0  0  0  0  0  0  0
   20.1117   18.2496   25.1938 C   0  0  0  0  0  0  0  0  0  0  0  0
   21.0893   17.8414   25.4853 H   0  0  0  0  0  0  0  0  0  0  0  0
   19.3546   17.6163   25.6766 H   0  0  0  0  0  0  0  0  0  0  0  0
   19.9382   18.1484   23.6598 C   0  0  0  0  0  0  0  0  0  0  0  0
   18.9523   18.5437   23.3821 H   0  0  0  0  0  0  0  0  0  0  0  0
   19.9414   17.0873   23.3758 H   0  0  0  0  0  0  0  0  0  0  0  0
   21.0457   18.8857   22.8681 C   0  0  0  0  0  0  0  0  0  0  0  0
   20.9893   19.9652   23.0544 H   0  0  0  0  0  0  0  0  0  0  0  0
   22.0269   18.5618   23.2407 H   0  0  0  0  0  0  0  0  0  0  0  0
   20.9905   18.6205   21.3425 C   0  0  0  0  0  0  0  0  0  0  0  0
   21.1522   17.5492   21.1613 H   0  0  0  0  0  0  0  0  0  0  0  0
   21.8326   19.1389   20.8642 H   0  0  0  0  0  0  0  0  0  0  0  0
   19.6766   19.0513   20.6447 C   0  0  0  0  0  0  0  0  0  0  0  0
   19.7489   18.8003   19.5775 H   0  0  0  0  0  0  0  0  0  0  0  0
   18.8316   18.4696   21.0363 H   0  0  0  0  0  0  0  0  0  0  0  0
   19.3773   20.5600   20.7808 C   0  0  0  0  0  0  0  0  0  0  0  0
   19.1819   20.8347   21.8251 H   0  0  0  0  0  0  0  0  0  0  0  0
   20.2200   21.1621   20.4173 H   0  0  0  0  0  0  0  0  0  0  0  0
   18.4898   20.8301   20.1943 H   0  0  0  0  0  0  0  0  0  0  0  0
  1  2  1  0  0  0  0
  1  3  2  0  0  0  0
  1  4  1  0  0  0  0
  4  5  1  0  0  0  0
  4  6  1  0  0  0  0
  4  7  1  0  0  0  0
  7  8  1  0  0  0  0
  7  9  1  0  0  0  0
  7 10  1  0  0  0  0
 10 11  1  0  0  0  0
 10 12  1  0  0  0  0
 10 13  1  0  0  0  0
 13 14  1  0  0  0  0
 13 15  1  0  0  0  0
 13 16  1  0  0  0  0
 16 17  1  0  0  0  0
 16 18  1  0  0  0  0
 16 19  1  0  0  0  0
 19 20  1  0  0  0  0
 19 21  1  0  0  0  0
 19 22  1  0  0  0  0
 22 23  1  0  0  0  0
 22 24  1  0  0  0  0
 22 25  1  0  0  0  0
M  END
> <VM2 Rank>
45

> <Conf_Id>
1347

> <Probability>
0.27

> <Sum Probability>
94.67

> <Delta G>
2.647

> <G>
-5.315

> <E>
-30.248

> <-TS>
24.933

> <U+W>
-50.816

> <U>
8.419

> <W>
-59.235

> <W(PB)>
-61.656

> <W(SA)>
2.421

> <Valence>
8.961

> <Coulomb>
-1.581

> <VdW>
1.040

> <VdW6>
-10.002

> <VdW12>
11.041

> <Bond>
0.231

> <Angle>
3.079

> <Pdih>
5.651

> <Idih>
0.001

> <Tether>
0.000

$$$$
VeraChem MOL file


 25 24  0  0  0  0  0  0  0  0999 V2000     
   20.2214   19.7755   27.2557 C   0  0  0  0  0  0  0  0  0  0  0  0
   21.2799   19.8110   27.8517 O   0  5  0  0  0  0  0  0  0  0  0  0
   19.1385   19.7680   27.8070 O   0  0  0  0  0  0  0  0  0  0  0  0
   20.2547   19.7138   25.7328 C   0  0  0  0  0  0  0  0  0  0  0  0
   21.1384   20.2645   25.3891 H   0  0  0  0  0  0  0  0  0  0  0  0
   19.3734   20.2463   25.3582 H   0  0  0  0  0  0  0  0  0  0  0  0
   20.2861   18.2607   25.1918 C   0  0  0  0  0  0  0  0  0  0  0  0
   21.1282   17.7291   25.6562 H   0  0  0  0  0  0  0  0  0  0  0  0
   19.3751   17.7324   25.5051 H   0  0  0  0  0  0  0  0  0  0  0  0
   20.4357   18.1800   23.6540 C   0  0  0  0  0  0  0  0  0  0  0  0
   20.5605   17.1266   23.3687 H   0  0  0  0  0  0  0  0  0  0  0  0
   21.3570   18.6967   23.3543 H   0  0  0  0  0  0  0  0  0  0  0  0
   19.2259   18.7698   22.8891 C   0  0  0  0  0  0  0  0  0  0  0  0
   18.3025   18.3246   23.2836 H   0  0  0  0  0  0  0  0  0  0  0  0
   19.1492   19.8481   23.0757 H   0  0  0  0  0  0  0  0  0  0  0  0
   19.2791   18.5116   21.3622 C   0  0  0  0  0  0  0  0  0  0  0  0
   18.3673   18.9184   20.9042 H   0  0  0  0  0  0  0  0  0  0  0  0
   19.2504   17.4282   21.1832 H   0  0  0  0  0  0  0  0  0  0  0  0
   20.5115   19.1045   20.6351 C   0  0  0  0  0  0  0  0  0  0  0  0
   21.4321   18.6352   21.0064 H   0  0  0  0  0  0  0  0  0  0  0  0
   20.4471   18.8448   19.5695 H   0  0  0  0  0  0  0  0  0  0  0  0
   20.6201   20.6391   20.7666 C   0  0  0  0  0  0  0  0  0  0  0  0
   20.8031   20.9379   21.8065 H   0  0  0  0  0  0  0  0  0  0  0  0
   21.4525   21.0188   20.1602 H   0  0  0  0  0  0  0  0  0  0  0  0
   19.6998   21.1291   20.4234 H   0  0  0  0  0  0  0  0  0  0  0  0
  1  2  1  0  0  0  0
  1  3  2  0  0  0  0
  1  4  1  0  0  0  0
  4  5  1  0  0  0  0
  4  6  1  0  0  0  0
  4  7  1  0  0  0  0
  7  8  1  0  0  0  0
  7  9  1  0  0  0  0
  7 10  1  0  0  0  0
 10 11  1  0  0  0  0
 10 12  1  0  0  0  0
 10 13  1  0  0  0  0
 13 14  1  0  0  0  0
 13 15  1  0  0  0  0
 13 16  1  0  0  0  0
 16 17  1  0  0  0  0
 16 18  1  0  0  0  0
 16 19  1  0  0  0  0
 19 20  1  0  0  0  0
 19 21  1  0  0  0  0
 19 22  1  0  0  0  0
 22 23  1  0  0  0  0
 22 24  1  0  0  0  0
 22 25  1  0  0  0  0
M  END
> <VM2 Rank>
46

> <Conf_Id>
461

> <Probability>
0.26

> <Sum Probability>
94.93

> <Delta G>
2.681

> <G>
-5.282

> <E>
-30.214

> <-TS>
24.933

> <U+W>
-50.782

> <U>
8.420

> <W>
-59.202

> <W(PB)>
-61.634

> <W(SA)>
2.432

> <Valence>
8.961

> <Coulomb>
-1.581

> <VdW>
1.040

> <VdW6>
-10.002

> <VdW12>
11.041

> <Bond>
0.231

> <Angle>
3.079

> <Pdih>
5.651

> <Idih>
0.001

> <Tether>
0.000

$$$$
VeraChem MOL file


 25 24  0  0  0  0  0  0  0  0999 V2000     
   19.9607   19.8753   26.9490 C   0  0  0  0  0  0  0  0  0  0  0  0
   20.5057   19.6262   28.0063 O   0  5  0  0  0  0  0  0  0  0  0  0
   18.8612   20.3854   26.8624 O   0  0  0  0  0  0  0  0  0  0  0  0
   20.6872   19.5062   25.6608 C   0  0  0  0  0  0  0  0  0  0  0  0
   21.7653   19.5969   25.8389 H   0  0  0  0  0  0  0  0  0  0  0  0
   20.4180   20.2498   24.9020 H   0  0  0  0  0  0  0  0  0  0  0  0
   20.3445   18.0766   25.1672 C   0  0  0  0  0  0  0  0  0  0  0  0
   20.5388   17.3656   25.9821 H   0  0  0  0  0  0  0  0  0  0  0  0
   19.2689   18.0095   24.9566 H   0  0  0  0  0  0  0  0  0  0  0  0
   21.1600   17.6378   23.9248 C   0  0  0  0  0  0  0  0  0  0  0  0
   20.8753   16.6102   23.6608 H   0  0  0  0  0  0  0  0  0  0  0  0
   22.2242   17.5976   24.1938 H   0  0  0  0  0  0  0  0  0  0  0  0
   20.9970   18.5404   22.6758 C   0  0  0  0  0  0  0  0  0  0  0  0
   21.3915   19.5411   22.8912 H   0  0  0  0  0  0  0  0  0  0  0  0
   21.6223   18.1330   21.8700 H   0  0  0  0  0  0  0  0  0  0  0  0
   19.5349   18.6410   22.1766 C   0  0  0  0  0  0  0  0  0  0  0  0
   18.9161   19.1506   22.9269 H   0  0  0  0  0  0  0  0  0  0  0  0
   19.1239   17.6283   22.0669 H   0  0  0  0  0  0  0  0  0  0  0  0
   19.3997   19.3782   20.8240 C   0  0  0  0  0  0  0  0  0  0  0  0
   20.0051   18.8693   20.0612 H   0  0  0  0  0  0  0  0  0  0  0  0
   18.3558   19.3100   20.4880 H   0  0  0  0  0  0  0  0  0  0  0  0
   19.8022   20.8671   20.8990 C   0  0  0  0  0  0  0  0  0  0  0  0
   20.8702   20.9823   21.1221 H   0  0  0  0  0  0  0  0  0  0  0  0
   19.6068   21.3666   19.9413 H   0  0  0  0  0  0  0  0  0  0  0  0
   19.2297   21.3899   21.6763 H   0  0  0  0  0  0  0  0  0  0  0  0
  1  2  1  0  0  0  0
  1  3  2  0  0  0  0
  1  4  1  0  0  0  0
  4  5  1  0  0  0  0
  4  6  1  0  0  0  0
  4  7  1  0  0  0  0
  7  8  1  0  0  0  0
  7  9  1  0  0  0  0
  7 10  1  0  0  0  0
 10 11  1  0  0  0  0
 10 12  1  0  0  0  0
 10 13  1  0  0  0  0
 13 14  1  0  0  0  0
 13 15  1  0  0  0  0
 13 16  1  0  0  0  0
 16 17  1  0  0  0  0
 16 18  1  0  0  0  0
 16 19  1  0  0  0  0
 19 20  1  0  0  0  0
 19 21  1  0  0  0  0
 19 22  1  0  0  0  0
 22 23  1  0  0  0  0
 22 24  1  0  0  0  0
 22 25  1  0  0  0  0
M  END
> <VM2 Rank>
47

> <Conf_Id>
144

> <Probability>
0.25

> <Sum Probability>
95.18

> <Delta G>
2.688

> <G>
-5.274

> <E>
-30.251

> <-TS>
24.977

> <U+W>
-50.819

> <U>
8.958

> <W>
-59.776

> <W(PB)>
-62.185

> <W(SA)>
2.409

> <Valence>
8.948

> <Coulomb>
-0.940

> <VdW>
0.950

> <VdW6>
-10.177

> <VdW12>
11.126

> <Bond>
0.232

> <Angle>
3.080

> <Pdih>
5.635

> <Idih>
0.001

> <Tether>
0.000

$$$$
VeraChem MOL file


 25 24  0  0  0  0  0  0  0  0999 V2000     
   19.6006   19.1773   26.9742 C   0  0  0  0  0  0  0  0  0  0  0  0
   20.1507   18.9382   28.0311 O   0  5  0  0  0  0  0  0  0  0  0  0
   18.5445   19.7716   26.8845 O   0  0  0  0  0  0  0  0  0  0  0  0
   20.2848   18.7261   25.6889 C   0  0  0  0  0  0  0  0  0  0  0  0
   19.5011   18.4723   24.9660 H   0  0  0  0  0  0  0  0  0  0  0  0
   20.8414   17.8061   25.9034 H   0  0  0  0  0  0  0  0  0  0  0  0
   21.2353   19.8033   25.1053 C   0  0  0  0  0  0  0  0  0  0  0  0
   20.6599   20.7058   24.8597 H   0  0  0  0  0  0  0  0  0  0  0  0
   21.9506   20.1023   25.8838 H   0  0  0  0  0  0  0  0  0  0  0  0
   22.0292   19.3225   23.8643 C   0  0  0  0  0  0  0  0  0  0  0  0
   22.6869   18.4945   24.1617 H   0  0  0  0  0  0  0  0  0  0  0  0
   22.6930   20.1331   23.5343 H   0  0  0  0  0  0  0  0  0  0  0  0
   21.1634   18.8629   22.6643 C   0  0  0  0  0  0  0  0  0  0  0  0
   21.8341   18.5435   21.8553 H   0  0  0  0  0  0  0  0  0  0  0  0
   20.5836   17.9757   22.9475 H   0  0  0  0  0  0  0  0  0  0  0  0
   20.2192   19.9669   22.1289 C   0  0  0  0  0  0  0  0  0  0  0  0
   20.8022   20.8805   21.9501 H   0  0  0  0  0  0  0  0  0  0  0  0
   19.4672   20.2188   22.8884 H   0  0  0  0  0  0  0  0  0  0  0  0
   19.5011   19.5744   20.8168 C   0  0  0  0  0  0  0  0  0  0  0  0
   18.9416   20.4447   20.4470 H   0  0  0  0  0  0  0  0  0  0  0  0
   20.2442   19.3323   20.0445 H   0  0  0  0  0  0  0  0  0  0  0  0
   18.5243   18.3907   20.9877 C   0  0  0  0  0  0  0  0  0  0  0  0
   17.7893   18.5988   21.7761 H   0  0  0  0  0  0  0  0  0  0  0  0
   17.9765   18.2069   20.0545 H   0  0  0  0  0  0  0  0  0  0  0  0
   19.0563   17.4671   21.2481 H   0  0  0  0  0  0  0  0  0  0  0  0
  1  2  1  0  0  0  0
  1  3  2  0  0  0  0
  1  4  1  0  0  0  0
  4  5  1  0  0  0  0
  4  6  1  0  0  0  0
  4  7  1  0  0  0  0
  7  8  1  0  0  0  0
  7  9  1  0  0  0  0
  7 10  1  0  0  0  0
 10 11  1  0  0  0  0
 10 12  1  0  0  0  0
 10 13  1  0  0  0  0
 13 14  1  0  0  0  0
 13 15  1  0  0  0  0
 13 16  1  0  0  0  0
 16 17  1  0  0  0  0
 16 18  1  0  0  0  0
 16 19  1  0  0  0  0
 19 20  1  0  0  0  0
 19 21  1  0  0  0  0
 19 22  1  0  0  0  0
 22 23  1  0  0  0  0
 22 24  1  0  0  0  0
 22 25  1  0  0  0  0
M  END
> <VM2 Rank>
48

> <Conf_Id>
712

> <Probability>
0.25

> <Sum Probability>
95.43

> <Delta G>
2.700

> <G>
-5.262

> <E>
-30.239

> <-TS>
24.977

> <U+W>
-50.807

> <U>
8.957

> <W>
-59.764

> <W(PB)>
-62.187

> <W(SA)>
2.423

> <Valence>
8.948

> <Coulomb>
-0.940

> <VdW>
0.950

> <VdW6>
-10.176

> <VdW12>
11.126

> <Bond>
0.232

> <Angle>
3.080

> <Pdih>
5.636

> <Idih>
0.001

> <Tether>
0.000

$$$$
VeraChem MOL file


 25 24  0  0  0  0  0  0  0  0999 V2000     
   20.5278   19.5971   27.0189 C   0  0  0  0  0  0  0  0  0  0  0  0
   21.5733   20.1986   26.8717 O   0  5  0  0  0  0  0  0  0  0  0  0
   19.8260   19.6988   28.0059 O   0  0  0  0  0  0  0  0  0  0  0  0
   20.0603   18.6792   25.8953 C   0  0  0  0  0  0  0  0  0  0  0  0
   19.5108   17.8432   26.3441 H   0  0  0  0  0  0  0  0  0  0  0  0
   20.9514   18.2619   25.4128 H   0  0  0  0  0  0  0  0  0  0  0  0
   19.1698   19.4086   24.8563 C   0  0  0  0  0  0  0  0  0  0  0  0
   18.3300   19.8831   25.3823 H   0  0  0  0  0  0  0  0  0  0  0  0
   19.7391   20.2259   24.3938 H   0  0  0  0  0  0  0  0  0  0  0  0
   18.6011   18.4699   23.7628 C   0  0  0  0  0  0  0  0  0  0  0  0
   17.9433   19.0508   23.1030 H   0  0  0  0  0  0  0  0  0  0  0  0
   17.9552   17.7204   24.2399 H   0  0  0  0  0  0  0  0  0  0  0  0
   19.6649   17.7330   22.9068 C   0  0  0  0  0  0  0  0  0  0  0  0
   20.2093   17.0201   23.5398 H   0  0  0  0  0  0  0  0  0  0  0  0
   19.1473   17.1242   22.1531 H   0  0  0  0  0  0  0  0  0  0  0  0
   20.6887   18.6497   22.1909 C   0  0  0  0  0  0  0  0  0  0  0  0
   21.3993   18.0145   21.6450 H   0  0  0  0  0  0  0  0  0  0  0  0
   21.2815   19.2007   22.9329 H   0  0  0  0  0  0  0  0  0  0  0  0
   20.0390   19.6416   21.2001 C   0  0  0  0  0  0  0  0  0  0  0  0
   19.4147   19.0924   20.4819 H   0  0  0  0  0  0  0  0  0  0  0  0
   19.3766   20.3321   21.7386 H   0  0  0  0  0  0  0  0  0  0  0  0
   21.1021   20.4576   20.4373 C   0  0  0  0  0  0  0  0  0  0  0  0
   21.7612   19.7992   19.8565 H   0  0  0  0  0  0  0  0  0  0  0  0
   20.6249   21.1593   19.7409 H   0  0  0  0  0  0  0  0  0  0  0  0
   21.7229   21.0386   21.1318 H   0  0  0  0  0  0  0  0  0  0  0  0
  1  2  1  0  0  0  0
  1  3  2  0  0  0  0
  1  4  1  0  0  0  0
  4  5  1  0  0  0  0
  4  6  1  0  0  0  0
  4  7  1  0  0  0  0
  7  8  1  0  0  0  0
  7  9  1  0  0  0  0
  7 10  1  0  0  0  0
 10 11  1  0  0  0  0
 10 12  1  0  0  0  0
 10 13  1  0  0  0  0
 13 14  1  0  0  0  0
 13 15  1  0  0  0  0
 13 16  1  0  0  0  0
 16 17  1  0  0  0  0
 16 18  1  0  0  0  0
 16 19  1  0  0  0  0
 19 20  1  0  0  0  0
 19 21  1  0  0  0  0
 19 22  1  0  0  0  0
 22 23  1  0  0  0  0
 22 24  1  0  0  0  0
 22 25  1  0  0  0  0
M  END
> <VM2 Rank>
49

> <Conf_Id>
781

> <Probability>
0.22

> <Sum Probability>
95.65

> <Delta G>
2.767

> <G>
-5.196

> <E>
-30.372

> <-TS>
25.176

> <U+W>
-50.940

> <U>
8.897

> <W>
-59.836

> <W(PB)>
-62.244

> <W(SA)>
2.407

> <Valence>
8.933

> <Coulomb>
-0.847

> <VdW>
0.811

> <VdW6>
-10.409

> <VdW12>
11.221

> <Bond>
0.240

> <Angle>
3.240

> <Pdih>
5.452

> <Idih>
0.001

> <Tether>
0.000

$$$$
VeraChem MOL file


 25 24  0  0  0  0  0  0  0  0999 V2000     
   20.2975   19.3711   27.4514 C   0  0  0  0  0  0  0  0  0  0  0  0
   21.3957   19.8017   27.7438 O   0  5  0  0  0  0  0  0  0  0  0  0
   19.3429   19.3960   28.2030 O   0  0  0  0  0  0  0  0  0  0  0  0
   20.1005   18.7880   26.0567 C   0  0  0  0  0  0  0  0  0  0  0  0
   19.3454   17.9956   26.1232 H   0  0  0  0  0  0  0  0  0  0  0  0
   21.0429   18.3157   25.7579 H   0  0  0  0  0  0  0  0  0  0  0  0
   19.6673   19.8543   25.0171 C   0  0  0  0  0  0  0  0  0  0  0  0
   18.7764   20.3733   25.3972 H   0  0  0  0  0  0  0  0  0  0  0  0
   20.4530   20.6166   24.9229 H   0  0  0  0  0  0  0  0  0  0  0  0
   19.3393   19.2663   23.6238 C   0  0  0  0  0  0  0  0  0  0  0  0
   18.9105   20.0689   23.0102 H   0  0  0  0  0  0  0  0  0  0  0  0
   18.5607   18.4977   23.7218 H   0  0  0  0  0  0  0  0  0  0  0  0
   20.5729   18.6724   22.9003 C   0  0  0  0  0  0  0  0  0  0  0  0
   21.3507   19.4407   22.8017 H   0  0  0  0  0  0  0  0  0  0  0  0
   21.0086   17.8754   23.5157 H   0  0  0  0  0  0  0  0  0  0  0  0
   20.2444   18.0704   21.5104 C   0  0  0  0  0  0  0  0  0  0  0  0
   19.5301   17.2459   21.6401 H   0  0  0  0  0  0  0  0  0  0  0  0
   21.1573   17.6177   21.1001 H   0  0  0  0  0  0  0  0  0  0  0  0
   19.6728   19.0661   20.4705 C   0  0  0  0  0  0  0  0  0  0  0  0
   19.4792   18.5216   19.5361 H   0  0  0  0  0  0  0  0  0  0  0  0
   18.6991   19.4474   20.8048 H   0  0  0  0  0  0  0  0  0  0  0  0
   20.6197   20.2477   20.1688 C   0  0  0  0  0  0  0  0  0  0  0  0
   21.6086   19.8888   19.8553 H   0  0  0  0  0  0  0  0  0  0  0  0
   20.2131   20.8694   19.3608 H   0  0  0  0  0  0  0  0  0  0  0  0
   20.7487   20.8897   21.0493 H   0  0  0  0  0  0  0  0  0  0  0  0
  1  2  1  0  0  0  0
  1  3  2  0  0  0  0
  1  4  1  0  0  0  0
  4  5  1  0  0  0  0
  4  6  1  0  0  0  0
  4  7  1  0  0  0  0
  7  8  1  0  0  0  0
  7  9  1  0  0  0  0
  7 10  1  0  0  0  0
 10 11  1  0  0  0  0
 10 12  1  0  0  0  0
 10 13  1  0  0  0  0
 13 14  1  0  0  0  0
 13 15  1  0  0  0  0
 13 16  1  0  0  0  0
 16 17  1  0  0  0  0
 16 18  1  0  0  0  0
 16 19  1  0  0  0  0
 19 20  1  0  0  0  0
 19 21  1  0  0  0  0
 19 22  1  0  0  0  0
 22 23  1  0  0  0  0
 22 24  1  0  0  0  0
 22 25  1  0  0  0  0
M  END
> <VM2 Rank>
50

> <Conf_Id>
700

> <Probability>
0.22

> <Sum Probability>
95.87

> <Delta G>
2.780

> <G>
-5.183

> <E>
-30.048

> <-TS>
24.865

> <U+W>
-50.616

> <U>
8.474

> <W>
-59.089

> <W(PB)>
-61.530

> <W(SA)>
2.441

> <Valence>
9.080

> <Coulomb>
-1.772

> <VdW>
1.165

> <VdW6>
-9.830

> <VdW12>
10.996

> <Bond>
0.240

> <Angle>
3.225

> <Pdih>
5.615

> <Idih>
0.001

> <Tether>
0.000

$$$$
VeraChem MOL file


 25 24  0  0  0  0  0  0  0  0999 V2000     
   19.7188   19.3442   27.1604 C   0  0  0  0  0  0  0  0  0  0  0  0
   20.3208   19.0380   28.1707 O   0  5  0  0  0  0  0  0  0  0  0  0
   18.7919   20.1299   27.1412 O   0  0  0  0  0  0  0  0  0  0  0  0
   20.1660   18.7254   25.8410 C   0  0  0  0  0  0  0  0  0  0  0  0
   19.2771   18.6057   25.2112 H   0  0  0  0  0  0  0  0  0  0  0  0
   20.5562   17.7222   26.0494 H   0  0  0  0  0  0  0  0  0  0  0  0
   21.2383   19.5763   25.1125 C   0  0  0  0  0  0  0  0  0  0  0  0
   20.8242   20.5655   24.8765 H   0  0  0  0  0  0  0  0  0  0  0  0
   22.0744   19.7560   25.8024 H   0  0  0  0  0  0  0  0  0  0  0  0
   21.7940   18.9082   23.8293 C   0  0  0  0  0  0  0  0  0  0  0  0
   22.3174   17.9842   24.1102 H   0  0  0  0  0  0  0  0  0  0  0  0
   22.5565   19.5662   23.3908 H   0  0  0  0  0  0  0  0  0  0  0  0
   20.7405   18.5694   22.7441 C   0  0  0  0  0  0  0  0  0  0  0  0
   21.2620   18.0821   21.9107 H   0  0  0  0  0  0  0  0  0  0  0  0
   20.0277   17.8296   23.1306 H   0  0  0  0  0  0  0  0  0  0  0  0
   19.9747   19.8080   22.2171 C   0  0  0  0  0  0  0  0  0  0  0  0
   20.6881   20.5487   21.8312 H   0  0  0  0  0  0  0  0  0  0  0  0
   19.4443   20.2886   23.0493 H   0  0  0  0  0  0  0  0  0  0  0  0
   18.9364   19.4685   21.1222 C   0  0  0  0  0  0  0  0  0  0  0  0
   18.2284   18.7189   21.5019 H   0  0  0  0  0  0  0  0  0  0  0  0
   18.3466   20.3701   20.9061 H   0  0  0  0  0  0  0  0  0  0  0  0
   19.5716   18.9660   19.8074 C   0  0  0  0  0  0  0  0  0  0  0  0
   20.0716   17.9996   19.9463 H   0  0  0  0  0  0  0  0  0  0  0  0
   18.8019   18.8329   19.0362 H   0  0  0  0  0  0  0  0  0  0  0  0
   20.3093   19.6848   19.4276 H   0  0  0  0  0  0  0  0  0  0  0  0
  1  2  1  0  0  0  0
  1  3  2  0  0  0  0
  1  4  1  0  0  0  0
  4  5  1  0  0  0  0
  4  6  1  0  0  0  0
  4  7  1  0  0  0  0
  7  8  1  0  0  0  0
  7  9  1  0  0  0  0
  7 10  1  0  0  0  0
 10 11  1  0  0  0  0
 10 12  1  0  0  0  0
 10 13  1  0  0  0  0
 13 14  1  0  0  0  0
 13 15  1  0  0  0  0
 13 16  1  0  0  0  0
 16 17  1  0  0  0  0
 16 18  1  0  0  0  0
 16 19  1  0  0  0  0
 19 20  1  0  0  0  0
 19 21  1  0  0  0  0
 19 22  1  0  0  0  0
 22 23  1  0  0  0  0
 22 24  1  0  0  0  0
 22 25  1  0  0  0  0
M  END
> <VM2 Rank>
51

> <Conf_Id>
1264

> <Probability>
0.21

> <Sum Probability>
96.08

> <Delta G>
2.790

> <G>
-5.173

> <E>
-30.088

> <-TS>
24.915

> <U+W>
-50.655

> <U>
8.774

> <W>
-59.429

> <W(PB)>
-61.891

> <W(SA)>
2.462

> <Valence>
9.062

> <Coulomb>
-1.371

> <VdW>
1.082

> <VdW6>
-9.990

> <VdW12>
11.073

> <Bond>
0.239

> <Angle>
3.221

> <Pdih>
5.602

> <Idih>
0.001

> <Tether>
0.000

$$$$
VeraChem MOL file


 25 24  0  0  0  0  0  0  0  0999 V2000     
   20.5824   19.3992   27.1504 C   0  0  0  0  0  0  0  0  0  0  0  0
   21.4013   20.2962   27.1112 O   0  5  0  0  0  0  0  0  0  0  0  0
   20.0476   19.0204   28.1739 O   0  0  0  0  0  0  0  0  0  0  0  0
   20.1871   18.7268   25.8407 C   0  0  0  0  0  0  0  0  0  0  0  0
   19.9323   17.6824   26.0565 H   0  0  0  0  0  0  0  0  0  0  0  0
   21.0693   18.7200   25.1904 H   0  0  0  0  0  0  0  0  0  0  0  0
   18.9990   19.4337   25.1384 C   0  0  0  0  0  0  0  0  0  0  0  0
   18.1630   19.5067   25.8477 H   0  0  0  0  0  0  0  0  0  0  0  0
   19.2786   20.4670   24.8943 H   0  0  0  0  0  0  0  0  0  0  0  0
   18.5032   18.6986   23.8674 C   0  0  0  0  0  0  0  0  0  0  0  0
   17.6533   19.2538   23.4476 H   0  0  0  0  0  0  0  0  0  0  0  0
   18.1079   17.7159   24.1589 H   0  0  0  0  0  0  0  0  0  0  0  0
   19.5658   18.4947   22.7577 C   0  0  0  0  0  0  0  0  0  0  0  0
   20.3756   17.8520   23.1265 H   0  0  0  0  0  0  0  0  0  0  0  0
   19.0914   17.9438   21.9359 H   0  0  0  0  0  0  0  0  0  0  0  0
   20.1556   19.8197   22.2149 C   0  0  0  0  0  0  0  0  0  0  0  0
   20.6395   20.3652   23.0352 H   0  0  0  0  0  0  0  0  0  0  0  0
   19.3452   20.4630   21.8463 H   0  0  0  0  0  0  0  0  0  0  0  0
   21.2034   19.6132   21.0960 C   0  0  0  0  0  0  0  0  0  0  0  0
   21.6685   20.5821   20.8675 H   0  0  0  0  0  0  0  0  0  0  0  0
   22.0096   18.9605   21.4586 H   0  0  0  0  0  0  0  0  0  0  0  0
   20.6075   19.0316   19.7955 C   0  0  0  0  0  0  0  0  0  0  0  0
   19.7758   19.6500   19.4335 H   0  0  0  0  0  0  0  0  0  0  0  0
   21.3701   18.9960   19.0068 H   0  0  0  0  0  0  0  0  0  0  0  0
   20.2377   18.0096   19.9448 H   0  0  0  0  0  0  0  0  0  0  0  0
  1  2  1  0  0  0  0
  1  3  2  0  0  0  0
  1  4  1  0  0  0  0
  4  5  1  0  0  0  0
  4  6  1  0  0  0  0
  4  7  1  0  0  0  0
  7  8  1  0  0  0  0
  7  9  1  0  0  0  0
  7 10  1  0  0  0  0
 10 11  1  0  0  0  0
 10 12  1  0  0  0  0
 10 13  1  0  0  0  0
 13 14  1  0  0  0  0
 13 15  1  0  0  0  0
 13 16  1  0  0  0  0
 16 17  1  0  0  0  0
 16 18  1  0  0  0  0
 16 19  1  0  0  0  0
 19 20  1  0  0  0  0
 19 21  1  0  0  0  0
 19 22  1  0  0  0  0
 22 23  1  0  0  0  0
 22 24  1  0  0  0  0
 22 25  1  0  0  0  0
M  END
> <VM2 Rank>
52

> <Conf_Id>
740

> <Probability>
0.20

> <Sum Probability>
96.28

> <Delta G>
2.815

> <G>
-5.148

> <E>
-30.062

> <-TS>
24.914

> <U+W>
-50.630

> <U>
8.774

> <W>
-59.402

> <W(PB)>
-61.849

> <W(SA)>
2.447

> <Valence>
9.062

> <Coulomb>
-1.371

> <VdW>
1.083

> <VdW6>
-9.990

> <VdW12>
11.073

> <Bond>
0.239

> <Angle>
3.221

> <Pdih>
5.601

> <Idih>
0.001

> <Tether>
0.000

$$$$
VeraChem MOL file


 25 24  0  0  0  0  0  0  0  0999 V2000     
   19.7448   19.5474   27.0277 C   0  0  0  0  0  0  0  0  0  0  0  0
   20.4503   19.7385   27.9986 O   0  5  0  0  0  0  0  0  0  0  0  0
   18.6285   20.0117   26.9051 O   0  0  0  0  0  0  0  0  0  0  0  0
   20.2989   18.6943   25.8924 C   0  0  0  0  0  0  0  0  0  0  0  0
   19.4570   18.1669   25.4298 H   0  0  0  0  0  0  0  0  0  0  0  0
   20.9599   17.9353   26.3274 H   0  0  0  0  0  0  0  0  0  0  0  0
   21.0659   19.5289   24.8344 C   0  0  0  0  0  0  0  0  0  0  0  0
   20.3874   20.2670   24.3862 H   0  0  0  0  0  0  0  0  0  0  0  0
   21.8508   20.1066   25.3416 H   0  0  0  0  0  0  0  0  0  0  0  0
   21.7236   18.6682   23.7267 C   0  0  0  0  0  0  0  0  0  0  0  0
   22.4699   18.0071   24.1877 H   0  0  0  0  0  0  0  0  0  0  0  0
   22.2872   19.3267   23.0528 H   0  0  0  0  0  0  0  0  0  0  0  0
   20.7421   17.8013   22.8943 C   0  0  0  0  0  0  0  0  0  0  0  0
   21.3151   17.2620   22.1279 H   0  0  0  0  0  0  0  0  0  0  0  0
   20.3072   17.0260   23.5386 H   0  0  0  0  0  0  0  0  0  0  0  0
   19.5942   18.5800   22.2038 C   0  0  0  0  0  0  0  0  0  0  0  0
   18.9537   19.0524   22.9602 H   0  0  0  0  0  0  0  0  0  0  0  0
   18.9573   17.8591   21.6734 H   0  0  0  0  0  0  0  0  0  0  0  0
   20.0899   19.6449   21.1998 C   0  0  0  0  0  0  0  0  0  0  0  0
   20.6718   20.4145   21.7241 H   0  0  0  0  0  0  0  0  0  0  0  0
   20.7619   19.1783   20.4665 H   0  0  0  0  0  0  0  0  0  0  0  0
   18.9147   20.3188   20.4632 C   0  0  0  0  0  0  0  0  0  0  0  0
   18.3309   19.5815   19.8968 H   0  0  0  0  0  0  0  0  0  0  0  0
   18.2415   20.8174   21.1729 H   0  0  0  0  0  0  0  0  0  0  0  0
   19.2829   21.0743   19.7571 H   0  0  0  0  0  0  0  0  0  0  0  0
  1  2  1  0  0  0  0
  1  3  2  0  0  0  0
  1  4  1  0  0  0  0
  4  5  1  0  0  0  0
  4  6  1  0  0  0  0
  4  7  1  0  0  0  0
  7  8  1  0  0  0  0
  7  9  1  0  0  0  0
  7 10  1  0  0  0  0
 10 11  1  0  0  0  0
 10 12  1  0  0  0  0
 10 13  1  0  0  0  0
 13 14  1  0  0  0  0
 13 15  1  0  0  0  0
 13 16  1  0  0  0  0
 16 17  1  0  0  0  0
 16 18  1  0  0  0  0
 16 19  1  0  0  0  0
 19 20  1  0  0  0  0
 19 21  1  0  0  0  0
 19 22  1  0  0  0  0
 22 23  1  0  0  0  0
 22 24  1  0  0  0  0
 22 25  1  0  0  0  0
M  END
> <VM2 Rank>
53

> <Conf_Id>
1088

> <Probability>
0.20

> <Sum Probability>
96.49

> <Delta G>
2.824

> <G>
-5.139

> <E>
-30.316

> <-TS>
25.177

> <U+W>
-50.883

> <U>
8.897

> <W>
-59.781

> <W(PB)>
-62.194

> <W(SA)>
2.414

> <Valence>
8.932

> <Coulomb>
-0.846

> <VdW>
0.811

> <VdW6>
-10.411

> <VdW12>
11.222

> <Bond>
0.240

> <Angle>
3.240

> <Pdih>
5.452

> <Idih>
0.001

> <Tether>
0.000

$$$$
VeraChem MOL file


 25 24  0  0  0  0  0  0  0  0999 V2000     
   19.8268   19.4076   27.2706 C   0  0  0  0  0  0  0  0  0  0  0  0
   20.7397   19.6262   28.0424 O   0  5  0  0  0  0  0  0  0  0  0  0
   18.7174   19.8897   27.3861 O   0  0  0  0  0  0  0  0  0  0  0  0
   20.0937   18.4921   26.0811 C   0  0  0  0  0  0  0  0  0  0  0  0
   19.1633   17.9626   25.8432 H   0  0  0  0  0  0  0  0  0  0  0  0
   20.8269   17.7375   26.3899 H   0  0  0  0  0  0  0  0  0  0  0  0
   20.6053   19.2576   24.8360 C   0  0  0  0  0  0  0  0  0  0  0  0
   19.8646   20.0193   24.5584 H   0  0  0  0  0  0  0  0  0  0  0  0
   21.5321   19.7895   25.0915 H   0  0  0  0  0  0  0  0  0  0  0  0
   20.8609   18.3074   23.6434 C   0  0  0  0  0  0  0  0  0  0  0  0
   19.9262   17.8052   23.3613 H   0  0  0  0  0  0  0  0  0  0  0  0
   21.5497   17.5129   23.9608 H   0  0  0  0  0  0  0  0  0  0  0  0
   21.4711   19.0175   22.4090 C   0  0  0  0  0  0  0  0  0  0  0  0
   22.4497   19.4319   22.6867 H   0  0  0  0  0  0  0  0  0  0  0  0
   21.6758   18.2675   21.6338 H   0  0  0  0  0  0  0  0  0  0  0  0
   20.6061   20.1549   21.8038 C   0  0  0  0  0  0  0  0  0  0  0  0
   21.1299   20.5652   20.9299 H   0  0  0  0  0  0  0  0  0  0  0  0
   20.5379   20.9815   22.5230 H   0  0  0  0  0  0  0  0  0  0  0  0
   19.1759   19.7406   21.3784 C   0  0  0  0  0  0  0  0  0  0  0  0
   18.6023   19.4094   22.2542 H   0  0  0  0  0  0  0  0  0  0  0  0
   18.6550   20.6271   20.9915 H   0  0  0  0  0  0  0  0  0  0  0  0
   19.1562   18.6403   20.2953 C   0  0  0  0  0  0  0  0  0  0  0  0
   18.1275   18.4411   19.9685 H   0  0  0  0  0  0  0  0  0  0  0  0
   19.7383   18.9444   19.4158 H   0  0  0  0  0  0  0  0  0  0  0  0
   19.5728   17.6992   20.6758 H   0  0  0  0  0  0  0  0  0  0  0  0
  1  2  1  0  0  0  0
  1  3  2  0  0  0  0
  1  4  1  0  0  0  0
  4  5  1  0  0  0  0
  4  6  1  0  0  0  0
  4  7  1  0  0  0  0
  7  8  1  0  0  0  0
  7  9  1  0  0  0  0
  7 10  1  0  0  0  0
 10 11  1  0  0  0  0
 10 12  1  0  0  0  0
 10 13  1  0  0  0  0
 13 14  1  0  0  0  0
 13 15  1  0  0  0  0
 13 16  1  0  0  0  0
 16 17  1  0  0  0  0
 16 18  1  0  0  0  0
 16 19  1  0  0  0  0
 19 20  1  0  0  0  0
 19 21  1  0  0  0  0
 19 22  1  0  0  0  0
 22 23  1  0  0  0  0
 22 24  1  0  0  0  0
 22 25  1  0  0  0  0
M  END
> <VM2 Rank>
54

> <Conf_Id>
1190

> <Probability>
0.20

> <Sum Probability>
96.69

> <Delta G>
2.827

> <G>
-5.136

> <E>
-30.278

> <-TS>
25.143

> <U+W>
-50.846

> <U>
8.646

> <W>
-59.492

> <W(PB)>
-61.923

> <W(SA)>
2.431

> <Valence>
8.924

> <Coulomb>
-1.171

> <VdW>
0.894

> <VdW6>
-10.224

> <VdW12>
11.117

> <Bond>
0.231

> <Angle>
3.232

> <Pdih>
5.461

> <Idih>
0.001

> <Tether>
0.000

$$$$
VeraChem MOL file


 25 24  0  0  0  0  0  0  0  0999 V2000     
   20.2965   19.3760   27.4513 C   0  0  0  0  0  0  0  0  0  0  0  0
   21.4664   19.5122   27.7506 O   0  5  0  0  0  0  0  0  0  0  0  0
   19.4517   18.9506   28.2142 O   0  0  0  0  0  0  0  0  0  0  0  0
   19.8693   19.7369   26.0330 C   0  0  0  0  0  0  0  0  0  0  0  0
   20.4924   20.5749   25.7014 H   0  0  0  0  0  0  0  0  0  0  0  0
   18.8338   20.0955   26.0708 H   0  0  0  0  0  0  0  0  0  0  0  0
   19.9867   18.5430   25.0499 C   0  0  0  0  0  0  0  0  0  0  0  0
   21.0359   18.2239   24.9825 H   0  0  0  0  0  0  0  0  0  0  0  0
   19.4299   17.6912   25.4643 H   0  0  0  0  0  0  0  0  0  0  0  0
   19.4409   18.8480   23.6343 C   0  0  0  0  0  0  0  0  0  0  0  0
   18.3950   19.1760   23.7050 H   0  0  0  0  0  0  0  0  0  0  0  0
   19.4364   17.9103   23.0641 H   0  0  0  0  0  0  0  0  0  0  0  0
   20.2713   19.9079   22.8696 C   0  0  0  0  0  0  0  0  0  0  0  0
   20.2842   20.8441   23.4416 H   0  0  0  0  0  0  0  0  0  0  0  0
   21.3165   19.5800   22.7984 H   0  0  0  0  0  0  0  0  0  0  0  0
   19.7187   20.2249   21.4565 C   0  0  0  0  0  0  0  0  0  0  0  0
   20.3256   21.0271   21.0150 H   0  0  0  0  0  0  0  0  0  0  0  0
   18.7037   20.6332   21.5553 H   0  0  0  0  0  0  0  0  0  0  0  0
   19.6818   19.0301   20.4714 C   0  0  0  0  0  0  0  0  0  0  0  0
   18.9891   18.2596   20.8344 H   0  0  0  0  0  0  0  0  0  0  0  0
   19.2702   19.3796   19.5146 H   0  0  0  0  0  0  0  0  0  0  0  0
   21.0698   18.4042   20.2151 C   0  0  0  0  0  0  0  0  0  0  0  0
   21.4695   17.9359   21.1234 H   0  0  0  0  0  0  0  0  0  0  0  0
   21.0044   17.6278   19.4420 H   0  0  0  0  0  0  0  0  0  0  0  0
   21.7860   19.1628   19.8738 H   0  0  0  0  0  0  0  0  0  0  0  0
  1  2  1  0  0  0  0
  1  3  2  0  0  0  0
  1  4  1  0  0  0  0
  4  5  1  0  0  0  0
  4  6  1  0  0  0  0
  4  7  1  0  0  0  0
  7  8  1  0  0  0  0
  7  9  1  0  0  0  0
  7 10  1  0  0  0  0
 10 11  1  0  0  0  0
 10 12  1  0  0  0  0
 10 13  1  0  0  0  0
 13 14  1  0  0  0  0
 13 15  1  0  0  0  0
 13 16  1  0  0  0  0
 16 17  1  0  0  0  0
 16 18  1  0  0  0  0
 16 19  1  0  0  0  0
 19 20  1  0  0  0  0
 19 21  1  0  0  0  0
 19 22  1  0  0  0  0
 22 23  1  0  0  0  0
 22 24  1  0  0  0  0
 22 25  1  0  0  0  0
M  END
> <VM2 Rank>
55

> <Conf_Id>
260

> <Probability>
0.20

> <Sum Probability>
96.88

> <Delta G>
2.830

> <G>
-5.132

> <E>
-29.998

> <-TS>
24.865

> <U+W>
-50.565

> <U>
8.474

> <W>
-59.039

> <W(PB)>
-61.492

> <W(SA)>
2.453

> <Valence>
9.080

> <Coulomb>
-1.772

> <VdW>
1.165

> <VdW6>
-9.830

> <VdW12>
10.996

> <Bond>
0.240

> <Angle>
3.225

> <Pdih>
5.614

> <Idih>
0.001

> <Tether>
0.000

$$$$
VeraChem MOL file


 25 24  0  0  0  0  0  0  0  0999 V2000     
   20.4697   19.4486   27.2632 C   0  0  0  0  0  0  0  0  0  0  0  0
   21.5113   20.0680   27.3537 O   0  5  0  0  0  0  0  0  0  0  0  0
   19.5547   19.5505   28.0563 O   0  0  0  0  0  0  0  0  0  0  0  0
   20.2939   18.5049   26.0788 C   0  0  0  0  0  0  0  0  0  0  0  0
   19.6697   17.6637   26.4033 H   0  0  0  0  0  0  0  0  0  0  0  0
   21.2782   18.0974   25.8188 H   0  0  0  0  0  0  0  0  0  0  0  0
   19.6608   19.1974   24.8470 C   0  0  0  0  0  0  0  0  0  0  0  0
   18.6800   19.6077   25.1245 H   0  0  0  0  0  0  0  0  0  0  0  0
   20.2921   20.0466   24.5536 H   0  0  0  0  0  0  0  0  0  0  0  0
   19.5005   18.2208   23.6591 C   0  0  0  0  0  0  0  0  0  0  0  0
   18.9256   17.3456   23.9911 H   0  0  0  0  0  0  0  0  0  0  0  0
   20.4847   17.8408   23.3549 H   0  0  0  0  0  0  0  0  0  0  0  0
   18.7769   18.8459   22.4401 C   0  0  0  0  0  0  0  0  0  0  0  0
   18.6512   18.0748   21.6687 H   0  0  0  0  0  0  0  0  0  0  0  0
   17.7603   19.1331   22.7409 H   0  0  0  0  0  0  0  0  0  0  0  0
   19.4763   20.0829   21.8169 C   0  0  0  0  0  0  0  0  0  0  0  0
   19.4557   20.9125   22.5356 H   0  0  0  0  0  0  0  0  0  0  0  0
   18.8847   20.4223   20.9559 H   0  0  0  0  0  0  0  0  0  0  0  0
   20.9373   19.8528   21.3579 C   0  0  0  0  0  0  0  0  0  0  0  0
   21.3325   20.7976   20.9604 H   0  0  0  0  0  0  0  0  0  0  0  0
   21.5685   19.5983   22.2197 H   0  0  0  0  0  0  0  0  0  0  0  0
   21.0715   18.7623   20.2731 C   0  0  0  0  0  0  0  0  0  0  0  0
   20.4352   18.9888   19.4077 H   0  0  0  0  0  0  0  0  0  0  0  0
   22.1093   18.6948   19.9222 H   0  0  0  0  0  0  0  0  0  0  0  0
   20.7866   17.7765   20.6617 H   0  0  0  0  0  0  0  0  0  0  0  0
  1  2  1  0  0  0  0
  1  3  2  0  0  0  0
  1  4  1  0  0  0  0
  4  5  1  0  0  0  0
  4  6  1  0  0  0  0
  4  7  1  0  0  0  0
  7  8  1  0  0  0  0
  7  9  1  0  0  0  0
  7 10  1  0  0  0  0
 10 11  1  0  0  0  0
 10 12  1  0  0  0  0
 10 13  1  0  0  0  0
 13 14  1  0  0  0  0
 13 15  1  0  0  0  0
 13 16  1  0  0  0  0
 16 17  1  0  0  0  0
 16 18  1  0  0  0  0
 16 19  1  0  0  0  0
 19 20  1  0  0  0  0
 19 21  1  0  0  0  0
 19 22  1  0  0  0  0
 22 23  1  0  0  0  0
 22 24  1  0  0  0  0
 22 25  1  0  0  0  0
M  END
> <VM2 Rank>
56

> <Conf_Id>
892

> <Probability>
0.18

> <Sum Probability>
97.06

> <Delta G>
2.893

> <G>
-5.069

> <E>
-30.212

> <-TS>
25.143

> <U+W>
-50.779

> <U>
8.646

> <W>
-59.426

> <W(PB)>
-61.868

> <W(SA)>
2.442

> <Valence>
8.924

> <Coulomb>
-1.171

> <VdW>
0.894

> <VdW6>
-10.223

> <VdW12>
11.117

> <Bond>
0.231

> <Angle>
3.232

> <Pdih>
5.461

> <Idih>
0.001

> <Tether>
0.000

$$$$
VeraChem MOL file


 25 24  0  0  0  0  0  0  0  0999 V2000     
   20.0081   19.4682   27.1975 C   0  0  0  0  0  0  0  0  0  0  0  0
   21.0443   19.9603   27.5991 O   0  5  0  0  0  0  0  0  0  0  0  0
   18.9141   19.9681   27.3717 O   0  0  0  0  0  0  0  0  0  0  0  0
   20.0805   18.1391   26.4511 C   0  0  0  0  0  0  0  0  0  0  0  0
   19.2932   17.4921   26.8554 H   0  0  0  0  0  0  0  0  0  0  0  0
   21.0379   17.6580   26.6849 H   0  0  0  0  0  0  0  0  0  0  0  0
   19.9063   18.2695   24.9157 C   0  0  0  0  0  0  0  0  0  0  0  0
   19.8402   17.2647   24.4772 H   0  0  0  0  0  0  0  0  0  0  0  0
   18.9518   18.7707   24.7070 H   0  0  0  0  0  0  0  0  0  0  0  0
   21.0714   19.0411   24.2509 C   0  0  0  0  0  0  0  0  0  0  0  0
   22.0220   18.5735   24.5418 H   0  0  0  0  0  0  0  0  0  0  0  0
   21.1036   20.0706   24.6335 H   0  0  0  0  0  0  0  0  0  0  0  0
   20.9885   19.0675   22.7062 C   0  0  0  0  0  0  0  0  0  0  0  0
   21.9032   19.5339   22.3158 H   0  0  0  0  0  0  0  0  0  0  0  0
   20.9773   18.0370   22.3275 H   0  0  0  0  0  0  0  0  0  0  0  0
   19.7596   19.8426   22.1711 C   0  0  0  0  0  0  0  0  0  0  0  0
   19.7185   20.8274   22.6562 H   0  0  0  0  0  0  0  0  0  0  0  0
   18.8348   19.3193   22.4470 H   0  0  0  0  0  0  0  0  0  0  0  0
   19.7867   20.0491   20.6387 C   0  0  0  0  0  0  0  0  0  0  0  0
   18.9437   20.6940   20.3546 H   0  0  0  0  0  0  0  0  0  0  0  0
   20.7001   20.5888   20.3529 H   0  0  0  0  0  0  0  0  0  0  0  0
   19.6935   18.7285   19.8440 C   0  0  0  0  0  0  0  0  0  0  0  0
   18.8007   18.1587   20.1325 H   0  0  0  0  0  0  0  0  0  0  0  0
   19.6315   18.9319   18.7671 H   0  0  0  0  0  0  0  0  0  0  0  0
   20.5746   18.0969   20.0128 H   0  0  0  0  0  0  0  0  0  0  0  0
  1  2  1  0  0  0  0
  1  3  2  0  0  0  0
  1  4  1  0  0  0  0
  4  5  1  0  0  0  0
  4  6  1  0  0  0  0
  4  7  1  0  0  0  0
  7  8  1  0  0  0  0
  7  9  1  0  0  0  0
  7 10  1  0  0  0  0
 10 11  1  0  0  0  0
 10 12  1  0  0  0  0
 10 13  1  0  0  0  0
 13 14  1  0  0  0  0
 13 15  1  0  0  0  0
 13 16  1  0  0  0  0
 16 17  1  0  0  0  0
 16 18  1  0  0  0  0
 16 19  1  0  0  0  0
 19 20  1  0  0  0  0
 19 21  1  0  0  0  0
 19 22  1  0  0  0  0
 22 23  1  0  0  0  0
 22 24  1  0  0  0  0
 22 25  1  0  0  0  0
M  END
> <VM2 Rank>
57

> <Conf_Id>
782

> <Probability>
0.11

> <Sum Probability>
97.17

> <Delta G>
3.194

> <G>
-4.768

> <E>
-29.716

> <-TS>
24.948

> <U+W>
-50.284

> <U>
9.530

> <W>
-59.814

> <W(PB)>
-62.279

> <W(SA)>
2.465

> <Valence>
8.779

> <Coulomb>
-0.179

> <VdW>
0.930

> <VdW6>
-9.874

> <VdW12>
10.804

> <Bond>
0.204

> <Angle>
2.848

> <Pdih>
5.726

> <Idih>
0.001

> <Tether>
0.000

$$$$
VeraChem MOL file


 25 24  0  0  0  0  0  0  0  0999 V2000     
   20.0301   19.1912   27.3199 C   0  0  0  0  0  0  0  0  0  0  0  0
   21.0719   18.7173   27.7285 O   0  5  0  0  0  0  0  0  0  0  0  0
   18.9323   18.7877   27.6505 O   0  0  0  0  0  0  0  0  0  0  0  0
   20.1016   20.3695   26.3527 C   0  0  0  0  0  0  0  0  0  0  0  0
   21.0983   20.8216   26.4240 H   0  0  0  0  0  0  0  0  0  0  0  0
   19.3857   21.1229   26.7017 H   0  0  0  0  0  0  0  0  0  0  0  0
   19.7860   19.9987   24.8802 C   0  0  0  0  0  0  0  0  0  0  0  0
   18.8026   19.5110   24.8304 H   0  0  0  0  0  0  0  0  0  0  0  0
   19.7103   20.9251   24.2967 H   0  0  0  0  0  0  0  0  0  0  0  0
   20.8610   19.0767   24.2562 C   0  0  0  0  0  0  0  0  0  0  0  0
   20.9708   18.1776   24.8780 H   0  0  0  0  0  0  0  0  0  0  0  0
   21.8361   19.5824   24.2695 H   0  0  0  0  0  0  0  0  0  0  0  0
   20.5268   18.6318   22.8124 C   0  0  0  0  0  0  0  0  0  0  0  0
   21.2745   17.8930   22.4939 H   0  0  0  0  0  0  0  0  0  0  0  0
   19.5575   18.1162   22.8094 H   0  0  0  0  0  0  0  0  0  0  0  0
   20.5093   19.8003   21.7965 C   0  0  0  0  0  0  0  0  0  0  0  0
   21.4357   20.3809   21.9023 H   0  0  0  0  0  0  0  0  0  0  0  0
   19.6825   20.4855   22.0242 H   0  0  0  0  0  0  0  0  0  0  0  0
   20.3874   19.3313   20.3279 C   0  0  0  0  0  0  0  0  0  0  0  0
   20.4891   20.2046   19.6689 H   0  0  0  0  0  0  0  0  0  0  0  0
   21.2210   18.6589   20.0824 H   0  0  0  0  0  0  0  0  0  0  0  0
   19.0465   18.6295   20.0214 C   0  0  0  0  0  0  0  0  0  0  0  0
   18.1972   19.2736   20.2838 H   0  0  0  0  0  0  0  0  0  0  0  0
   18.9730   18.3917   18.9524 H   0  0  0  0  0  0  0  0  0  0  0  0
   18.9506   17.6892   20.5785 H   0  0  0  0  0  0  0  0  0  0  0  0
  1  2  1  0  0  0  0
  1  3  2  0  0  0  0
  1  4  1  0  0  0  0
  4  5  1  0  0  0  0
  4  6  1  0  0  0  0
  4  7  1  0  0  0  0
  7  8  1  0  0  0  0
  7  9  1  0  0  0  0
  7 10  1  0  0  0  0
 10 11  1  0  0  0  0
 10 12  1  0  0  0  0
 10 13  1  0  0  0  0
 13 14  1  0  0  0  0
 13 15  1  0  0  0  0
 13 16  1  0  0  0  0
 16 17  1  0  0  0  0
 16 18  1  0  0  0  0
 16 19  1  0  0  0  0
 19 20  1  0  0  0  0
 19 21  1  0  0  0  0
 19 22  1  0  0  0  0
 22 23  1  0  0  0  0
 22 24  1  0  0  0  0
 22 25  1  0  0  0  0
M  END
> <VM2 Rank>
58

> <Conf_Id>
88

> <Probability>
0.10

> <Sum Probability>
97.28

> <Delta G>
3.213

> <G>
-4.750

> <E>
-29.708

> <-TS>
24.958

> <U+W>
-50.276

> <U>
9.318

> <W>
-59.594

> <W(PB)>
-62.048

> <W(SA)>
2.454

> <Valence>
8.828

> <Coulomb>
-0.523

> <VdW>
1.014

> <VdW6>
-9.806

> <VdW12>
10.819

> <Bond>
0.208

> <Angle>
2.883

> <Pdih>
5.736

> <Idih>
0.001

> <Tether>
0.000

$$$$
VeraChem MOL file


 25 24  0  0  0  0  0  0  0  0999 V2000     
   20.0303   19.4114   27.3163 C   0  0  0  0  0  0  0  0  0  0  0  0
   21.0736   19.8950   27.7098 O   0  5  0  0  0  0  0  0  0  0  0  0
   18.9338   19.8281   27.6341 O   0  0  0  0  0  0  0  0  0  0  0  0
   20.0985   18.2026   26.3871 C   0  0  0  0  0  0  0  0  0  0  0  0
   19.3804   17.4628   26.7598 H   0  0  0  0  0  0  0  0  0  0  0  0
   21.0939   17.7502   26.4729 H   0  0  0  0  0  0  0  0  0  0  0  0
   19.7839   18.5274   24.9035 C   0  0  0  0  0  0  0  0  0  0  0  0
   19.7056   17.5831   24.3498 H   0  0  0  0  0  0  0  0  0  0  0  0
   18.8019   19.0161   24.8382 H   0  0  0  0  0  0  0  0  0  0  0  0
   20.8616   19.4261   24.2506 C   0  0  0  0  0  0  0  0  0  0  0  0
   21.8352   18.9182   24.2801 H   0  0  0  0  0  0  0  0  0  0  0  0
   20.9740   20.3441   24.8436 H   0  0  0  0  0  0  0  0  0  0  0  0
   20.5286   19.8258   22.7934 C   0  0  0  0  0  0  0  0  0  0  0  0
   19.5608   20.3439   22.7740 H   0  0  0  0  0  0  0  0  0  0  0  0
   21.2784   20.5521   22.4517 H   0  0  0  0  0  0  0  0  0  0  0  0
   20.5077   18.6258   21.8151 C   0  0  0  0  0  0  0  0  0  0  0  0
   19.6790   17.9505   22.0644 H   0  0  0  0  0  0  0  0  0  0  0  0
   21.4325   18.0462   21.9393 H   0  0  0  0  0  0  0  0  0  0  0  0
   20.3870   19.0483   20.3323 C   0  0  0  0  0  0  0  0  0  0  0  0
   21.2224   19.7104   20.0657 H   0  0  0  0  0  0  0  0  0  0  0  0
   20.4863   18.1543   19.7014 H   0  0  0  0  0  0  0  0  0  0  0  0
   19.0480   19.7436   20.0038 C   0  0  0  0  0  0  0  0  0  0  0  0
   18.9751   19.9476   18.9277 H   0  0  0  0  0  0  0  0  0  0  0  0
   18.1969   19.1104   20.2863 H   0  0  0  0  0  0  0  0  0  0  0  0
   18.9546   20.7014   20.5308 H   0  0  0  0  0  0  0  0  0  0  0  0
  1  2  1  0  0  0  0
  1  3  2  0  0  0  0
  1  4  1  0  0  0  0
  4  5  1  0  0  0  0
  4  6  1  0  0  0  0
  4  7  1  0  0  0  0
  7  8  1  0  0  0  0
  7  9  1  0  0  0  0
  7 10  1  0  0  0  0
 10 11  1  0  0  0  0
 10 12  1  0  0  0  0
 10 13  1  0  0  0  0
 13 14  1  0  0  0  0
 13 15  1  0  0  0  0
 13 16  1  0  0  0  0
 16 17  1  0  0  0  0
 16 18  1  0  0  0  0
 16 19  1  0  0  0  0
 19 20  1  0  0  0  0
 19 21  1  0  0  0  0
 19 22  1  0  0  0  0
 22 23  1  0  0  0  0
 22 24  1  0  0  0  0
 22 25  1  0  0  0  0
M  END
> <VM2 Rank>
59

> <Conf_Id>
279

> <Probability>
0.10

> <Sum Probability>
97.38

> <Delta G>
3.221

> <G>
-4.741

> <E>
-29.700

> <-TS>
24.959

> <U+W>
-50.268

> <U>
9.318

> <W>
-59.585

> <W(PB)>
-62.043

> <W(SA)>
2.458

> <Valence>
8.828

> <Coulomb>
-0.524

> <VdW>
1.014

> <VdW6>
-9.805

> <VdW12>
10.819

> <Bond>
0.208

> <Angle>
2.883

> <Pdih>
5.736

> <Idih>
0.000

> <Tether>
0.000

$$$$
VeraChem MOL file


 25 24  0  0  0  0  0  0  0  0999 V2000     
   20.1300   19.6131   27.1786 C   0  0  0  0  0  0  0  0  0  0  0  0
   21.2438   20.0167   27.4497 O   0  5  0  0  0  0  0  0  0  0  0  0
   19.1163   20.2553   27.3713 O   0  0  0  0  0  0  0  0  0  0  0  0
   19.9926   18.2151   26.5822 C   0  0  0  0  0  0  0  0  0  0  0  0
   19.1740   17.7119   27.1102 H   0  0  0  0  0  0  0  0  0  0  0  0
   20.9065   17.6498   26.8014 H   0  0  0  0  0  0  0  0  0  0  0  0
   19.7087   18.2066   25.0577 C   0  0  0  0  0  0  0  0  0  0  0  0
   19.4968   17.1767   24.7401 H   0  0  0  0  0  0  0  0  0  0  0  0
   18.8011   18.7926   24.8627 H   0  0  0  0  0  0  0  0  0  0  0  0
   20.8940   18.7623   24.2321 C   0  0  0  0  0  0  0  0  0  0  0  0
   21.8080   18.2220   24.5143 H   0  0  0  0  0  0  0  0  0  0  0  0
   21.0669   19.8165   24.4891 H   0  0  0  0  0  0  0  0  0  0  0  0
   20.6994   18.6297   22.7027 C   0  0  0  0  0  0  0  0  0  0  0  0
   21.6419   18.9108   22.2159 H   0  0  0  0  0  0  0  0  0  0  0  0
   20.5171   17.5777   22.4444 H   0  0  0  0  0  0  0  0  0  0  0  0
   19.5526   19.5107   22.1486 C   0  0  0  0  0  0  0  0  0  0  0  0
   19.7336   20.5621   22.4102 H   0  0  0  0  0  0  0  0  0  0  0  0
   18.6086   19.2278   22.6313 H   0  0  0  0  0  0  0  0  0  0  0  0
   19.3639   19.3833   20.6187 C   0  0  0  0  0  0  0  0  0  0  0  0
   19.1938   18.3310   20.3520 H   0  0  0  0  0  0  0  0  0  0  0  0
   18.4535   19.9269   20.3306 H   0  0  0  0  0  0  0  0  0  0  0  0
   20.5516   19.9412   19.8045 C   0  0  0  0  0  0  0  0  0  0  0  0
   21.4621   19.3510   19.9659 H   0  0  0  0  0  0  0  0  0  0  0  0
   20.3261   19.9151   18.7305 H   0  0  0  0  0  0  0  0  0  0  0  0
   20.7622   20.9828   20.0800 H   0  0  0  0  0  0  0  0  0  0  0  0
  1  2  1  0  0  0  0
  1  3  2  0  0  0  0
  1  4  1  0  0  0  0
  4  5  1  0  0  0  0
  4  6  1  0  0  0  0
  4  7  1  0  0  0  0
  7  8  1  0  0  0  0
  7  9  1  0  0  0  0
  7 10  1  0  0  0  0
 10 11  1  0  0  0  0
 10 12  1  0  0  0  0
 10 13  1  0  0  0  0
 13 14  1  0  0  0  0
 13 15  1  0  0  0  0
 13 16  1  0  0  0  0
 16 17  1  0  0  0  0
 16 18  1  0  0  0  0
 16 19  1  0  0  0  0
 19 20  1  0  0  0  0
 19 21  1  0  0  0  0
 19 22  1  0  0  0  0
 22 23  1  0  0  0  0
 22 24  1  0  0  0  0
 22 25  1  0  0  0  0
M  END
> <VM2 Rank>
60

> <Conf_Id>
163

> <Probability>
0.10

> <Sum Probability>
97.48

> <Delta G>
3.222

> <G>
-4.741

> <E>
-29.609

> <-TS>
24.868

> <U+W>
-50.176

> <U>
9.764

> <W>
-59.940

> <W(PB)>
-62.392

> <W(SA)>
2.452

> <Valence>
8.882

> <Coulomb>
-0.122

> <VdW>
1.003

> <VdW6>
-9.782

> <VdW12>
10.785

> <Bond>
0.212

> <Angle>
2.941

> <Pdih>
5.730

> <Idih>
0.001

> <Tether>
0.000

$$$$
VeraChem MOL file


 25 24  0  0  0  0  0  0  0  0999 V2000     
   20.2806   19.4857   27.1943 C   0  0  0  0  0  0  0  0  0  0  0  0
   21.3061   20.1207   27.3439 O   0  5  0  0  0  0  0  0  0  0  0  0
   19.1999   19.8429   27.6203 O   0  0  0  0  0  0  0  0  0  0  0  0
   20.3604   18.1570   26.4479 C   0  0  0  0  0  0  0  0  0  0  0  0
   19.4775   17.5585   26.7031 H   0  0  0  0  0  0  0  0  0  0  0  0
   21.2327   17.6158   26.8331 H   0  0  0  0  0  0  0  0  0  0  0  0
   20.4812   18.3061   24.9090 C   0  0  0  0  0  0  0  0  0  0  0  0
   21.3592   18.9242   24.6792 H   0  0  0  0  0  0  0  0  0  0  0  0
   20.6645   17.3171   24.4678 H   0  0  0  0  0  0  0  0  0  0  0  0
   19.2124   18.9221   24.2724 C   0  0  0  0  0  0  0  0  0  0  0  0
   19.0583   19.9396   24.6571 H   0  0  0  0  0  0  0  0  0  0  0  0
   18.3360   18.3378   24.5843 H   0  0  0  0  0  0  0  0  0  0  0  0
   19.2559   18.9566   22.7262 C   0  0  0  0  0  0  0  0  0  0  0  0
   19.3897   17.9355   22.3458 H   0  0  0  0  0  0  0  0  0  0  0  0
   18.2806   19.3021   22.3576 H   0  0  0  0  0  0  0  0  0  0  0  0
   20.3634   19.8813   22.1642 C   0  0  0  0  0  0  0  0  0  0  0  0
   21.3534   19.4806   22.4182 H   0  0  0  0  0  0  0  0  0  0  0  0
   20.2898   20.8640   22.6497 H   0  0  0  0  0  0  0  0  0  0  0  0
   20.2752   20.0804   20.6332 C   0  0  0  0  0  0  0  0  0  0  0  0
   19.2941   20.4987   20.3691 H   0  0  0  0  0  0  0  0  0  0  0  0
   21.0223   20.8272   20.3308 H   0  0  0  0  0  0  0  0  0  0  0  0
   20.5178   18.7813   19.8346 C   0  0  0  0  0  0  0  0  0  0  0  0
   21.4824   18.3304   20.1018 H   0  0  0  0  0  0  0  0  0  0  0  0
   19.7285   18.0427   20.0226 H   0  0  0  0  0  0  0  0  0  0  0  0
   20.5287   18.9893   18.7569 H   0  0  0  0  0  0  0  0  0  0  0  0
  1  2  1  0  0  0  0
  1  3  2  0  0  0  0
  1  4  1  0  0  0  0
  4  5  1  0  0  0  0
  4  6  1  0  0  0  0
  4  7  1  0  0  0  0
  7  8  1  0  0  0  0
  7  9  1  0  0  0  0
  7 10  1  0  0  0  0
 10 11  1  0  0  0  0
 10 12  1  0  0  0  0
 10 13  1  0  0  0  0
 13 14  1  0  0  0  0
 13 15  1  0  0  0  0
 13 16  1  0  0  0  0
 16 17  1  0  0  0  0
 16 18  1  0  0  0  0
 16 19  1  0  0  0  0
 19 20  1  0  0  0  0
 19 21  1  0  0  0  0
 19 22  1  0  0  0  0
 22 23  1  0  0  0  0
 22 24  1  0  0  0  0
 22 25  1  0  0  0  0
M  END
> <VM2 Rank>
61

> <Conf_Id>
1254

> <Probability>
0.10

> <Sum Probability>
97.58

> <Delta G>
3.239

> <G>
-4.723

> <E>
-29.671

> <-TS>
24.948

> <U+W>
-50.239

> <U>
9.530

> <W>
-59.769

> <W(PB)>
-62.236

> <W(SA)>
2.468

> <Valence>
8.779

> <Coulomb>
-0.179

> <VdW>
0.930

> <VdW6>
-9.873

> <VdW12>
10.803

> <Bond>
0.204

> <Angle>
2.848

> <Pdih>
5.727

> <Idih>
0.001

> <Tether>
0.000

$$$$
VeraChem MOL file


 25 24  0  0  0  0  0  0  0  0999 V2000     
   20.1410   19.6139   27.1785 C   0  0  0  0  0  0  0  0  0  0  0  0
   21.0693   20.3795   27.3490 O   0  5  0  0  0  0  0  0  0  0  0  0
   18.9915   19.8735   27.4755 O   0  0  0  0  0  0  0  0  0  0  0  0
   20.4406   18.2437   26.5771 C   0  0  0  0  0  0  0  0  0  0  0  0
   19.6110   17.5674   26.8163 H   0  0  0  0  0  0  0  0  0  0  0  0
   21.3283   17.8490   27.0853 H   0  0  0  0  0  0  0  0  0  0  0  0
   20.6882   18.2689   25.0464 C   0  0  0  0  0  0  0  0  0  0  0  0
   21.5095   18.9651   24.8314 H   0  0  0  0  0  0  0  0  0  0  0  0
   21.0216   17.2738   24.7226 H   0  0  0  0  0  0  0  0  0  0  0  0
   19.4234   18.6687   24.2491 C   0  0  0  0  0  0  0  0  0  0  0  0
   19.1242   19.6929   24.5114 H   0  0  0  0  0  0  0  0  0  0  0  0
   18.5920   18.0174   24.5515 H   0  0  0  0  0  0  0  0  0  0  0  0
   19.5979   18.5595   22.7154 C   0  0  0  0  0  0  0  0  0  0  0  0
   19.9060   17.5387   22.4515 H   0  0  0  0  0  0  0  0  0  0  0  0
   18.6165   18.7182   22.2508 H   0  0  0  0  0  0  0  0  0  0  0  0
   20.6109   19.5778   22.1363 C   0  0  0  0  0  0  0  0  0  0  0  0
   21.5940   19.4173   22.5966 H   0  0  0  0  0  0  0  0  0  0  0  0
   20.3043   20.5982   22.4036 H   0  0  0  0  0  0  0  0  0  0  0  0
   20.7787   19.4731   20.6022 C   0  0  0  0  0  0  0  0  0  0  0  0
   21.6062   20.1270   20.2941 H   0  0  0  0  0  0  0  0  0  0  0  0
   21.0742   18.4504   20.3301 H   0  0  0  0  0  0  0  0  0  0  0  0
   19.5115   19.8754   19.8166 C   0  0  0  0  0  0  0  0  0  0  0  0
   19.1775   20.8824   20.0985 H   0  0  0  0  0  0  0  0  0  0  0  0
   19.7136   19.8765   18.7377 H   0  0  0  0  0  0  0  0  0  0  0  0
   18.6869   19.1752   19.9982 H   0  0  0  0  0  0  0  0  0  0  0  0
  1  2  1  0  0  0  0
  1  3  2  0  0  0  0
  1  4  1  0  0  0  0
  4  5  1  0  0  0  0
  4  6  1  0  0  0  0
  4  7  1  0  0  0  0
  7  8  1  0  0  0  0
  7  9  1  0  0  0  0
  7 10  1  0  0  0  0
 10 11  1  0  0  0  0
 10 12  1  0  0  0  0
 10 13  1  0  0  0  0
 13 14  1  0  0  0  0
 13 15  1  0  0  0  0
 13 16  1  0  0  0  0
 16 17  1  0  0  0  0
 16 18  1  0  0  0  0
 16 19  1  0  0  0  0
 19 20  1  0  0  0  0
 19 21  1  0  0  0  0
 19 22  1  0  0  0  0
 22 23  1  0  0  0  0
 22 24  1  0  0  0  0
 22 25  1  0  0  0  0
M  END
> <VM2 Rank>
62

> <Conf_Id>
1091

> <Probability>
0.10

> <Sum Probability>
97.68

> <Delta G>
3.247

> <G>
-4.715

> <E>
-29.583

> <-TS>
24.867

> <U+W>
-50.150

> <U>
9.763

> <W>
-59.914

> <W(PB)>
-62.382

> <W(SA)>
2.468

> <Valence>
8.883

> <Coulomb>
-0.122

> <VdW>
1.003

> <VdW6>
-9.782

> <VdW12>
10.785

> <Bond>
0.212

> <Angle>
2.941

> <Pdih>
5.730

> <Idih>
0.001

> <Tether>
0.000

$$$$
VeraChem MOL file


 25 24  0  0  0  0  0  0  0  0999 V2000     
   20.2005   19.1782   27.3626 C   0  0  0  0  0  0  0  0  0  0  0  0
   21.3179   19.4048   27.7835 O   0  5  0  0  0  0  0  0  0  0  0  0
   19.5563   18.1920   27.6619 O   0  0  0  0  0  0  0  0  0  0  0  0
   19.5663   20.1981   26.4209 C   0  0  0  0  0  0  0  0  0  0  0  0
   19.7352   21.1913   26.8533 H   0  0  0  0  0  0  0  0  0  0  0  0
   18.4815   20.0373   26.4091 H   0  0  0  0  0  0  0  0  0  0  0  0
   20.1290   20.1602   24.9761 C   0  0  0  0  0  0  0  0  0  0  0  0
   19.7301   21.0218   24.4263 H   0  0  0  0  0  0  0  0  0  0  0  0
   21.2207   20.2813   25.0077 H   0  0  0  0  0  0  0  0  0  0  0  0
   19.7674   18.8519   24.2321 C   0  0  0  0  0  0  0  0  0  0  0  0
   18.6755   18.7546   24.1611 H   0  0  0  0  0  0  0  0  0  0  0  0
   20.1157   17.9944   24.8240 H   0  0  0  0  0  0  0  0  0  0  0  0
   20.3904   18.7498   22.8192 C   0  0  0  0  0  0  0  0  0  0  0  0
   21.4804   18.8665   22.8887 H   0  0  0  0  0  0  0  0  0  0  0  0
   20.2097   17.7351   22.4427 H   0  0  0  0  0  0  0  0  0  0  0  0
   19.8167   19.7793   21.8142 C   0  0  0  0  0  0  0  0  0  0  0  0
   20.0021   20.7951   22.1850 H   0  0  0  0  0  0  0  0  0  0  0  0
   18.7261   19.6651   21.7486 H   0  0  0  0  0  0  0  0  0  0  0  0
   20.4341   19.6673   20.4005 C   0  0  0  0  0  0  0  0  0  0  0  0
   20.0790   20.5121   19.7943 H   0  0  0  0  0  0  0  0  0  0  0  0
   21.5264   19.7688   20.4634 H   0  0  0  0  0  0  0  0  0  0  0  0
   20.0744   18.3524   19.6749 C   0  0  0  0  0  0  0  0  0  0  0  0
   18.9864   18.2127   19.6311 H   0  0  0  0  0  0  0  0  0  0  0  0
   20.4548   18.3662   18.6454 H   0  0  0  0  0  0  0  0  0  0  0  0
   20.5138   17.4824   20.1784 H   0  0  0  0  0  0  0  0  0  0  0  0
  1  2  1  0  0  0  0
  1  3  2  0  0  0  0
  1  4  1  0  0  0  0
  4  5  1  0  0  0  0
  4  6  1  0  0  0  0
  4  7  1  0  0  0  0
  7  8  1  0  0  0  0
  7  9  1  0  0  0  0
  7 10  1  0  0  0  0
 10 11  1  0  0  0  0
 10 12  1  0  0  0  0
 10 13  1  0  0  0  0
 13 14  1  0  0  0  0
 13 15  1  0  0  0  0
 13 16  1  0  0  0  0
 16 17  1  0  0  0  0
 16 18  1  0  0  0  0
 16 19  1  0  0  0  0
 19 20  1  0  0  0  0
 19 21  1  0  0  0  0
 19 22  1  0  0  0  0
 22 23  1  0  0  0  0
 22 24  1  0  0  0  0
 22 25  1  0  0  0  0
M  END
> <VM2 Rank>
63

> <Conf_Id>
928

> <Probability>
0.10

> <Sum Probability>
97.78

> <Delta G>
3.248

> <G>
-4.714

> <E>
-29.585

> <-TS>
24.871

> <U+W>
-50.153

> <U>
9.417

> <W>
-59.570

> <W(PB)>
-62.047

> <W(SA)>
2.477

> <Valence>
8.939

> <Coulomb>
-0.614

> <VdW>
1.091

> <VdW6>
-9.711

> <VdW12>
10.802

> <Bond>
0.216

> <Angle>
2.979

> <Pdih>
5.743

> <Idih>
0.000

> <Tether>
0.000

$$$$
VeraChem MOL file


 25 24  0  0  0  0  0  0  0  0999 V2000     
   20.0888   19.4182   27.3598 C   0  0  0  0  0  0  0  0  0  0  0  0
   20.9783   20.1345   27.7753 O   0  5  0  0  0  0  0  0  0  0  0  0
   18.9169   19.5664   27.6457 O   0  0  0  0  0  0  0  0  0  0  0  0
   20.4686   18.2582   26.4436 C   0  0  0  0  0  0  0  0  0  0  0  0
   19.6468   17.5319   26.4384 H   0  0  0  0  0  0  0  0  0  0  0  0
   21.3331   17.7560   26.8936 H   0  0  0  0  0  0  0  0  0  0  0  0
   20.8153   18.6851   24.9933 C   0  0  0  0  0  0  0  0  0  0  0  0
   21.6109   19.4425   25.0175 H   0  0  0  0  0  0  0  0  0  0  0  0
   21.2220   17.8145   24.4638 H   0  0  0  0  0  0  0  0  0  0  0  0
   19.5884   19.2368   24.2276 C   0  0  0  0  0  0  0  0  0  0  0  0
   19.1517   20.0669   24.7997 H   0  0  0  0  0  0  0  0  0  0  0  0
   18.8112   18.4631   24.1644 H   0  0  0  0  0  0  0  0  0  0  0  0
   19.9245   19.7518   22.8074 C   0  0  0  0  0  0  0  0  0  0  0  0
   19.0353   20.2597   22.4129 H   0  0  0  0  0  0  0  0  0  0  0  0
   20.7151   20.5118   22.8694 H   0  0  0  0  0  0  0  0  0  0  0  0
   20.3516   18.6308   21.8278 C   0  0  0  0  0  0  0  0  0  0  0  0
   19.5627   17.8686   21.7700 H   0  0  0  0  0  0  0  0  0  0  0  0
   21.2450   18.1261   22.2164 H   0  0  0  0  0  0  0  0  0  0  0  0
   20.6760   19.1478   20.4065 C   0  0  0  0  0  0  0  0  0  0  0  0
   21.4561   19.9196   20.4614 H   0  0  0  0  0  0  0  0  0  0  0  0
   21.0993   18.3207   19.8201 H   0  0  0  0  0  0  0  0  0  0  0  0
   19.4446   19.7044   19.6590 C   0  0  0  0  0  0  0  0  0  0  0  0
   19.0570   20.6101   20.1414 H   0  0  0  0  0  0  0  0  0  0  0  0
   19.7092   19.9665   18.6264 H   0  0  0  0  0  0  0  0  0  0  0  0
   18.6379   18.9608   19.6223 H   0  0  0  0  0  0  0  0  0  0  0  0
  1  2  1  0  0  0  0
  1  3  2  0  0  0  0
  1  4  1  0  0  0  0
  4  5  1  0  0  0  0
  4  6  1  0  0  0  0
  4  7  1  0  0  0  0
  7  8  1  0  0  0  0
  7  9  1  0  0  0  0
  7 10  1  0  0  0  0
 10 11  1  0  0  0  0
 10 12  1  0  0  0  0
 10 13  1  0  0  0  0
 13 14  1  0  0  0  0
 13 15  1  0  0  0  0
 13 16  1  0  0  0  0
 16 17  1  0  0  0  0
 16 18  1  0  0  0  0
 16 19  1  0  0  0  0
 19 20  1  0  0  0  0
 19 21  1  0  0  0  0
 19 22  1  0  0  0  0
 22 23  1  0  0  0  0
 22 24  1  0  0  0  0
 22 25  1  0  0  0  0
M  END
> <VM2 Rank>
64

> <Conf_Id>
408

> <Probability>
0.10

> <Sum Probability>
97.88

> <Delta G>
3.259

> <G>
-4.703

> <E>
-29.574

> <-TS>
24.871

> <U+W>
-50.142

> <U>
9.416

> <W>
-59.558

> <W(PB)>
-62.022

> <W(SA)>
2.464

> <Valence>
8.939

> <Coulomb>
-0.614

> <VdW>
1.092

> <VdW6>
-9.710

> <VdW12>
10.802

> <Bond>
0.216

> <Angle>
2.979

> <Pdih>
5.743

> <Idih>
0.000

> <Tether>
0.000

$$$$
VeraChem MOL file


 25 24  0  0  0  0  0  0  0  0999 V2000     
   19.8535   19.4073   27.1022 C   0  0  0  0  0  0  0  0  0  0  0  0
   20.7355   19.8756   27.7950 O   0  5  0  0  0  0  0  0  0  0  0  0
   18.7452   19.8960   27.0028 O   0  0  0  0  0  0  0  0  0  0  0  0
   20.1496   18.1233   26.3323 C   0  0  0  0  0  0  0  0  0  0  0  0
   19.1979   17.6579   26.0486 H   0  0  0  0  0  0  0  0  0  0  0  0
   20.6467   17.4333   27.0242 H   0  0  0  0  0  0  0  0  0  0  0  0
   21.0390   18.3305   25.0789 C   0  0  0  0  0  0  0  0  0  0  0  0
   21.9767   18.8208   25.3752 H   0  0  0  0  0  0  0  0  0  0  0  0
   21.3112   17.3487   24.6686 H   0  0  0  0  0  0  0  0  0  0  0  0
   20.3362   19.1626   23.9827 C   0  0  0  0  0  0  0  0  0  0  0  0
   20.0806   20.1555   24.3776 H   0  0  0  0  0  0  0  0  0  0  0  0
   19.3918   18.6735   23.7106 H   0  0  0  0  0  0  0  0  0  0  0  0
   21.2259   19.3214   22.7283 C   0  0  0  0  0  0  0  0  0  0  0  0
   22.1952   19.7412   23.0300 H   0  0  0  0  0  0  0  0  0  0  0  0
   21.4424   18.3344   22.2992 H   0  0  0  0  0  0  0  0  0  0  0  0
   20.6109   20.2451   21.6467 C   0  0  0  0  0  0  0  0  0  0  0  0
   21.3269   20.3436   20.8195 H   0  0  0  0  0  0  0  0  0  0  0  0
   20.4922   21.2533   22.0664 H   0  0  0  0  0  0  0  0  0  0  0  0
   19.2484   19.7800   21.0754 C   0  0  0  0  0  0  0  0  0  0  0  0
   18.4875   19.7747   21.8671 H   0  0  0  0  0  0  0  0  0  0  0  0
   18.9099   20.5178   20.3351 H   0  0  0  0  0  0  0  0  0  0  0  0
   19.3089   18.3922   20.4015 C   0  0  0  0  0  0  0  0  0  0  0  0
   19.5312   17.6040   21.1319 H   0  0  0  0  0  0  0  0  0  0  0  0
   18.3460   18.1499   19.9337 H   0  0  0  0  0  0  0  0  0  0  0  0
   20.0805   18.3675   19.6212 H   0  0  0  0  0  0  0  0  0  0  0  0
  1  2  1  0  0  0  0
  1  3  2  0  0  0  0
  1  4  1  0  0  0  0
  4  5  1  0  0  0  0
  4  6  1  0  0  0  0
  4  7  1  0  0  0  0
  7  8  1  0  0  0  0
  7  9  1  0  0  0  0
  7 10  1  0  0  0  0
 10 11  1  0  0  0  0
 10 12  1  0  0  0  0
 10 13  1  0  0  0  0
 13 14  1  0  0  0  0
 13 15  1  0  0  0  0
 13 16  1  0  0  0  0
 16 17  1  0  0  0  0
 16 18  1  0  0  0  0
 16 19  1  0  0  0  0
 19 20  1  0  0  0  0
 19 21  1  0  0  0  0
 19 22  1  0  0  0  0
 22 23  1  0  0  0  0
 22 24  1  0  0  0  0
 22 25  1  0  0  0  0
M  END
> <VM2 Rank>
65

> <Conf_Id>
1004

> <Probability>
0.09

> <Sum Probability>
97.97

> <Delta G>
3.298

> <G>
-4.664

> <E>
-29.775

> <-TS>
25.111

> <U+W>
-50.342

> <U>
9.796

> <W>
-60.138

> <W(PB)>
-62.574

> <W(SA)>
2.436

> <Valence>
8.738

> <Coulomb>
0.242

> <VdW>
0.816

> <VdW6>
-10.096

> <VdW12>
10.912

> <Bond>
0.210

> <Angle>
3.062

> <Pdih>
5.466

> <Idih>
0.001

> <Tether>
0.000

$$$$
VeraChem MOL file


 25 24  0  0  0  0  0  0  0  0999 V2000     
   20.1869   19.8264   26.8663 C   0  0  0  0  0  0  0  0  0  0  0  0
   21.2246   20.4495   26.7581 O   0  5  0  0  0  0  0  0  0  0  0  0
   19.1334   20.3276   27.2073 O   0  0  0  0  0  0  0  0  0  0  0  0
   20.2105   18.3271   26.5818 C   0  0  0  0  0  0  0  0  0  0  0  0
   19.6740   17.8301   27.3984 H   0  0  0  0  0  0  0  0  0  0  0  0
   21.2495   17.9787   26.6259 H   0  0  0  0  0  0  0  0  0  0  0  0
   19.5705   17.9324   25.2255 C   0  0  0  0  0  0  0  0  0  0  0  0
   19.5052   16.8375   25.1677 H   0  0  0  0  0  0  0  0  0  0  0  0
   18.5406   18.3135   25.1842 H   0  0  0  0  0  0  0  0  0  0  0  0
   20.3719   18.4603   24.0142 C   0  0  0  0  0  0  0  0  0  0  0  0
   21.4030   18.0849   24.0636 H   0  0  0  0  0  0  0  0  0  0  0  0
   20.4270   19.5557   24.0662 H   0  0  0  0  0  0  0  0  0  0  0  0
   19.7291   18.0332   22.6745 C   0  0  0  0  0  0  0  0  0  0  0  0
   19.6125   16.9410   22.6668 H   0  0  0  0  0  0  0  0  0  0  0  0
   18.7151   18.4477   22.6011 H   0  0  0  0  0  0  0  0  0  0  0  0
   20.5593   18.4427   21.4318 C   0  0  0  0  0  0  0  0  0  0  0  0
   20.0605   18.0563   20.5326 H   0  0  0  0  0  0  0  0  0  0  0  0
   21.5356   17.9411   21.4756 H   0  0  0  0  0  0  0  0  0  0  0  0
   20.7887   19.9648   21.2605 C   0  0  0  0  0  0  0  0  0  0  0  0
   21.3791   20.3560   22.0997 H   0  0  0  0  0  0  0  0  0  0  0  0
   21.3971   20.1274   20.3603 H   0  0  0  0  0  0  0  0  0  0  0  0
   19.4781   20.7700   21.1261 C   0  0  0  0  0  0  0  0  0  0  0  0
   18.8592   20.3799   20.3077 H   0  0  0  0  0  0  0  0  0  0  0  0
   18.8905   20.7315   22.0521 H   0  0  0  0  0  0  0  0  0  0  0  0
   19.6952   21.8247   20.9137 H   0  0  0  0  0  0  0  0  0  0  0  0
  1  2  1  0  0  0  0
  1  3  2  0  0  0  0
  1  4  1  0  0  0  0
  4  5  1  0  0  0  0
  4  6  1  0  0  0  0
  4  7  1  0  0  0  0
  7  8  1  0  0  0  0
  7  9  1  0  0  0  0
  7 10  1  0  0  0  0
 10 11  1  0  0  0  0
 10 12  1  0  0  0  0
 10 13  1  0  0  0  0
 13 14  1  0  0  0  0
 13 15  1  0  0  0  0
 13 16  1  0  0  0  0
 16 17  1  0  0  0  0
 16 18  1  0  0  0  0
 16 19  1  0  0  0  0
 19 20  1  0  0  0  0
 19 21  1  0  0  0  0
 19 22  1  0  0  0  0
 22 23  1  0  0  0  0
 22 24  1  0  0  0  0
 22 25  1  0  0  0  0
M  END
> <VM2 Rank>
66

> <Conf_Id>
835

> <Probability>
0.08

> <Sum Probability>
98.05

> <Delta G>
3.340

> <G>
-4.622

> <E>
-29.747

> <-TS>
25.125

> <U+W>
-50.314

> <U>
10.400

> <W>
-60.714

> <W(PB)>
-63.153

> <W(SA)>
2.439

> <Valence>
8.736

> <Coulomb>
0.892

> <VdW>
0.772

> <VdW6>
-10.163

> <VdW12>
10.935

> <Bond>
0.210

> <Angle>
3.058

> <Pdih>
5.467

> <Idih>
0.001

> <Tether>
0.000

$$$$
VeraChem MOL file


 25 24  0  0  0  0  0  0  0  0999 V2000     
   20.4394   19.4446   27.0956 C   0  0  0  0  0  0  0  0  0  0  0  0
   21.4740   20.0701   26.9715 O   0  5  0  0  0  0  0  0  0  0  0  0
   19.5212   19.7981   27.8090 O   0  0  0  0  0  0  0  0  0  0  0  0
   20.2913   18.1323   26.3307 C   0  0  0  0  0  0  0  0  0  0  0  0
   19.9020   17.3857   27.0328 H   0  0  0  0  0  0  0  0  0  0  0  0
   21.2877   17.7913   26.0245 H   0  0  0  0  0  0  0  0  0  0  0  0
   19.3542   18.2231   25.0984 C   0  0  0  0  0  0  0  0  0  0  0  0
   19.1995   17.2140   24.6930 H   0  0  0  0  0  0  0  0  0  0  0  0
   18.3688   18.5907   25.4169 H   0  0  0  0  0  0  0  0  0  0  0  0
   19.9202   19.1361   23.9875 C   0  0  0  0  0  0  0  0  0  0  0  0
   20.9125   18.7705   23.6930 H   0  0  0  0  0  0  0  0  0  0  0  0
   20.0566   20.1540   24.3779 H   0  0  0  0  0  0  0  0  0  0  0  0
   18.9888   19.1789   22.7542 C   0  0  0  0  0  0  0  0  0  0  0  0
   18.8895   18.1717   22.3287 H   0  0  0  0  0  0  0  0  0  0  0  0
   17.9813   19.4727   23.0787 H   0  0  0  0  0  0  0  0  0  0  0  0
   19.4565   20.1715   21.6601 C   0  0  0  0  0  0  0  0  0  0  0  0
   19.4560   21.1873   22.0784 H   0  0  0  0  0  0  0  0  0  0  0  0
   18.7149   20.1773   20.8498 H   0  0  0  0  0  0  0  0  0  0  0  0
   20.8534   19.8823   21.0568 C   0  0  0  0  0  0  0  0  0  0  0  0
   21.0784   20.6560   20.3099 H   0  0  0  0  0  0  0  0  0  0  0  0
   21.6269   19.9746   21.8307 H   0  0  0  0  0  0  0  0  0  0  0  0
   20.9539   18.4971   20.3823 C   0  0  0  0  0  0  0  0  0  0  0  0
   20.8503   17.6881   21.1163 H   0  0  0  0  0  0  0  0  0  0  0  0
   20.1738   18.3736   19.6200 H   0  0  0  0  0  0  0  0  0  0  0  0
   21.9287   18.3782   19.8919 H   0  0  0  0  0  0  0  0  0  0  0  0
  1  2  1  0  0  0  0
  1  3  2  0  0  0  0
  1  4  1  0  0  0  0
  4  5  1  0  0  0  0
  4  6  1  0  0  0  0
  4  7  1  0  0  0  0
  7  8  1  0  0  0  0
  7  9  1  0  0  0  0
  7 10  1  0  0  0  0
 10 11  1  0  0  0  0
 10 12  1  0  0  0  0
 10 13  1  0  0  0  0
 13 14  1  0  0  0  0
 13 15  1  0  0  0  0
 13 16  1  0  0  0  0
 16 17  1  0  0  0  0
 16 18  1  0  0  0  0
 16 19  1  0  0  0  0
 19 20  1  0  0  0  0
 19 21  1  0  0  0  0
 19 22  1  0  0  0  0
 22 23  1  0  0  0  0
 22 24  1  0  0  0  0
 22 25  1  0  0  0  0
M  END
> <VM2 Rank>
67

> <Conf_Id>
863

> <Probability>
0.08

> <Sum Probability>
98.14

> <Delta G>
3.365

> <G>
-4.598

> <E>
-29.709

> <-TS>
25.111

> <U+W>
-50.276

> <U>
9.796

> <W>
-60.072

> <W(PB)>
-62.519

> <W(SA)>
2.448

> <Valence>
8.738

> <Coulomb>
0.242

> <VdW>
0.816

> <VdW6>
-10.096

> <VdW12>
10.911

> <Bond>
0.210

> <Angle>
3.062

> <Pdih>
5.466

> <Idih>
0.001

> <Tether>
0.000

$$$$
VeraChem MOL file


 25 24  0  0  0  0  0  0  0  0999 V2000     
   20.2746   19.1493   27.2160 C   0  0  0  0  0  0  0  0  0  0  0  0
   21.3424   19.6554   27.5003 O   0  5  0  0  0  0  0  0  0  0  0  0
   19.2486   19.3513   27.8354 O   0  0  0  0  0  0  0  0  0  0  0  0
   20.2211   18.1919   26.0288 C   0  0  0  0  0  0  0  0  0  0  0  0
   19.6575   17.3072   26.3472 H   0  0  0  0  0  0  0  0  0  0  0  0
   21.2403   17.8551   25.8038 H   0  0  0  0  0  0  0  0  0  0  0  0
   19.5644   18.7946   24.7596 C   0  0  0  0  0  0  0  0  0  0  0  0
   19.4351   17.9928   24.0213 H   0  0  0  0  0  0  0  0  0  0  0  0
   18.5597   19.1630   25.0086 H   0  0  0  0  0  0  0  0  0  0  0  0
   20.4045   19.9379   24.1417 C   0  0  0  0  0  0  0  0  0  0  0  0
   21.3962   19.5599   23.8611 H   0  0  0  0  0  0  0  0  0  0  0  0
   20.5804   20.7088   24.9043 H   0  0  0  0  0  0  0  0  0  0  0  0
   19.7287   20.6119   22.9209 C   0  0  0  0  0  0  0  0  0  0  0  0
   18.7891   21.0774   23.2482 H   0  0  0  0  0  0  0  0  0  0  0  0
   20.3689   21.4346   22.5746 H   0  0  0  0  0  0  0  0  0  0  0  0
   19.4282   19.6748   21.7237 C   0  0  0  0  0  0  0  0  0  0  0  0
   18.9441   20.2672   20.9354 H   0  0  0  0  0  0  0  0  0  0  0  0
   18.6981   18.9100   22.0189 H   0  0  0  0  0  0  0  0  0  0  0  0
   20.6876   18.9967   21.1389 C   0  0  0  0  0  0  0  0  0  0  0  0
   21.4362   19.7602   20.8864 H   0  0  0  0  0  0  0  0  0  0  0  0
   21.1424   18.3366   21.8893 H   0  0  0  0  0  0  0  0  0  0  0  0
   20.3529   18.1701   19.8808 C   0  0  0  0  0  0  0  0  0  0  0  0
   19.9290   18.8067   19.0932 H   0  0  0  0  0  0  0  0  0  0  0  0
   21.2564   17.6922   19.4805 H   0  0  0  0  0  0  0  0  0  0  0  0
   19.6260   17.3806   20.1123 H   0  0  0  0  0  0  0  0  0  0  0  0
  1  2  1  0  0  0  0
  1  3  2  0  0  0  0
  1  4  1  0  0  0  0
  4  5  1  0  0  0  0
  4  6  1  0  0  0  0
  4  7  1  0  0  0  0
  7  8  1  0  0  0  0
  7  9  1  0  0  0  0
  7 10  1  0  0  0  0
 10 11  1  0  0  0  0
 10 12  1  0  0  0  0
 10 13  1  0  0  0  0
 13 14  1  0  0  0  0
 13 15  1  0  0  0  0
 13 16  1  0  0  0  0
 16 17  1  0  0  0  0
 16 18  1  0  0  0  0
 16 19  1  0  0  0  0
 19 20  1  0  0  0  0
 19 21  1  0  0  0  0
 19 22  1  0  0  0  0
 22 23  1  0  0  0  0
 22 24  1  0  0  0  0
 22 25  1  0  0  0  0
M  END
> <VM2 Rank>
68

> <Conf_Id>
1272

> <Probability>
0.08

> <Sum Probability>
98.22

> <Delta G>
3.371

> <G>
-4.591

> <E>
-29.743

> <-TS>
25.152

> <U+W>
-50.311

> <U>
9.263

> <W>
-59.574

> <W(PB)>
-62.031

> <W(SA)>
2.457

> <Valence>
8.801

> <Coulomb>
-0.375

> <VdW>
0.837

> <VdW6>
-10.171

> <VdW12>
11.009

> <Bond>
0.218

> <Angle>
3.129

> <Pdih>
5.454

> <Idih>
0.000

> <Tether>
0.000

$$$$
VeraChem MOL file


 25 24  0  0  0  0  0  0  0  0999 V2000     
   20.2494   18.7682   26.8821 C   0  0  0  0  0  0  0  0  0  0  0  0
   21.3534   18.2685   26.7905 O   0  5  0  0  0  0  0  0  0  0  0  0
   19.2616   18.1569   27.2394 O   0  0  0  0  0  0  0  0  0  0  0  0
   20.0971   20.2507   26.5528 C   0  0  0  0  0  0  0  0  0  0  0  0
   21.0878   20.7200   26.5847 H   0  0  0  0  0  0  0  0  0  0  0  0
   19.5043   20.7053   27.3553 H   0  0  0  0  0  0  0  0  0  0  0  0
   19.4174   20.5268   25.1865 C   0  0  0  0  0  0  0  0  0  0  0  0
   18.4395   20.0261   25.1585 H   0  0  0  0  0  0  0  0  0  0  0  0
   19.2239   21.6042   25.0962 H   0  0  0  0  0  0  0  0  0  0  0  0
   20.2773   20.0608   23.9901 C   0  0  0  0  0  0  0  0  0  0  0  0
   20.4610   18.9816   24.0748 H   0  0  0  0  0  0  0  0  0  0  0  0
   21.2570   20.5563   24.0264 H   0  0  0  0  0  0  0  0  0  0  0  0
   19.5910   20.3690   22.6395 C   0  0  0  0  0  0  0  0  0  0  0  0
   18.6330   19.8360   22.5804 H   0  0  0  0  0  0  0  0  0  0  0  0
   19.3467   21.4392   22.5992 H   0  0  0  0  0  0  0  0  0  0  0  0
   20.4657   20.0230   21.4080 C   0  0  0  0  0  0  0  0  0  0  0  0
   21.3760   20.6372   21.4348 H   0  0  0  0  0  0  0  0  0  0  0  0
   19.9263   20.3206   20.4985 H   0  0  0  0  0  0  0  0  0  0  0  0
   20.8732   18.5340   21.2821 C   0  0  0  0  0  0  0  0  0  0  0  0
   21.4978   18.4172   20.3859 H   0  0  0  0  0  0  0  0  0  0  0  0
   21.5044   18.2407   22.1315 H   0  0  0  0  0  0  0  0  0  0  0  0
   19.6669   17.5762   21.1749 C   0  0  0  0  0  0  0  0  0  0  0  0
   19.0074   17.8658   20.3466 H   0  0  0  0  0  0  0  0  0  0  0  0
   20.0071   16.5485   20.9940 H   0  0  0  0  0  0  0  0  0  0  0  0
   19.0776   17.5731   22.1006 H   0  0  0  0  0  0  0  0  0  0  0  0
  1  2  1  0  0  0  0
  1  3  2  0  0  0  0
  1  4  1  0  0  0  0
  4  5  1  0  0  0  0
  4  6  1  0  0  0  0
  4  7  1  0  0  0  0
  7  8  1  0  0  0  0
  7  9  1  0  0  0  0
  7 10  1  0  0  0  0
 10 11  1  0  0  0  0
 10 12  1  0  0  0  0
 10 13  1  0  0  0  0
 13 14  1  0  0  0  0
 13 15  1  0  0  0  0
 13 16  1  0  0  0  0
 16 17  1  0  0  0  0
 16 18  1  0  0  0  0
 16 19  1  0  0  0  0
 19 20  1  0  0  0  0
 19 21  1  0  0  0  0
 19 22  1  0  0  0  0
 22 23  1  0  0  0  0
 22 24  1  0  0  0  0
 22 25  1  0  0  0  0
M  END
> <VM2 Rank>
69

> <Conf_Id>
434

> <Probability>
0.08

> <Sum Probability>
98.29

> <Delta G>
3.395

> <G>
-4.567

> <E>
-29.693

> <-TS>
25.126

> <U+W>
-50.260

> <U>
10.401

> <W>
-60.662

> <W(PB)>
-63.100

> <W(SA)>
2.438

> <Valence>
8.736

> <Coulomb>
0.894

> <VdW>
0.772

> <VdW6>
-10.164

> <VdW12>
10.936

> <Bond>
0.210

> <Angle>
3.058

> <Pdih>
5.466

> <Idih>
0.001

> <Tether>
0.000

$$$$
VeraChem MOL file


 25 24  0  0  0  0  0  0  0  0999 V2000     
   20.0574   19.1354   27.2186 C   0  0  0  0  0  0  0  0  0  0  0  0
   21.0632   19.4674   27.8146 O   0  5  0  0  0  0  0  0  0  0  0  0
   18.9406   19.5016   27.5280 O   0  0  0  0  0  0  0  0  0  0  0  0
   20.2053   18.1909   26.0290 C   0  0  0  0  0  0  0  0  0  0  0  0
   19.2325   17.7264   25.8271 H   0  0  0  0  0  0  0  0  0  0  0  0
   20.8845   17.3858   26.3331 H   0  0  0  0  0  0  0  0  0  0  0  0
   20.7503   18.8707   24.7459 C   0  0  0  0  0  0  0  0  0  0  0  0
   21.7052   19.3647   24.9723 H   0  0  0  0  0  0  0  0  0  0  0  0
   20.9639   18.0909   24.0037 H   0  0  0  0  0  0  0  0  0  0  0  0
   19.7571   19.8964   24.1491 C   0  0  0  0  0  0  0  0  0  0  0  0
   19.5018   20.6397   24.9167 H   0  0  0  0  0  0  0  0  0  0  0  0
   18.8155   19.3944   23.8909 H   0  0  0  0  0  0  0  0  0  0  0  0
   20.3130   20.6494   22.9141 C   0  0  0  0  0  0  0  0  0  0  0  0
   19.5651   21.3830   22.5839 H   0  0  0  0  0  0  0  0  0  0  0  0
   21.1928   21.2315   23.2204 H   0  0  0  0  0  0  0  0  0  0  0  0
   20.7030   19.7565   21.7089 C   0  0  0  0  0  0  0  0  0  0  0  0
   21.5314   19.0916   21.9861 H   0  0  0  0  0  0  0  0  0  0  0  0
   21.0893   20.4046   20.9105 H   0  0  0  0  0  0  0  0  0  0  0  0
   19.5274   18.9223   21.1523 C   0  0  0  0  0  0  0  0  0  0  0  0
   19.1779   18.2106   21.9119 H   0  0  0  0  0  0  0  0  0  0  0  0
   18.6818   19.5836   20.9183 H   0  0  0  0  0  0  0  0  0  0  0  0
   19.9357   18.1434   19.8856 C   0  0  0  0  0  0  0  0  0  0  0  0
   20.7627   17.4535   20.0989 H   0  0  0  0  0  0  0  0  0  0  0  0
   19.0916   17.5535   19.5054 H   0  0  0  0  0  0  0  0  0  0  0  0
   20.2566   18.8278   19.0894 H   0  0  0  0  0  0  0  0  0  0  0  0
  1  2  1  0  0  0  0
  1  3  2  0  0  0  0
  1  4  1  0  0  0  0
  4  5  1  0  0  0  0
  4  6  1  0  0  0  0
  4  7  1  0  0  0  0
  7  8  1  0  0  0  0
  7  9  1  0  0  0  0
  7 10  1  0  0  0  0
 10 11  1  0  0  0  0
 10 12  1  0  0  0  0
 10 13  1  0  0  0  0
 13 14  1  0  0  0  0
 13 15  1  0  0  0  0
 13 16  1  0  0  0  0
 16 17  1  0  0  0  0
 16 18  1  0  0  0  0
 16 19  1  0  0  0  0
 19 20  1  0  0  0  0
 19 21  1  0  0  0  0
 19 22  1  0  0  0  0
 22 23  1  0  0  0  0
 22 24  1  0  0  0  0
 22 25  1  0  0  0  0
M  END
> <VM2 Rank>
70

> <Conf_Id>
1295

> <Probability>
0.08

> <Sum Probability>
98.37

> <Delta G>
3.404

> <G>
-4.559

> <E>
-29.710

> <-TS>
25.151

> <U+W>
-50.278

> <U>
9.263

> <W>
-59.541

> <W(PB)>
-61.978

> <W(SA)>
2.438

> <Valence>
8.801

> <Coulomb>
-0.375

> <VdW>
0.837

> <VdW6>
-10.171

> <VdW12>
11.008

> <Bond>
0.218

> <Angle>
3.129

> <Pdih>
5.454

> <Idih>
0.000

> <Tether>
0.000

$$$$
VeraChem MOL file


 25 24  0  0  0  0  0  0  0  0999 V2000     
   19.7509   19.2499   26.9046 C   0  0  0  0  0  0  0  0  0  0  0  0
   20.4142   19.2188   27.9228 O   0  5  0  0  0  0  0  0  0  0  0  0
   18.8180   20.0098   26.7334 O   0  0  0  0  0  0  0  0  0  0  0  0
   20.0930   18.2611   25.7937 C   0  0  0  0  0  0  0  0  0  0  0  0
   19.2562   18.2233   25.0869 H   0  0  0  0  0  0  0  0  0  0  0  0
   20.1587   17.2669   26.2507 H   0  0  0  0  0  0  0  0  0  0  0  0
   21.4211   18.5751   25.0523 C   0  0  0  0  0  0  0  0  0  0  0  0
   22.2461   18.5373   25.7769 H   0  0  0  0  0  0  0  0  0  0  0  0
   21.6250   17.7803   24.3233 H   0  0  0  0  0  0  0  0  0  0  0  0
   21.4481   19.9536   24.3426 C   0  0  0  0  0  0  0  0  0  0  0  0
   22.4252   20.0813   23.8573 H   0  0  0  0  0  0  0  0  0  0  0  0
   21.3820   20.7469   25.0999 H   0  0  0  0  0  0  0  0  0  0  0  0
   20.3325   20.1790   23.2914 C   0  0  0  0  0  0  0  0  0  0  0  0
   19.3497   20.1663   23.7813 H   0  0  0  0  0  0  0  0  0  0  0  0
   20.4499   21.1886   22.8749 H   0  0  0  0  0  0  0  0  0  0  0  0
   20.3559   19.1525   22.1353 C   0  0  0  0  0  0  0  0  0  0  0  0
   20.1671   18.1447   22.5273 H   0  0  0  0  0  0  0  0  0  0  0  0
   21.3544   19.1379   21.6775 H   0  0  0  0  0  0  0  0  0  0  0  0
   19.2995   19.4811   21.0595 C   0  0  0  0  0  0  0  0  0  0  0  0
   18.3002   19.4990   21.5160 H   0  0  0  0  0  0  0  0  0  0  0  0
   19.4833   20.4856   20.6537 H   0  0  0  0  0  0  0  0  0  0  0  0
   19.3198   18.4530   19.9104 C   0  0  0  0  0  0  0  0  0  0  0  0
   19.1067   17.4427   20.2836 H   0  0  0  0  0  0  0  0  0  0  0  0
   18.5632   18.7019   19.1550 H   0  0  0  0  0  0  0  0  0  0  0  0
   20.2999   18.4362   19.4159 H   0  0  0  0  0  0  0  0  0  0  0  0
  1  2  1  0  0  0  0
  1  3  2  0  0  0  0
  1  4  1  0  0  0  0
  4  5  1  0  0  0  0
  4  6  1  0  0  0  0
  4  7  1  0  0  0  0
  7  8  1  0  0  0  0
  7  9  1  0  0  0  0
  7 10  1  0  0  0  0
 10 11  1  0  0  0  0
 10 12  1  0  0  0  0
 10 13  1  0  0  0  0
 13 14  1  0  0  0  0
 13 15  1  0  0  0  0
 13 16  1  0  0  0  0
 16 17  1  0  0  0  0
 16 18  1  0  0  0  0
 16 19  1  0  0  0  0
 19 20  1  0  0  0  0
 19 21  1  0  0  0  0
 19 22  1  0  0  0  0
 22 23  1  0  0  0  0
 22 24  1  0  0  0  0
 22 25  1  0  0  0  0
M  END
> <VM2 Rank>
71

> <Conf_Id>
400

> <Probability>
0.07

> <Sum Probability>
98.44

> <Delta G>
3.466

> <G>
-4.496

> <E>
-29.748

> <-TS>
25.252

> <U+W>
-50.316

> <U>
9.773

> <W>
-60.088

> <W(PB)>
-62.535

> <W(SA)>
2.447

> <Valence>
8.741

> <Coulomb>
0.479

> <VdW>
0.552

> <VdW6>
-10.627

> <VdW12>
11.179

> <Bond>
0.227

> <Angle>
3.155

> <Pdih>
5.358

> <Idih>
0.001

> <Tether>
0.000

$$$$
VeraChem MOL file


 25 24  0  0  0  0  0  0  0  0999 V2000     
   19.8746   19.7858   26.7465 C   0  0  0  0  0  0  0  0  0  0  0  0
   20.8605   20.3989   27.1060 O   0  5  0  0  0  0  0  0  0  0  0  0
   18.7723   20.2865   26.6402 O   0  0  0  0  0  0  0  0  0  0  0  0
   20.0219   18.2993   26.4336 C   0  0  0  0  0  0  0  0  0  0  0  0
   19.1840   17.7784   26.9116 H   0  0  0  0  0  0  0  0  0  0  0  0
   20.9385   17.9303   26.9096 H   0  0  0  0  0  0  0  0  0  0  0  0
   20.0365   17.9750   24.9173 C   0  0  0  0  0  0  0  0  0  0  0  0
   20.0104   16.8852   24.7836 H   0  0  0  0  0  0  0  0  0  0  0  0
   19.1213   18.3740   24.4600 H   0  0  0  0  0  0  0  0  0  0  0  0
   21.2829   18.5479   24.2015 C   0  0  0  0  0  0  0  0  0  0  0  0
   22.1852   18.2004   24.7230 H   0  0  0  0  0  0  0  0  0  0  0  0
   21.2906   19.6429   24.2831 H   0  0  0  0  0  0  0  0  0  0  0  0
   21.3872   18.1303   22.7131 C   0  0  0  0  0  0  0  0  0  0  0  0
   22.3126   18.5487   22.2945 H   0  0  0  0  0  0  0  0  0  0  0  0
   21.4962   17.0387   22.6570 H   0  0  0  0  0  0  0  0  0  0  0  0
   20.1958   18.5574   21.8187 C   0  0  0  0  0  0  0  0  0  0  0  0
   19.2782   18.0541   22.1503 H   0  0  0  0  0  0  0  0  0  0  0  0
   20.3855   18.2002   20.7974 H   0  0  0  0  0  0  0  0  0  0  0  0
   19.9679   20.0854   21.7819 C   0  0  0  0  0  0  0  0  0  0  0  0
   19.6947   20.4493   22.7816 H   0  0  0  0  0  0  0  0  0  0  0  0
   20.9004   20.5926   21.4990 H   0  0  0  0  0  0  0  0  0  0  0  0
   18.8533   20.4677   20.7872 C   0  0  0  0  0  0  0  0  0  0  0  0
   19.1100   20.1509   19.7678 H   0  0  0  0  0  0  0  0  0  0  0  0
   17.9018   19.9951   21.0641 H   0  0  0  0  0  0  0  0  0  0  0  0
   18.7012   21.5547   20.7760 H   0  0  0  0  0  0  0  0  0  0  0  0
  1  2  1  0  0  0  0
  1  3  2  0  0  0  0
  1  4  1  0  0  0  0
  4  5  1  0  0  0  0
  4  6  1  0  0  0  0
  4  7  1  0  0  0  0
  7  8  1  0  0  0  0
  7  9  1  0  0  0  0
  7 10  1  0  0  0  0
 10 11  1  0  0  0  0
 10 12  1  0  0  0  0
 10 13  1  0  0  0  0
 13 14  1  0  0  0  0
 13 15  1  0  0  0  0
 13 16  1  0  0  0  0
 16 17  1  0  0  0  0
 16 18  1  0  0  0  0
 16 19  1  0  0  0  0
 19 20  1  0  0  0  0
 19 21  1  0  0  0  0
 19 22  1  0  0  0  0
 22 23  1  0  0  0  0
 22 24  1  0  0  0  0
 22 25  1  0  0  0  0
M  END
> <VM2 Rank>
72

> <Conf_Id>
1322

> <Probability>
0.07

> <Sum Probability>
98.51

> <Delta G>
3.471

> <G>
-4.492

> <E>
-29.651

> <-TS>
25.159

> <U+W>
-50.218

> <U>
10.374

> <W>
-60.593

> <W(PB)>
-62.998

> <W(SA)>
2.405

> <Valence>
8.732

> <Coulomb>
0.992

> <VdW>
0.650

> <VdW6>
-10.415

> <VdW12>
11.064

> <Bond>
0.214

> <Angle>
3.066

> <Pdih>
5.452

> <Idih>
0.001

> <Tether>
0.000

$$$$
VeraChem MOL file


 25 24  0  0  0  0  0  0  0  0999 V2000     
   19.8760   19.6241   26.8999 C   0  0  0  0  0  0  0  0  0  0  0  0
   19.9516   18.9183   27.8866 O   0  5  0  0  0  0  0  0  0  0  0  0
   18.8465   20.1521   26.5283 O   0  0  0  0  0  0  0  0  0  0  0  0
   21.1507   19.8818   26.1014 C   0  0  0  0  0  0  0  0  0  0  0  0
   21.9216   20.2002   26.8127 H   0  0  0  0  0  0  0  0  0  0  0  0
   20.9791   20.7309   25.4301 H   0  0  0  0  0  0  0  0  0  0  0  0
   21.6624   18.6489   25.3072 C   0  0  0  0  0  0  0  0  0  0  0  0
   22.6111   18.9052   24.8165 H   0  0  0  0  0  0  0  0  0  0  0  0
   21.8916   17.8425   26.0175 H   0  0  0  0  0  0  0  0  0  0  0  0
   20.6692   18.1121   24.2473 C   0  0  0  0  0  0  0  0  0  0  0  0
   19.7344   17.8060   24.7368 H   0  0  0  0  0  0  0  0  0  0  0  0
   21.0956   17.2040   23.7997 H   0  0  0  0  0  0  0  0  0  0  0  0
   20.3581   19.1286   23.1247 C   0  0  0  0  0  0  0  0  0  0  0  0
   19.8449   20.0027   23.5466 H   0  0  0  0  0  0  0  0  0  0  0  0
   21.3004   19.4845   22.6886 H   0  0  0  0  0  0  0  0  0  0  0  0
   19.4700   18.5053   22.0230 C   0  0  0  0  0  0  0  0  0  0  0  0
   18.5653   18.0898   22.4876 H   0  0  0  0  0  0  0  0  0  0  0  0
   19.9959   17.6614   21.5559 H   0  0  0  0  0  0  0  0  0  0  0  0
   19.0427   19.5155   20.9328 C   0  0  0  0  0  0  0  0  0  0  0  0
   18.3248   19.0258   20.2604 H   0  0  0  0  0  0  0  0  0  0  0  0
   18.5096   20.3573   21.3959 H   0  0  0  0  0  0  0  0  0  0  0  0
   20.2257   20.0475   20.0949 C   0  0  0  0  0  0  0  0  0  0  0  0
   19.8622   20.6892   19.2819 H   0  0  0  0  0  0  0  0  0  0  0  0
   20.9134   20.6444   20.7067 H   0  0  0  0  0  0  0  0  0  0  0  0
   20.7921   19.2213   19.6459 H   0  0  0  0  0  0  0  0  0  0  0  0
  1  2  1  0  0  0  0
  1  3  2  0  0  0  0
  1  4  1  0  0  0  0
  4  5  1  0  0  0  0
  4  6  1  0  0  0  0
  4  7  1  0  0  0  0
  7  8  1  0  0  0  0
  7  9  1  0  0  0  0
  7 10  1  0  0  0  0
 10 11  1  0  0  0  0
 10 12  1  0  0  0  0
 10 13  1  0  0  0  0
 13 14  1  0  0  0  0
 13 15  1  0  0  0  0
 13 16  1  0  0  0  0
 16 17  1  0  0  0  0
 16 18  1  0  0  0  0
 16 19  1  0  0  0  0
 19 20  1  0  0  0  0
 19 21  1  0  0  0  0
 19 22  1  0  0  0  0
 22 23  1  0  0  0  0
 22 24  1  0  0  0  0
 22 25  1  0  0  0  0
M  END
> <VM2 Rank>
73

> <Conf_Id>
567

> <Probability>
0.07

> <Sum Probability>
98.57

> <Delta G>
3.474

> <G>
-4.488

> <E>
-29.460

> <-TS>
24.972

> <U+W>
-50.027

> <U>
10.315

> <W>
-60.342

> <W(PB)>
-62.774

> <W(SA)>
2.432

> <Valence>
8.797

> <Coulomb>
0.776

> <VdW>
0.742

> <VdW6>
-10.190

> <VdW12>
10.932

> <Bond>
0.216

> <Angle>
2.999

> <Pdih>
5.581

> <Idih>
0.001

> <Tether>
0.000

$$$$
VeraChem MOL file


 25 24  0  0  0  0  0  0  0  0999 V2000     
   19.7970   19.5157   26.9042 C   0  0  0  0  0  0  0  0  0  0  0  0
   20.5297   19.7120   27.8540 O   0  5  0  0  0  0  0  0  0  0  0  0
   18.9639   20.3135   26.5216 O   0  0  0  0  0  0  0  0  0  0  0  0
   19.9125   18.1823   26.1710 C   0  0  0  0  0  0  0  0  0  0  0  0
   19.0263   18.0505   25.5399 H   0  0  0  0  0  0  0  0  0  0  0  0
   19.8744   17.3903   26.9279 H   0  0  0  0  0  0  0  0  0  0  0  0
   21.2111   18.0293   25.3326 C   0  0  0  0  0  0  0  0  0  0  0  0
   22.0759   18.0954   26.0072 H   0  0  0  0  0  0  0  0  0  0  0  0
   21.2398   17.0229   24.8938 H   0  0  0  0  0  0  0  0  0  0  0  0
   21.3752   19.0807   24.2076 C   0  0  0  0  0  0  0  0  0  0  0  0
   22.3521   18.9282   23.7289 H   0  0  0  0  0  0  0  0  0  0  0  0
   21.3983   20.0891   24.6432 H   0  0  0  0  0  0  0  0  0  0  0  0
   20.2693   19.0065   23.1297 C   0  0  0  0  0  0  0  0  0  0  0  0
   20.2031   17.9786   22.7505 H   0  0  0  0  0  0  0  0  0  0  0  0
   19.2969   19.2506   23.5775 H   0  0  0  0  0  0  0  0  0  0  0  0
   20.5463   19.9819   21.9624 C   0  0  0  0  0  0  0  0  0  0  0  0
   21.4918   19.7138   21.4715 H   0  0  0  0  0  0  0  0  0  0  0  0
   20.6819   20.9937   22.3684 H   0  0  0  0  0  0  0  0  0  0  0  0
   19.4118   20.0220   20.9121 C   0  0  0  0  0  0  0  0  0  0  0  0
   18.4658   20.2973   21.3986 H   0  0  0  0  0  0  0  0  0  0  0  0
   19.6308   20.8178   20.1869 H   0  0  0  0  0  0  0  0  0  0  0  0
   19.2361   18.6901   20.1509 C   0  0  0  0  0  0  0  0  0  0  0  0
   18.4824   18.7965   19.3600 H   0  0  0  0  0  0  0  0  0  0  0  0
   20.1780   18.3791   19.6805 H   0  0  0  0  0  0  0  0  0  0  0  0
   18.9035   17.8870   20.8203 H   0  0  0  0  0  0  0  0  0  0  0  0
  1  2  1  0  0  0  0
  1  3  2  0  0  0  0
  1  4  1  0  0  0  0
  4  5  1  0  0  0  0
  4  6  1  0  0  0  0
  4  7  1  0  0  0  0
  7  8  1  0  0  0  0
  7  9  1  0  0  0  0
  7 10  1  0  0  0  0
 10 11  1  0  0  0  0
 10 12  1  0  0  0  0
 10 13  1  0  0  0  0
 13 14  1  0  0  0  0
 13 15  1  0  0  0  0
 13 16  1  0  0  0  0
 16 17  1  0  0  0  0
 16 18  1  0  0  0  0
 16 19  1  0  0  0  0
 19 20  1  0  0  0  0
 19 21  1  0  0  0  0
 19 22  1  0  0  0  0
 22 23  1  0  0  0  0
 22 24  1  0  0  0  0
 22 25  1  0  0  0  0
M  END
> <VM2 Rank>
74

> <Conf_Id>
283

> <Probability>
0.07

> <Sum Probability>
98.64

> <Delta G>
3.478

> <G>
-4.485

> <E>
-29.456

> <-TS>
24.971

> <U+W>
-50.024

> <U>
10.314

> <W>
-60.338

> <W(PB)>
-62.785

> <W(SA)>
2.447

> <Valence>
8.797

> <Coulomb>
0.776

> <VdW>
0.742

> <VdW6>
-10.190

> <VdW12>
10.932

> <Bond>
0.216

> <Angle>
2.999

> <Pdih>
5.581

> <Idih>
0.001

> <Tether>
0.000

$$$$
VeraChem MOL file


 25 24  0  0  0  0  0  0  0  0999 V2000     
   20.3189   19.6316   26.9953 C   0  0  0  0  0  0  0  0  0  0  0  0
   21.3262   20.2587   26.7328 O   0  5  0  0  0  0  0  0  0  0  0  0
   19.4273   20.0570   27.7036 O   0  0  0  0  0  0  0  0  0  0  0  0
   20.1760   18.2218   26.4287 C   0  0  0  0  0  0  0  0  0  0  0  0
   19.9175   17.5604   27.2638 H   0  0  0  0  0  0  0  0  0  0  0  0
   21.1539   17.8894   26.0630 H   0  0  0  0  0  0  0  0  0  0  0  0
   19.0985   18.0900   25.3175 C   0  0  0  0  0  0  0  0  0  0  0  0
   19.0254   17.0384   25.0092 H   0  0  0  0  0  0  0  0  0  0  0  0
   18.1209   18.3536   25.7443 H   0  0  0  0  0  0  0  0  0  0  0  0
   19.3487   18.9712   24.0686 C   0  0  0  0  0  0  0  0  0  0  0  0
   19.3877   20.0290   24.3627 H   0  0  0  0  0  0  0  0  0  0  0  0
   18.4826   18.8669   23.4032 H   0  0  0  0  0  0  0  0  0  0  0  0
   20.6401   18.5981   23.2998 C   0  0  0  0  0  0  0  0  0  0  0  0
   21.5052   18.7246   23.9636 H   0  0  0  0  0  0  0  0  0  0  0  0
   20.6131   17.5367   23.0186 H   0  0  0  0  0  0  0  0  0  0  0  0
   20.8790   19.4631   22.0390 C   0  0  0  0  0  0  0  0  0  0  0  0
   21.8812   19.2382   21.6495 H   0  0  0  0  0  0  0  0  0  0  0  0
   20.8864   20.5256   22.3184 H   0  0  0  0  0  0  0  0  0  0  0  0
   19.8425   19.2244   20.9174 C   0  0  0  0  0  0  0  0  0  0  0  0
   19.7953   18.1531   20.6784 H   0  0  0  0  0  0  0  0  0  0  0  0
   18.8416   19.5219   21.2559 H   0  0  0  0  0  0  0  0  0  0  0  0
   20.1958   20.0180   19.6432 C   0  0  0  0  0  0  0  0  0  0  0  0
   21.1767   19.7177   19.2521 H   0  0  0  0  0  0  0  0  0  0  0  0
   19.4495   19.8409   18.8579 H   0  0  0  0  0  0  0  0  0  0  0  0
   20.2236   21.0963   19.8477 H   0  0  0  0  0  0  0  0  0  0  0  0
  1  2  1  0  0  0  0
  1  3  2  0  0  0  0
  1  4  1  0  0  0  0
  4  5  1  0  0  0  0
  4  6  1  0  0  0  0
  4  7  1  0  0  0  0
  7  8  1  0  0  0  0
  7  9  1  0  0  0  0
  7 10  1  0  0  0  0
 10 11  1  0  0  0  0
 10 12  1  0  0  0  0
 10 13  1  0  0  0  0
 13 14  1  0  0  0  0
 13 15  1  0  0  0  0
 13 16  1  0  0  0  0
 16 17  1  0  0  0  0
 16 18  1  0  0  0  0
 16 19  1  0  0  0  0
 19 20  1  0  0  0  0
 19 21  1  0  0  0  0
 19 22  1  0  0  0  0
 22 23  1  0  0  0  0
 22 24  1  0  0  0  0
 22 25  1  0  0  0  0
M  END
> <VM2 Rank>
75

> <Conf_Id>
1228

> <Probability>
0.07

> <Sum Probability>
98.71

> <Delta G>
3.491

> <G>
-4.471

> <E>
-29.368

> <-TS>
24.897

> <U+W>
-49.935

> <U>
10.274

> <W>
-60.209

> <W(PB)>
-62.631

> <W(SA)>
2.421

> <Valence>
8.911

> <Coulomb>
0.553

> <VdW>
0.810

> <VdW6>
-10.136

> <VdW12>
10.945

> <Bond>
0.229

> <Angle>
3.100

> <Pdih>
5.582

> <Idih>
0.001

> <Tether>
0.000

$$$$
VeraChem MOL file


 25 24  0  0  0  0  0  0  0  0999 V2000     
   20.5566   19.3014   26.8955 C   0  0  0  0  0  0  0  0  0  0  0  0
   21.3811   20.1735   26.7042 O   0  5  0  0  0  0  0  0  0  0  0  0
   19.9260   19.1876   27.9285 O   0  0  0  0  0  0  0  0  0  0  0  0
   20.3177   18.2755   25.7913 C   0  0  0  0  0  0  0  0  0  0  0  0
   20.3896   17.2817   26.2481 H   0  0  0  0  0  0  0  0  0  0  0  0
   21.1361   18.3435   25.0654 H   0  0  0  0  0  0  0  0  0  0  0  0
   18.9439   18.4169   25.0809 C   0  0  0  0  0  0  0  0  0  0  0  0
   18.8261   17.6015   24.3556 H   0  0  0  0  0  0  0  0  0  0  0  0
   18.1472   18.2755   25.8242 H   0  0  0  0  0  0  0  0  0  0  0  0
   18.7254   19.7797   24.3740 C   0  0  0  0  0  0  0  0  0  0  0  0
   18.7076   20.5761   25.1307 H   0  0  0  0  0  0  0  0  0  0  0  0
   17.7291   19.7813   23.9115 H   0  0  0  0  0  0  0  0  0  0  0  0
   19.7787   20.1436   23.2977 C   0  0  0  0  0  0  0  0  0  0  0  0
   19.5244   21.1294   22.8855 H   0  0  0  0  0  0  0  0  0  0  0  0
   20.7662   20.2566   23.7648 H   0  0  0  0  0  0  0  0  0  0  0  0
   19.8593   19.1208   22.1409 C   0  0  0  0  0  0  0  0  0  0  0  0
   18.8605   18.9787   21.7062 H   0  0  0  0  0  0  0  0  0  0  0  0
   20.1838   18.1457   22.5269 H   0  0  0  0  0  0  0  0  0  0  0  0
   20.8402   19.5794   21.0414 C   0  0  0  0  0  0  0  0  0  0  0  0
   20.5210   20.5519   20.6417 H   0  0  0  0  0  0  0  0  0  0  0  0
   21.8395   19.7247   21.4748 H   0  0  0  0  0  0  0  0  0  0  0  0
   20.9241   18.5555   19.8915 C   0  0  0  0  0  0  0  0  0  0  0  0
   19.9429   18.4137   19.4197 H   0  0  0  0  0  0  0  0  0  0  0  0
   21.6253   18.8976   19.1193 H   0  0  0  0  0  0  0  0  0  0  0  0
   21.2724   17.5810   20.2580 H   0  0  0  0  0  0  0  0  0  0  0  0
  1  2  1  0  0  0  0
  1  3  2  0  0  0  0
  1  4  1  0  0  0  0
  4  5  1  0  0  0  0
  4  6  1  0  0  0  0
  4  7  1  0  0  0  0
  7  8  1  0  0  0  0
  7  9  1  0  0  0  0
  7 10  1  0  0  0  0
 10 11  1  0  0  0  0
 10 12  1  0  0  0  0
 10 13  1  0  0  0  0
 13 14  1  0  0  0  0
 13 15  1  0  0  0  0
 13 16  1  0  0  0  0
 16 17  1  0  0  0  0
 16 18  1  0  0  0  0
 16 19  1  0  0  0  0
 19 20  1  0  0  0  0
 19 21  1  0  0  0  0
 19 22  1  0  0  0  0
 22 23  1  0  0  0  0
 22 24  1  0  0  0  0
 22 25  1  0  0  0  0
M  END
> <VM2 Rank>
76

> <Conf_Id>
1209

> <Probability>
0.06

> <Sum Probability>
98.77

> <Delta G>
3.530

> <G>
-4.432

> <E>
-29.684

> <-TS>
25.252

> <U+W>
-50.252

> <U>
9.772

> <W>
-60.024

> <W(PB)>
-62.442

> <W(SA)>
2.418

> <Valence>
8.741

> <Coulomb>
0.479

> <VdW>
0.552

> <VdW6>
-10.626

> <VdW12>
11.178

> <Bond>
0.227

> <Angle>
3.155

> <Pdih>
5.358

> <Idih>
0.001

> <Tether>
0.000

$$$$
VeraChem MOL file


 25 24  0  0  0  0  0  0  0  0999 V2000     
   19.9471   19.6080   26.9996 C   0  0  0  0  0  0  0  0  0  0  0  0
   20.7935   20.1438   27.6880 O   0  5  0  0  0  0  0  0  0  0  0  0
   18.8628   20.1022   26.7609 O   0  0  0  0  0  0  0  0  0  0  0  0
   20.2544   18.2268   26.4278 C   0  0  0  0  0  0  0  0  0  0  0  0
   19.3183   17.7726   26.0842 H   0  0  0  0  0  0  0  0  0  0  0  0
   20.6138   17.6047   27.2557 H   0  0  0  0  0  0  0  0  0  0  0  0
   21.3140   18.2310   25.2919 C   0  0  0  0  0  0  0  0  0  0  0  0
   22.2599   18.6170   25.6965 H   0  0  0  0  0  0  0  0  0  0  0  0
   21.5128   17.1966   24.9806 H   0  0  0  0  0  0  0  0  0  0  0  0
   20.9256   19.0714   24.0503 C   0  0  0  0  0  0  0  0  0  0  0  0
   21.7824   19.0767   23.3650 H   0  0  0  0  0  0  0  0  0  0  0  0
   20.7597   20.1162   24.3468 H   0  0  0  0  0  0  0  0  0  0  0  0
   19.6745   18.5367   23.3110 C   0  0  0  0  0  0  0  0  0  0  0  0
   19.8294   17.4868   23.0277 H   0  0  0  0  0  0  0  0  0  0  0  0
   18.8159   18.5534   23.9946 H   0  0  0  0  0  0  0  0  0  0  0  0
   19.2990   19.3626   22.0573 C   0  0  0  0  0  0  0  0  0  0  0  0
   19.1634   20.4160   22.3383 H   0  0  0  0  0  0  0  0  0  0  0  0
   18.3246   19.0118   21.6906 H   0  0  0  0  0  0  0  0  0  0  0  0
   20.3312   19.2555   20.9118 C   0  0  0  0  0  0  0  0  0  0  0  0
   21.2939   19.6780   21.2275 H   0  0  0  0  0  0  0  0  0  0  0  0
   20.5084   18.1985   20.6702 H   0  0  0  0  0  0  0  0  0  0  0  0
   19.8509   19.9960   19.6472 C   0  0  0  0  0  0  0  0  0  0  0  0
   19.6914   21.0624   19.8538 H   0  0  0  0  0  0  0  0  0  0  0  0
   20.5953   19.9138   18.8447 H   0  0  0  0  0  0  0  0  0  0  0  0
   18.9072   19.5732   19.2783 H   0  0  0  0  0  0  0  0  0  0  0  0
  1  2  1  0  0  0  0
  1  3  2  0  0  0  0
  1  4  1  0  0  0  0
  4  5  1  0  0  0  0
  4  6  1  0  0  0  0
  4  7  1  0  0  0  0
  7  8  1  0  0  0  0
  7  9  1  0  0  0  0
  7 10  1  0  0  0  0
 10 11  1  0  0  0  0
 10 12  1  0  0  0  0
 10 13  1  0  0  0  0
 13 14  1  0  0  0  0
 13 15  1  0  0  0  0
 13 16  1  0  0  0  0
 16 17  1  0  0  0  0
 16 18  1  0  0  0  0
 16 19  1  0  0  0  0
 19 20  1  0  0  0  0
 19 21  1  0  0  0  0
 19 22  1  0  0  0  0
 22 23  1  0  0  0  0
 22 24  1  0  0  0  0
 22 25  1  0  0  0  0
M  END
> <VM2 Rank>
77

> <Conf_Id>
697

> <Probability>
0.06

> <Sum Probability>
98.83

> <Delta G>
3.532

> <G>
-4.431

> <E>
-29.328

> <-TS>
24.897

> <U+W>
-49.895

> <U>
10.274

> <W>
-60.169

> <W(PB)>
-62.622

> <W(SA)>
2.453

> <Valence>
8.912

> <Coulomb>
0.553

> <VdW>
0.809

> <VdW6>
-10.135

> <VdW12>
10.945

> <Bond>
0.229

> <Angle>
3.100

> <Pdih>
5.582

> <Idih>
0.001

> <Tether>
0.000

$$$$
VeraChem MOL file


 25 24  0  0  0  0  0  0  0  0999 V2000     
   19.7025   19.5868   26.7631 C   0  0  0  0  0  0  0  0  0  0  0  0
   20.3532   19.9160   27.7356 O   0  5  0  0  0  0  0  0  0  0  0  0
   18.8546   20.2913   26.2516 O   0  0  0  0  0  0  0  0  0  0  0  0
   19.9450   18.2009   26.1718 C   0  0  0  0  0  0  0  0  0  0  0  0
   19.1180   17.9580   25.4951 H   0  0  0  0  0  0  0  0  0  0  0  0
   19.8915   17.4813   26.9970 H   0  0  0  0  0  0  0  0  0  0  0  0
   21.3105   18.0500   25.4469 C   0  0  0  0  0  0  0  0  0  0  0  0
   22.1160   18.2300   26.1722 H   0  0  0  0  0  0  0  0  0  0  0  0
   21.4265   17.0110   25.1103 H   0  0  0  0  0  0  0  0  0  0  0  0
   21.5048   19.0012   24.2404 C   0  0  0  0  0  0  0  0  0  0  0  0
   22.5240   18.8665   23.8533 H   0  0  0  0  0  0  0  0  0  0  0  0
   21.4371   20.0453   24.5761 H   0  0  0  0  0  0  0  0  0  0  0  0
   20.4937   18.7588   23.0961 C   0  0  0  0  0  0  0  0  0  0  0  0
   20.5148   17.7002   22.8043 H   0  0  0  0  0  0  0  0  0  0  0  0
   19.4797   18.9767   23.4539 H   0  0  0  0  0  0  0  0  0  0  0  0
   20.8049   19.6407   21.8646 C   0  0  0  0  0  0  0  0  0  0  0  0
   21.8446   19.4687   21.5543 H   0  0  0  0  0  0  0  0  0  0  0  0
   20.7344   20.7012   22.1429 H   0  0  0  0  0  0  0  0  0  0  0  0
   19.8802   19.3599   20.6571 C   0  0  0  0  0  0  0  0  0  0  0  0
   20.2412   19.9375   19.7950 H   0  0  0  0  0  0  0  0  0  0  0  0
   19.9522   18.3009   20.3731 H   0  0  0  0  0  0  0  0  0  0  0  0
   18.4036   19.7283   20.9188 C   0  0  0  0  0  0  0  0  0  0  0  0
   17.9642   19.0933   21.6982 H   0  0  0  0  0  0  0  0  0  0  0  0
   18.3100   20.7755   21.2346 H   0  0  0  0  0  0  0  0  0  0  0  0
   17.8073   19.5955   20.0068 H   0  0  0  0  0  0  0  0  0  0  0  0
  1  2  1  0  0  0  0
  1  3  2  0  0  0  0
  1  4  1  0  0  0  0
  4  5  1  0  0  0  0
  4  6  1  0  0  0  0
  4  7  1  0  0  0  0
  7  8  1  0  0  0  0
  7  9  1  0  0  0  0
  7 10  1  0  0  0  0
 10 11  1  0  0  0  0
 10 12  1  0  0  0  0
 10 13  1  0  0  0  0
 13 14  1  0  0  0  0
 13 15  1  0  0  0  0
 13 16  1  0  0  0  0
 16 17  1  0  0  0  0
 16 18  1  0  0  0  0
 16 19  1  0  0  0  0
 19 20  1  0  0  0  0
 19 21  1  0  0  0  0
 19 22  1  0  0  0  0
 22 23  1  0  0  0  0
 22 24  1  0  0  0  0
 22 25  1  0  0  0  0
M  END
> <VM2 Rank>
78

> <Conf_Id>
1081

> <Probability>
0.06

> <Sum Probability>
98.89

> <Delta G>
3.532

> <G>
-4.430

> <E>
-29.384

> <-TS>
24.954

> <U+W>
-49.952

> <U>
10.718

> <W>
-60.670

> <W(PB)>
-63.103

> <W(SA)>
2.433

> <Valence>
8.800

> <Coulomb>
1.201

> <VdW>
0.717

> <VdW6>
-10.234

> <VdW12>
10.951

> <Bond>
0.218

> <Angle>
3.002

> <Pdih>
5.579

> <Idih>
0.001

> <Tether>
0.000

$$$$
VeraChem MOL file


 25 24  0  0  0  0  0  0  0  0999 V2000     
   20.5590   19.6408   26.7535 C   0  0  0  0  0  0  0  0  0  0  0  0
   21.2991   20.4460   26.2238 O   0  5  0  0  0  0  0  0  0  0  0  0
   19.8944   19.8865   27.7412 O   0  0  0  0  0  0  0  0  0  0  0  0
   20.4796   18.2347   26.1655 C   0  0  0  0  0  0  0  0  0  0  0  0
   20.6425   17.5286   26.9880 H   0  0  0  0  0  0  0  0  0  0  0  0
   21.3148   18.0973   25.4695 H   0  0  0  0  0  0  0  0  0  0  0  0
   19.1278   17.9120   25.4719 C   0  0  0  0  0  0  0  0  0  0  0  0
   19.1359   16.8662   25.1364 H   0  0  0  0  0  0  0  0  0  0  0  0
   18.3229   17.9899   26.2158 H   0  0  0  0  0  0  0  0  0  0  0  0
   18.7873   18.8295   24.2718 C   0  0  0  0  0  0  0  0  0  0  0  0
   18.7310   19.8742   24.6074 H   0  0  0  0  0  0  0  0  0  0  0  0
   17.7845   18.5672   23.9082 H   0  0  0  0  0  0  0  0  0  0  0  0
   19.7941   18.7147   23.1039 C   0  0  0  0  0  0  0  0  0  0  0  0
   20.7807   19.0586   23.4385 H   0  0  0  0  0  0  0  0  0  0  0  0
   19.8993   17.6614   22.8108 H   0  0  0  0  0  0  0  0  0  0  0  0
   19.3462   19.5492   21.8815 C   0  0  0  0  0  0  0  0  0  0  0  0
   19.2897   20.6104   22.1600 H   0  0  0  0  0  0  0  0  0  0  0  0
   18.3294   19.2477   21.5952 H   0  0  0  0  0  0  0  0  0  0  0  0
   20.2705   19.3851   20.6524 C   0  0  0  0  0  0  0  0  0  0  0  0
   20.3249   18.3251   20.3681 H   0  0  0  0  0  0  0  0  0  0  0  0
   19.8201   19.9121   19.8000 H   0  0  0  0  0  0  0  0  0  0  0  0
   21.6951   19.9356   20.8805 C   0  0  0  0  0  0  0  0  0  0  0  0
   22.2819   19.8778   19.9547 H   0  0  0  0  0  0  0  0  0  0  0  0
   21.6642   20.9865   21.1963 H   0  0  0  0  0  0  0  0  0  0  0  0
   22.2285   19.3611   21.6481 H   0  0  0  0  0  0  0  0  0  0  0  0
  1  2  1  0  0  0  0
  1  3  2  0  0  0  0
  1  4  1  0  0  0  0
  4  5  1  0  0  0  0
  4  6  1  0  0  0  0
  4  7  1  0  0  0  0
  7  8  1  0  0  0  0
  7  9  1  0  0  0  0
  7 10  1  0  0  0  0
 10 11  1  0  0  0  0
 10 12  1  0  0  0  0
 10 13  1  0  0  0  0
 13 14  1  0  0  0  0
 13 15  1  0  0  0  0
 13 16  1  0  0  0  0
 16 17  1  0  0  0  0
 16 18  1  0  0  0  0
 16 19  1  0  0  0  0
 19 20  1  0  0  0  0
 19 21  1  0  0  0  0
 19 22  1  0  0  0  0
 22 23  1  0  0  0  0
 22 24  1  0  0  0  0
 22 25  1  0  0  0  0
M  END
> <VM2 Rank>
79

> <Conf_Id>
668

> <Probability>
0.06

> <Sum Probability>
98.95

> <Delta G>
3.543

> <G>
-4.420

> <E>
-29.374

> <-TS>
24.955

> <U+W>
-49.942

> <U>
10.717

> <W>
-60.659

> <W(PB)>
-63.085

> <W(SA)>
2.426

> <Valence>
8.799

> <Coulomb>
1.200

> <VdW>
0.718

> <VdW6>
-10.234

> <VdW12>
10.951

> <Bond>
0.218

> <Angle>
3.002

> <Pdih>
5.579

> <Idih>
0.001

> <Tether>
0.000

$$$$
VeraChem MOL file


 25 24  0  0  0  0  0  0  0  0999 V2000     
   19.6165   19.2404   26.7222 C   0  0  0  0  0  0  0  0  0  0  0  0
   19.7156   18.2902   27.4738 O   0  5  0  0  0  0  0  0  0  0  0  0
   18.5611   19.6214   26.2555 O   0  0  0  0  0  0  0  0  0  0  0  0
   20.8845   20.0133   26.3699 C   0  0  0  0  0  0  0  0  0  0  0  0
   21.3918   20.2533   27.3115 H   0  0  0  0  0  0  0  0  0  0  0  0
   20.5982   20.9703   25.9191 H   0  0  0  0  0  0  0  0  0  0  0  0
   21.8617   19.2410   25.4418 C   0  0  0  0  0  0  0  0  0  0  0  0
   22.7672   19.8439   25.2907 H   0  0  0  0  0  0  0  0  0  0  0  0
   22.1845   18.3240   25.9540 H   0  0  0  0  0  0  0  0  0  0  0  0
   21.2665   18.8596   24.0642 C   0  0  0  0  0  0  0  0  0  0  0  0
   20.3958   18.2075   24.2136 H   0  0  0  0  0  0  0  0  0  0  0  0
   22.0096   18.2655   23.5152 H   0  0  0  0  0  0  0  0  0  0  0  0
   20.8669   20.0863   23.2086 C   0  0  0  0  0  0  0  0  0  0  0  0
   20.0285   20.6151   23.6815 H   0  0  0  0  0  0  0  0  0  0  0  0
   21.7076   20.7926   23.1794 H   0  0  0  0  0  0  0  0  0  0  0  0
   20.4798   19.7212   21.7557 C   0  0  0  0  0  0  0  0  0  0  0  0
   21.3184   19.2040   21.2697 H   0  0  0  0  0  0  0  0  0  0  0  0
   20.3206   20.6515   21.1935 H   0  0  0  0  0  0  0  0  0  0  0  0
   19.2055   18.8521   21.6602 C   0  0  0  0  0  0  0  0  0  0  0  0
   19.3710   17.8840   22.1510 H   0  0  0  0  0  0  0  0  0  0  0  0
   18.3809   19.3443   22.1942 H   0  0  0  0  0  0  0  0  0  0  0  0
   18.7949   18.6085   20.1939 C   0  0  0  0  0  0  0  0  0  0  0  0
   19.5923   18.0919   19.6438 H   0  0  0  0  0  0  0  0  0  0  0  0
   17.8910   17.9875   20.1436 H   0  0  0  0  0  0  0  0  0  0  0  0
   18.5834   19.5564   19.6821 H   0  0  0  0  0  0  0  0  0  0  0  0
  1  2  1  0  0  0  0
  1  3  2  0  0  0  0
  1  4  1  0  0  0  0
  4  5  1  0  0  0  0
  4  6  1  0  0  0  0
  4  7  1  0  0  0  0
  7  8  1  0  0  0  0
  7  9  1  0  0  0  0
  7 10  1  0  0  0  0
 10 11  1  0  0  0  0
 10 12  1  0  0  0  0
 10 13  1  0  0  0  0
 13 14  1  0  0  0  0
 13 15  1  0  0  0  0
 13 16  1  0  0  0  0
 16 17  1  0  0  0  0
 16 18  1  0  0  0  0
 16 19  1  0  0  0  0
 19 20  1  0  0  0  0
 19 21  1  0  0  0  0
 19 22  1  0  0  0  0
 22 23  1  0  0  0  0
 22 24  1  0  0  0  0
 22 25  1  0  0  0  0
M  END
> <VM2 Rank>
80

> <Conf_Id>
1375

> <Probability>
0.05

> <Sum Probability>
99.00

> <Delta G>
3.675

> <G>
-4.287

> <E>
-29.287

> <-TS>
25.000

> <U+W>
-49.855

> <U>
10.633

> <W>
-60.487

> <W(PB)>
-62.910

> <W(SA)>
2.423

> <Valence>
8.788

> <Coulomb>
1.198

> <VdW>
0.646

> <VdW6>
-10.380

> <VdW12>
11.027

> <Bond>
0.219

> <Angle>
2.957

> <Pdih>
5.610

> <Idih>
0.001

> <Tether>
0.000

$$$$
VeraChem MOL file


 25 24  0  0  0  0  0  0  0  0999 V2000     
   19.9009   19.8371   26.6520 C   0  0  0  0  0  0  0  0  0  0  0  0
   20.8837   20.5044   26.9097 O   0  5  0  0  0  0  0  0  0  0  0  0
   18.8012   20.3133   26.4497 O   0  0  0  0  0  0  0  0  0  0  0  0
   20.0384   18.3157   26.6472 C   0  0  0  0  0  0  0  0  0  0  0  0
   19.0563   17.8696   26.4492 H   0  0  0  0  0  0  0  0  0  0  0  0
   20.3133   18.0281   27.6686 H   0  0  0  0  0  0  0  0  0  0  0  0
   21.0967   17.7484   25.6597 C   0  0  0  0  0  0  0  0  0  0  0  0
   22.0202   18.3411   25.7192 H   0  0  0  0  0  0  0  0  0  0  0  0
   21.3650   16.7373   25.9944 H   0  0  0  0  0  0  0  0  0  0  0  0
   20.6241   17.6481   24.1881 C   0  0  0  0  0  0  0  0  0  0  0  0
   19.7076   17.0449   24.1344 H   0  0  0  0  0  0  0  0  0  0  0  0
   21.3881   17.0996   23.6202 H   0  0  0  0  0  0  0  0  0  0  0  0
   20.3863   19.0154   23.5079 C   0  0  0  0  0  0  0  0  0  0  0  0
   19.5361   19.5236   23.9799 H   0  0  0  0  0  0  0  0  0  0  0  0
   21.2661   19.6574   23.6527 H   0  0  0  0  0  0  0  0  0  0  0  0
   20.1014   18.8606   21.9982 C   0  0  0  0  0  0  0  0  0  0  0  0
   19.2244   18.2144   21.8553 H   0  0  0  0  0  0  0  0  0  0  0  0
   20.9504   18.3599   21.5129 H   0  0  0  0  0  0  0  0  0  0  0  0
   19.8526   20.2244   21.3203 C   0  0  0  0  0  0  0  0  0  0  0  0
   19.0027   20.7276   21.8022 H   0  0  0  0  0  0  0  0  0  0  0  0
   20.7285   20.8729   21.4608 H   0  0  0  0  0  0  0  0  0  0  0  0
   19.5677   20.0666   19.8131 C   0  0  0  0  0  0  0  0  0  0  0  0
   20.4158   19.5940   19.3005 H   0  0  0  0  0  0  0  0  0  0  0  0
   18.6769   19.4475   19.6445 H   0  0  0  0  0  0  0  0  0  0  0  0
   19.3933   21.0454   19.3479 H   0  0  0  0  0  0  0  0  0  0  0  0
  1  2  1  0  0  0  0
  1  3  2  0  0  0  0
  1  4  1  0  0  0  0
  4  5  1  0  0  0  0
  4  6  1  0  0  0  0
  4  7  1  0  0  0  0
  7  8  1  0  0  0  0
  7  9  1  0  0  0  0
  7 10  1  0  0  0  0
 10 11  1  0  0  0  0
 10 12  1  0  0  0  0
 10 13  1  0  0  0  0
 13 14  1  0  0  0  0
 13 15  1  0  0  0  0
 13 16  1  0  0  0  0
 16 17  1  0  0  0  0
 16 18  1  0  0  0  0
 16 19  1  0  0  0  0
 19 20  1  0  0  0  0
 19 21  1  0  0  0  0
 19 22  1  0  0  0  0
 22 23  1  0  0  0  0
 22 24  1  0  0  0  0
 22 25  1  0  0  0  0
M  END
> <VM2 Rank>
81

> <Conf_Id>
110

> <Probability>
0.05

> <Sum Probability>
99.05

> <Delta G>
3.690

> <G>
-4.272

> <E>
-29.298

> <-TS>
25.026

> <U+W>
-49.866

> <U>
10.903

> <W>
-60.769

> <W(PB)>
-63.223

> <W(SA)>
2.454

> <Valence>
9.445

> <Coulomb>
0.778

> <VdW>
0.679

> <VdW6>
-10.008

> <VdW12>
10.687

> <Bond>
0.201

> <Angle>
3.198

> <Pdih>
6.039

> <Idih>
0.006

> <Tether>
0.000

$$$$
VeraChem MOL file


 25 24  0  0  0  0  0  0  0  0999 V2000     
   20.3277   19.8642   26.6471 C   0  0  0  0  0  0  0  0  0  0  0  0
   21.3533   20.4756   26.4203 O   0  5  0  0  0  0  0  0  0  0  0  0
   19.2745   20.4020   26.9283 O   0  0  0  0  0  0  0  0  0  0  0  0
   20.3839   18.3377   26.6432 C   0  0  0  0  0  0  0  0  0  0  0  0
   20.1714   18.0190   27.6702 H   0  0  0  0  0  0  0  0  0  0  0  0
   21.4098   18.0193   26.4218 H   0  0  0  0  0  0  0  0  0  0  0  0
   19.3835   17.6395   25.6795 C   0  0  0  0  0  0  0  0  0  0  0  0
   19.2531   16.6030   26.0188 H   0  0  0  0  0  0  0  0  0  0  0  0
   18.3940   18.1105   25.7612 H   0  0  0  0  0  0  0  0  0  0  0  0
   19.8309   17.5977   24.1972 C   0  0  0  0  0  0  0  0  0  0  0  0
   19.1295   16.9562   23.6463 H   0  0  0  0  0  0  0  0  0  0  0  0
   20.8149   17.1151   24.1215 H   0  0  0  0  0  0  0  0  0  0  0  0
   19.8781   18.9831   23.5138 C   0  0  0  0  0  0  0  0  0  0  0  0
   18.9278   19.5089   23.6799 H   0  0  0  0  0  0  0  0  0  0  0  0
   20.6679   19.5954   23.9669 H   0  0  0  0  0  0  0  0  0  0  0  0
   20.1454   18.8634   21.9977 C   0  0  0  0  0  0  0  0  0  0  0  0
   19.3555   18.2587   21.5313 H   0  0  0  0  0  0  0  0  0  0  0  0
   21.0935   18.3331   21.8336 H   0  0  0  0  0  0  0  0  0  0  0  0
   20.2041   20.2467   21.3163 C   0  0  0  0  0  0  0  0  0  0  0  0
   19.2568   20.7795   21.4780 H   0  0  0  0  0  0  0  0  0  0  0  0
   20.9945   20.8540   21.7791 H   0  0  0  0  0  0  0  0  0  0  0  0
   20.4716   20.1241   19.8027 C   0  0  0  0  0  0  0  0  0  0  0  0
   21.4294   19.6223   19.6126 H   0  0  0  0  0  0  0  0  0  0  0  0
   19.6784   19.5473   19.3091 H   0  0  0  0  0  0  0  0  0  0  0  0
   20.5102   21.1165   19.3350 H   0  0  0  0  0  0  0  0  0  0  0  0
  1  2  1  0  0  0  0
  1  3  2  0  0  0  0
  1  4  1  0  0  0  0
  4  5  1  0  0  0  0
  4  6  1  0  0  0  0
  4  7  1  0  0  0  0
  7  8  1  0  0  0  0
  7  9  1  0  0  0  0
  7 10  1  0  0  0  0
 10 11  1  0  0  0  0
 10 12  1  0  0  0  0
 10 13  1  0  0  0  0
 13 14  1  0  0  0  0
 13 15  1  0  0  0  0
 13 16  1  0  0  0  0
 16 17  1  0  0  0  0
 16 18  1  0  0  0  0
 16 19  1  0  0  0  0
 19 20  1  0  0  0  0
 19 21  1  0  0  0  0
 19 22  1  0  0  0  0
 22 23  1  0  0  0  0
 22 24  1  0  0  0  0
 22 25  1  0  0  0  0
M  END
> <VM2 Rank>
82

> <Conf_Id>
1278

> <Probability>
0.05

> <Sum Probability>
99.09

> <Delta G>
3.710

> <G>
-4.253

> <E>
-29.279

> <-TS>
25.026

> <U+W>
-49.846

> <U>
10.902

> <W>
-60.749

> <W(PB)>
-63.194

> <W(SA)>
2.445

> <Valence>
9.445

> <Coulomb>
0.778

> <VdW>
0.679

> <VdW6>
-10.008

> <VdW12>
10.687

> <Bond>
0.201

> <Angle>
3.198

> <Pdih>
6.039

> <Idih>
0.006

> <Tether>
0.000

$$$$
VeraChem MOL file


 25 24  0  0  0  0  0  0  0  0999 V2000     
   20.2724   19.9682   26.9782 C   0  0  0  0  0  0  0  0  0  0  0  0
   21.2028   19.8121   27.7441 O   0  5  0  0  0  0  0  0  0  0  0  0
   19.2326   20.5170   27.2853 O   0  0  0  0  0  0  0  0  0  0  0  0
   20.4081   19.4238   25.5608 C   0  0  0  0  0  0  0  0  0  0  0  0
   21.4655   19.4760   25.2754 H   0  0  0  0  0  0  0  0  0  0  0  0
   19.8522   20.0931   24.8946 H   0  0  0  0  0  0  0  0  0  0  0  0
   19.8862   17.9713   25.4234 C   0  0  0  0  0  0  0  0  0  0  0  0
   20.3621   17.3517   26.1961 H   0  0  0  0  0  0  0  0  0  0  0  0
   18.8084   17.9532   25.6360 H   0  0  0  0  0  0  0  0  0  0  0  0
   20.1538   17.3242   24.0412 C   0  0  0  0  0  0  0  0  0  0  0  0
   19.7836   16.2907   24.0827 H   0  0  0  0  0  0  0  0  0  0  0  0
   21.2352   17.2466   23.8638 H   0  0  0  0  0  0  0  0  0  0  0  0
   19.4636   18.0366   22.8505 C   0  0  0  0  0  0  0  0  0  0  0  0
   19.1392   17.2740   22.1293 H   0  0  0  0  0  0  0  0  0  0  0  0
   18.5501   18.5424   23.1919 H   0  0  0  0  0  0  0  0  0  0  0  0
   20.3886   19.0334   22.1128 C   0  0  0  0  0  0  0  0  0  0  0  0
   21.2668   18.4979   21.7271 H   0  0  0  0  0  0  0  0  0  0  0  0
   20.7648   19.7932   22.8079 H   0  0  0  0  0  0  0  0  0  0  0  0
   19.6600   19.7295   20.9441 C   0  0  0  0  0  0  0  0  0  0  0  0
   19.2910   18.9753   20.2352 H   0  0  0  0  0  0  0  0  0  0  0  0
   18.7806   20.2675   21.3245 H   0  0  0  0  0  0  0  0  0  0  0  0
   20.5850   20.7178   20.2057 C   0  0  0  0  0  0  0  0  0  0  0  0
   21.4588   20.2007   19.7879 H   0  0  0  0  0  0  0  0  0  0  0  0
   20.0510   21.2033   19.3785 H   0  0  0  0  0  0  0  0  0  0  0  0
   20.9433   21.5026   20.8848 H   0  0  0  0  0  0  0  0  0  0  0  0
  1  2  1  0  0  0  0
  1  3  2  0  0  0  0
  1  4  1  0  0  0  0
  4  5  1  0  0  0  0
  4  6  1  0  0  0  0
  4  7  1  0  0  0  0
  7  8  1  0  0  0  0
  7  9  1  0  0  0  0
  7 10  1  0  0  0  0
 10 11  1  0  0  0  0
 10 12  1  0  0  0  0
 10 13  1  0  0  0  0
 13 14  1  0  0  0  0
 13 15  1  0  0  0  0
 13 16  1  0  0  0  0
 16 17  1  0  0  0  0
 16 18  1  0  0  0  0
 16 19  1  0  0  0  0
 19 20  1  0  0  0  0
 19 21  1  0  0  0  0
 19 22  1  0  0  0  0
 22 23  1  0  0  0  0
 22 24  1  0  0  0  0
 22 25  1  0  0  0  0
M  END
> <VM2 Rank>
83

> <Conf_Id>
1191

> <Probability>
0.04

> <Sum Probability>
99.14

> <Delta G>
3.720

> <G>
-4.242

> <E>
-29.024

> <-TS>
24.781

> <U+W>
-49.591

> <U>
10.016

> <W>
-59.607

> <W(PB)>
-62.068

> <W(SA)>
2.460

> <Valence>
10.523

> <Coulomb>
-1.441

> <VdW>
0.934

> <VdW6>
-9.399

> <VdW12>
10.333

> <Bond>
0.199

> <Angle>
2.989

> <Pdih>
7.334

> <Idih>
0.001

> <Tether>
0.000

$$$$
VeraChem MOL file


 25 24  0  0  0  0  0  0  0  0999 V2000     
   20.3929   19.4815   27.1364 C   0  0  0  0  0  0  0  0  0  0  0  0
   21.4286   20.1166   27.1621 O   0  5  0  0  0  0  0  0  0  0  0  0
   20.0020   18.7940   28.0592 O   0  0  0  0  0  0  0  0  0  0  0  0
   19.5471   19.5333   25.8692 C   0  0  0  0  0  0  0  0  0  0  0  0
   19.6708   20.5280   25.4262 H   0  0  0  0  0  0  0  0  0  0  0  0
   18.4941   19.4334   26.1577 H   0  0  0  0  0  0  0  0  0  0  0  0
   19.9292   18.4311   24.8477 C   0  0  0  0  0  0  0  0  0  0  0  0
   20.9768   18.5589   24.5445 H   0  0  0  0  0  0  0  0  0  0  0  0
   19.8740   17.4535   25.3461 H   0  0  0  0  0  0  0  0  0  0  0  0
   19.0126   18.4013   23.5989 C   0  0  0  0  0  0  0  0  0  0  0  0
   17.9851   18.1802   23.9179 H   0  0  0  0  0  0  0  0  0  0  0  0
   19.3119   17.5614   22.9582 H   0  0  0  0  0  0  0  0  0  0  0  0
   19.0008   19.7054   22.7587 C   0  0  0  0  0  0  0  0  0  0  0  0
   18.3281   19.5667   21.9023 H   0  0  0  0  0  0  0  0  0  0  0  0
   18.5526   20.5137   23.3509 H   0  0  0  0  0  0  0  0  0  0  0  0
   20.3888   20.1730   22.2471 C   0  0  0  0  0  0  0  0  0  0  0  0
   21.0163   20.4505   23.1043 H   0  0  0  0  0  0  0  0  0  0  0  0
   20.2556   21.0953   21.6657 H   0  0  0  0  0  0  0  0  0  0  0  0
   21.1516   19.1419   21.3793 C   0  0  0  0  0  0  0  0  0  0  0  0
   22.1272   19.5671   21.1069 H   0  0  0  0  0  0  0  0  0  0  0  0
   21.3665   18.2392   21.9664 H   0  0  0  0  0  0  0  0  0  0  0  0
   20.3994   18.7559   20.0873 C   0  0  0  0  0  0  0  0  0  0  0  0
   20.1575   19.6464   19.4928 H   0  0  0  0  0  0  0  0  0  0  0  0
   21.0156   18.0919   19.4676 H   0  0  0  0  0  0  0  0  0  0  0  0
   19.4645   18.2278   20.3132 H   0  0  0  0  0  0  0  0  0  0  0  0
  1  2  1  0  0  0  0
  1  3  2  0  0  0  0
  1  4  1  0  0  0  0
  4  5  1  0  0  0  0
  4  6  1  0  0  0  0
  4  7  1  0  0  0  0
  7  8  1  0  0  0  0
  7  9  1  0  0  0  0
  7 10  1  0  0  0  0
 10 11  1  0  0  0  0
 10 12  1  0  0  0  0
 10 13  1  0  0  0  0
 13 14  1  0  0  0  0
 13 15  1  0  0  0  0
 13 16  1  0  0  0  0
 16 17  1  0  0  0  0
 16 18  1  0  0  0  0
 16 19  1  0  0  0  0
 19 20  1  0  0  0  0
 19 21  1  0  0  0  0
 19 22  1  0  0  0  0
 22 23  1  0  0  0  0
 22 24  1  0  0  0  0
 22 25  1  0  0  0  0
M  END
> <VM2 Rank>
84

> <Conf_Id>
253

> <Probability>
0.04

> <Sum Probability>
99.18

> <Delta G>
3.736

> <G>
-4.226

> <E>
-29.676

> <-TS>
25.450

> <U+W>
-50.244

> <U>
9.324

> <W>
-59.568

> <W(PB)>
-61.965

> <W(SA)>
2.397

> <Valence>
9.360

> <Coulomb>
-0.854

> <VdW>
0.819

> <VdW6>
-11.207

> <VdW12>
12.026

> <Bond>
0.279

> <Angle>
3.545

> <Pdih>
5.535

> <Idih>
0.001

> <Tether>
0.000

$$$$
VeraChem MOL file


 25 24  0  0  0  0  0  0  0  0999 V2000     
   19.7548   18.8233   27.0174 C   0  0  0  0  0  0  0  0  0  0  0  0
   20.5066   18.2721   27.7970 O   0  5  0  0  0  0  0  0  0  0  0  0
   18.6635   19.2581   27.3282 O   0  0  0  0  0  0  0  0  0  0  0  0
   20.2164   18.9997   25.5753 C   0  0  0  0  0  0  0  0  0  0  0  0
   19.3300   18.9377   24.9342 H   0  0  0  0  0  0  0  0  0  0  0  0
   20.8690   18.1562   25.3206 H   0  0  0  0  0  0  0  0  0  0  0  0
   20.9572   20.3407   25.3423 C   0  0  0  0  0  0  0  0  0  0  0  0
   20.2637   21.1730   25.5257 H   0  0  0  0  0  0  0  0  0  0  0  0
   21.7562   20.4361   26.0906 H   0  0  0  0  0  0  0  0  0  0  0  0
   21.5840   20.4880   23.9330 C   0  0  0  0  0  0  0  0  0  0  0  0
   22.3524   19.7180   23.7793 H   0  0  0  0  0  0  0  0  0  0  0  0
   22.1154   21.4491   23.9062 H   0  0  0  0  0  0  0  0  0  0  0  0
   20.5629   20.4685   22.7672 C   0  0  0  0  0  0  0  0  0  0  0  0
   19.5885   20.8397   23.1132 H   0  0  0  0  0  0  0  0  0  0  0  0
   20.9020   21.1734   21.9958 H   0  0  0  0  0  0  0  0  0  0  0  0
   20.4078   19.0759   22.1113 C   0  0  0  0  0  0  0  0  0  0  0  0
   20.1045   18.3326   22.8579 H   0  0  0  0  0  0  0  0  0  0  0  0
   21.3800   18.7483   21.7186 H   0  0  0  0  0  0  0  0  0  0  0  0
   19.3742   19.0973   20.9657 C   0  0  0  0  0  0  0  0  0  0  0  0
   18.3992   19.4238   21.3533 H   0  0  0  0  0  0  0  0  0  0  0  0
   19.6778   19.8308   20.2059 H   0  0  0  0  0  0  0  0  0  0  0  0
   19.2255   17.7103   20.3085 C   0  0  0  0  0  0  0  0  0  0  0  0
   18.8912   16.9630   21.0400 H   0  0  0  0  0  0  0  0  0  0  0  0
   18.4872   17.7439   19.4968 H   0  0  0  0  0  0  0  0  0  0  0  0
   20.1801   17.3722   19.8846 H   0  0  0  0  0  0  0  0  0  0  0  0
  1  2  1  0  0  0  0
  1  3  2  0  0  0  0
  1  4  1  0  0  0  0
  4  5  1  0  0  0  0
  4  6  1  0  0  0  0
  4  7  1  0  0  0  0
  7  8  1  0  0  0  0
  7  9  1  0  0  0  0
  7 10  1  0  0  0  0
 10 11  1  0  0  0  0
 10 12  1  0  0  0  0
 10 13  1  0  0  0  0
 13 14  1  0  0  0  0
 13 15  1  0  0  0  0
 13 16  1  0  0  0  0
 16 17  1  0  0  0  0
 16 18  1  0  0  0  0
 16 19  1  0  0  0  0
 19 20  1  0  0  0  0
 19 21  1  0  0  0  0
 19 22  1  0  0  0  0
 22 23  1  0  0  0  0
 22 24  1  0  0  0  0
 22 25  1  0  0  0  0
M  END
> <VM2 Rank>
85

> <Conf_Id>
614

> <Probability>
0.04

> <Sum Probability>
99.22

> <Delta G>
3.762

> <G>
-4.200

> <E>
-28.981

> <-TS>
24.781

> <U+W>
-49.549

> <U>
10.016

> <W>
-59.565

> <W(PB)>
-62.019

> <W(SA)>
2.454

> <Valence>
10.523

> <Coulomb>
-1.441

> <VdW>
0.934

> <VdW6>
-9.398

> <VdW12>
10.333

> <Bond>
0.199

> <Angle>
2.988

> <Pdih>
7.334

> <Idih>
0.001

> <Tether>
0.000

$$$$
VeraChem MOL file


 25 24  0  0  0  0  0  0  0  0999 V2000     
   20.3700   19.5169   27.1354 C   0  0  0  0  0  0  0  0  0  0  0  0
   21.3724   20.2034   27.1598 O   0  5  0  0  0  0  0  0  0  0  0  0
   19.5593   19.4773   28.0399 O   0  0  0  0  0  0  0  0  0  0  0  0
   20.1041   18.6738   25.8935 C   0  0  0  0  0  0  0  0  0  0  0  0
   19.5748   17.7655   26.2048 H   0  0  0  0  0  0  0  0  0  0  0  0
   21.0734   18.3634   25.4874 H   0  0  0  0  0  0  0  0  0  0  0  0
   19.2813   19.4312   24.8194 C   0  0  0  0  0  0  0  0  0  0  0  0
   18.3541   19.7995   25.2798 H   0  0  0  0  0  0  0  0  0  0  0  0
   19.8341   20.3226   24.4946 H   0  0  0  0  0  0  0  0  0  0  0  0
   18.9113   18.5576   23.5944 C   0  0  0  0  0  0  0  0  0  0  0  0
   18.2842   19.1477   22.9133 H   0  0  0  0  0  0  0  0  0  0  0  0
   18.2812   17.7232   23.9308 H   0  0  0  0  0  0  0  0  0  0  0  0
   20.1177   17.9813   22.8074 C   0  0  0  0  0  0  0  0  0  0  0  0
   20.6564   17.2664   23.4427 H   0  0  0  0  0  0  0  0  0  0  0  0
   19.7382   17.3902   21.9638 H   0  0  0  0  0  0  0  0  0  0  0  0
   21.1252   19.0363   22.2792 C   0  0  0  0  0  0  0  0  0  0  0  0
   21.9270   18.5154   21.7386 H   0  0  0  0  0  0  0  0  0  0  0  0
   21.6129   19.5296   23.1303 H   0  0  0  0  0  0  0  0  0  0  0  0
   20.5190   20.1182   21.3517 C   0  0  0  0  0  0  0  0  0  0  0  0
   19.7684   20.7058   21.8967 H   0  0  0  0  0  0  0  0  0  0  0  0
   21.3130   20.8238   21.0714 H   0  0  0  0  0  0  0  0  0  0  0  0
   19.8927   19.5381   20.0652 C   0  0  0  0  0  0  0  0  0  0  0  0
   19.0228   18.9097   20.2938 H   0  0  0  0  0  0  0  0  0  0  0  0
   19.5549   20.3464   19.4039 H   0  0  0  0  0  0  0  0  0  0  0  0
   20.6213   18.9306   19.5129 H   0  0  0  0  0  0  0  0  0  0  0  0
  1  2  1  0  0  0  0
  1  3  2  0  0  0  0
  1  4  1  0  0  0  0
  4  5  1  0  0  0  0
  4  6  1  0  0  0  0
  4  7  1  0  0  0  0
  7  8  1  0  0  0  0
  7  9  1  0  0  0  0
  7 10  1  0  0  0  0
 10 11  1  0  0  0  0
 10 12  1  0  0  0  0
 10 13  1  0  0  0  0
 13 14  1  0  0  0  0
 13 15  1  0  0  0  0
 13 16  1  0  0  0  0
 16 17  1  0  0  0  0
 16 18  1  0  0  0  0
 16 19  1  0  0  0  0
 19 20  1  0  0  0  0
 19 21  1  0  0  0  0
 19 22  1  0  0  0  0
 22 23  1  0  0  0  0
 22 24  1  0  0  0  0
 22 25  1  0  0  0  0
M  END
> <VM2 Rank>
86

> <Conf_Id>
591

> <Probability>
0.04

> <Sum Probability>
99.26

> <Delta G>
3.781

> <G>
-4.182

> <E>
-29.632

> <-TS>
25.451

> <U+W>
-50.200

> <U>
9.324

> <W>
-59.524

> <W(PB)>
-61.904

> <W(SA)>
2.381

> <Valence>
9.360

> <Coulomb>
-0.855

> <VdW>
0.819

> <VdW6>
-11.207

> <VdW12>
12.026

> <Bond>
0.279

> <Angle>
3.545

> <Pdih>
5.535

> <Idih>
0.001

> <Tether>
0.000

$$$$
VeraChem MOL file


 25 24  0  0  0  0  0  0  0  0999 V2000     
   19.5515   19.1584   26.9671 C   0  0  0  0  0  0  0  0  0  0  0  0
   20.0437   19.0190   28.0695 O   0  5  0  0  0  0  0  0  0  0  0  0
   18.4654   19.6681   26.7742 O   0  0  0  0  0  0  0  0  0  0  0  0
   20.3508   18.6870   25.7578 C   0  0  0  0  0  0  0  0  0  0  0  0
   19.6399   18.3475   24.9980 H   0  0  0  0  0  0  0  0  0  0  0  0
   20.9366   17.8109   26.0604 H   0  0  0  0  0  0  0  0  0  0  0  0
   21.2904   19.7859   25.1945 C   0  0  0  0  0  0  0  0  0  0  0  0
   20.7141   20.6897   24.9528 H   0  0  0  0  0  0  0  0  0  0  0  0
   21.9894   20.0739   25.9920 H   0  0  0  0  0  0  0  0  0  0  0  0
   22.1077   19.3246   23.9611 C   0  0  0  0  0  0  0  0  0  0  0  0
   22.2834   18.2410   24.0042 H   0  0  0  0  0  0  0  0  0  0  0  0
   23.1013   19.7901   24.0157 H   0  0  0  0  0  0  0  0  0  0  0  0
   21.4882   19.7089   22.5938 C   0  0  0  0  0  0  0  0  0  0  0  0
   21.4103   20.8024   22.5232 H   0  0  0  0  0  0  0  0  0  0  0  0
   22.1835   19.3982   21.8020 H   0  0  0  0  0  0  0  0  0  0  0  0
   20.1042   19.0783   22.3220 C   0  0  0  0  0  0  0  0  0  0  0  0
   19.3698   19.4806   23.0319 H   0  0  0  0  0  0  0  0  0  0  0  0
   20.1552   17.9930   22.4842 H   0  0  0  0  0  0  0  0  0  0  0  0
   19.6187   19.3627   20.8850 C   0  0  0  0  0  0  0  0  0  0  0  0
   19.5704   20.4478   20.7187 H   0  0  0  0  0  0  0  0  0  0  0  0
   20.3422   18.9605   20.1623 H   0  0  0  0  0  0  0  0  0  0  0  0
   18.2324   18.7413   20.6209 C   0  0  0  0  0  0  0  0  0  0  0  0
   17.4814   19.1497   21.3100 H   0  0  0  0  0  0  0  0  0  0  0  0
   17.9023   18.9530   19.5956 H   0  0  0  0  0  0  0  0  0  0  0  0
   18.2595   17.6514   20.7503 H   0  0  0  0  0  0  0  0  0  0  0  0
  1  2  1  0  0  0  0
  1  3  2  0  0  0  0
  1  4  1  0  0  0  0
  4  5  1  0  0  0  0
  4  6  1  0  0  0  0
  4  7  1  0  0  0  0
  7  8  1  0  0  0  0
  7  9  1  0  0  0  0
  7 10  1  0  0  0  0
 10 11  1  0  0  0  0
 10 12  1  0  0  0  0
 10 13  1  0  0  0  0
 13 14  1  0  0  0  0
 13 15  1  0  0  0  0
 13 16  1  0  0  0  0
 16 17  1  0  0  0  0
 16 18  1  0  0  0  0
 16 19  1  0  0  0  0
 19 20  1  0  0  0  0
 19 21  1  0  0  0  0
 19 22  1  0  0  0  0
 22 23  1  0  0  0  0
 22 24  1  0  0  0  0
 22 25  1  0  0  0  0
M  END
> <VM2 Rank>
87

> <Conf_Id>
1241

> <Probability>
0.04

> <Sum Probability>
99.30

> <Delta G>
3.844

> <G>
-4.118

> <E>
-28.907

> <-TS>
24.789

> <U+W>
-49.475

> <U>
10.344

> <W>
-59.819

> <W(PB)>
-62.261

> <W(SA)>
2.442

> <Valence>
10.527

> <Coulomb>
-1.067

> <VdW>
0.883

> <VdW6>
-9.455

> <VdW12>
10.339

> <Bond>
0.207

> <Angle>
3.010

> <Pdih>
7.310

> <Idih>
0.001

> <Tether>
0.000

$$$$
VeraChem MOL file


 25 24  0  0  0  0  0  0  0  0999 V2000     
   20.7674   19.2357   26.9532 C   0  0  0  0  0  0  0  0  0  0  0  0
   21.7750   19.8792   26.7361 O   0  5  0  0  0  0  0  0  0  0  0  0
   20.3226   19.0361   28.0663 O   0  0  0  0  0  0  0  0  0  0  0  0
   20.0069   18.6651   25.7617 C   0  0  0  0  0  0  0  0  0  0  0  0
   19.5440   17.7222   26.0763 H   0  0  0  0  0  0  0  0  0  0  0  0
   20.7374   18.4176   24.9853 H   0  0  0  0  0  0  0  0  0  0  0  0
   18.9227   19.6352   25.2219 C   0  0  0  0  0  0  0  0  0  0  0  0
   18.2113   19.8332   26.0357 H   0  0  0  0  0  0  0  0  0  0  0  0
   19.3739   20.6044   24.9685 H   0  0  0  0  0  0  0  0  0  0  0  0
   18.1424   19.0722   24.0069 C   0  0  0  0  0  0  0  0  0  0  0  0
   17.0993   19.4081   24.0851 H   0  0  0  0  0  0  0  0  0  0  0  0
   18.1065   17.9752   24.0524 H   0  0  0  0  0  0  0  0  0  0  0  0
   18.6764   19.5300   22.6264 C   0  0  0  0  0  0  0  0  0  0  0  0
   18.0081   19.1326   21.8503 H   0  0  0  0  0  0  0  0  0  0  0  0
   18.6135   20.6245   22.5557 H   0  0  0  0  0  0  0  0  0  0  0  0
   20.1226   19.0795   22.3218 C   0  0  0  0  0  0  0  0  0  0  0  0
   20.2133   17.9968   22.4835 H   0  0  0  0  0  0  0  0  0  0  0  0
   20.8162   19.5727   23.0151 H   0  0  0  0  0  0  0  0  0  0  0  0
   20.5348   19.4210   20.8743 C   0  0  0  0  0  0  0  0  0  0  0  0
   19.8517   18.9292   20.1680 H   0  0  0  0  0  0  0  0  0  0  0  0
   20.4413   20.5032   20.7085 H   0  0  0  0  0  0  0  0  0  0  0  0
   21.9822   18.9799   20.5774 C   0  0  0  0  0  0  0  0  0  0  0  0
   22.6911   19.4812   21.2494 H   0  0  0  0  0  0  0  0  0  0  0  0
   22.0965   17.8956   20.7058 H   0  0  0  0  0  0  0  0  0  0  0  0
   22.2590   19.2302   19.5450 H   0  0  0  0  0  0  0  0  0  0  0  0
  1  2  1  0  0  0  0
  1  3  2  0  0  0  0
  1  4  1  0  0  0  0
  4  5  1  0  0  0  0
  4  6  1  0  0  0  0
  4  7  1  0  0  0  0
  7  8  1  0  0  0  0
  7  9  1  0  0  0  0
  7 10  1  0  0  0  0
 10 11  1  0  0  0  0
 10 12  1  0  0  0  0
 10 13  1  0  0  0  0
 13 14  1  0  0  0  0
 13 15  1  0  0  0  0
 13 16  1  0  0  0  0
 16 17  1  0  0  0  0
 16 18  1  0  0  0  0
 16 19  1  0  0  0  0
 19 20  1  0  0  0  0
 19 21  1  0  0  0  0
 19 22  1  0  0  0  0
 22 23  1  0  0  0  0
 22 24  1  0  0  0  0
 22 25  1  0  0  0  0
M  END
> <VM2 Rank>
88

> <Conf_Id>
1075

> <Probability>
0.04

> <Sum Probability>
99.33

> <Delta G>
3.860

> <G>
-4.103

> <E>
-28.891

> <-TS>
24.789

> <U+W>
-49.459

> <U>
10.344

> <W>
-59.803

> <W(PB)>
-62.244

> <W(SA)>
2.441

> <Valence>
10.527

> <Coulomb>
-1.067

> <VdW>
0.883

> <VdW6>
-9.455

> <VdW12>
10.338

> <Bond>
0.207

> <Angle>
3.010

> <Pdih>
7.309

> <Idih>
0.001

> <Tether>
0.000

$$$$
VeraChem MOL file


 25 24  0  0  0  0  0  0  0  0999 V2000     
   20.3484   19.8219   27.0877 C   0  0  0  0  0  0  0  0  0  0  0  0
   21.4748   20.2653   27.1939 O   0  5  0  0  0  0  0  0  0  0  0  0
   19.3702   20.3417   27.5872 O   0  0  0  0  0  0  0  0  0  0  0  0
   20.1488   18.5528   26.2669 C   0  0  0  0  0  0  0  0  0  0  0  0
   19.3192   17.9885   26.7094 H   0  0  0  0  0  0  0  0  0  0  0  0
   21.0504   17.9366   26.3670 H   0  0  0  0  0  0  0  0  0  0  0  0
   19.8630   18.8425   24.7728 C   0  0  0  0  0  0  0  0  0  0  0  0
   18.9617   19.4653   24.6893 H   0  0  0  0  0  0  0  0  0  0  0  0
   20.6988   19.4229   24.3602 H   0  0  0  0  0  0  0  0  0  0  0  0
   19.6770   17.5415   23.9606 C   0  0  0  0  0  0  0  0  0  0  0  0
   18.9228   16.9155   24.4568 H   0  0  0  0  0  0  0  0  0  0  0  0
   20.6127   16.9658   23.9744 H   0  0  0  0  0  0  0  0  0  0  0  0
   19.2328   17.7652   22.4933 C   0  0  0  0  0  0  0  0  0  0  0  0
   19.0844   16.7761   22.0388 H   0  0  0  0  0  0  0  0  0  0  0  0
   18.2499   18.2552   22.4675 H   0  0  0  0  0  0  0  0  0  0  0  0
   20.2472   18.5488   21.6218 C   0  0  0  0  0  0  0  0  0  0  0  0
   20.2354   18.1254   20.6081 H   0  0  0  0  0  0  0  0  0  0  0  0
   21.2666   18.3997   22.0032 H   0  0  0  0  0  0  0  0  0  0  0  0
   19.9269   20.0578   21.5160 C   0  0  0  0  0  0  0  0  0  0  0  0
   18.9272   20.1916   21.0804 H   0  0  0  0  0  0  0  0  0  0  0  0
   19.8993   20.5173   22.5114 H   0  0  0  0  0  0  0  0  0  0  0  0
   20.9638   20.7964   20.6459 C   0  0  0  0  0  0  0  0  0  0  0  0
   20.9873   20.3855   19.6281 H   0  0  0  0  0  0  0  0  0  0  0  0
   20.7189   21.8641   20.5749 H   0  0  0  0  0  0  0  0  0  0  0  0
   21.9704   20.7075   21.0752 H   0  0  0  0  0  0  0  0  0  0  0  0
  1  2  1  0  0  0  0
  1  3  2  0  0  0  0
  1  4  1  0  0  0  0
  4  5  1  0  0  0  0
  4  6  1  0  0  0  0
  4  7  1  0  0  0  0
  7  8  1  0  0  0  0
  7  9  1  0  0  0  0
  7 10  1  0  0  0  0
 10 11  1  0  0  0  0
 10 12  1  0  0  0  0
 10 13  1  0  0  0  0
 13 14  1  0  0  0  0
 13 15  1  0  0  0  0
 13 16  1  0  0  0  0
 16 17  1  0  0  0  0
 16 18  1  0  0  0  0
 16 19  1  0  0  0  0
 19 20  1  0  0  0  0
 19 21  1  0  0  0  0
 19 22  1  0  0  0  0
 22 23  1  0  0  0  0
 22 24  1  0  0  0  0
 22 25  1  0  0  0  0
M  END
> <VM2 Rank>
89

> <Conf_Id>
7

> <Probability>
0.04

> <Sum Probability>
99.37

> <Delta G>
3.865

> <G>
-4.098

> <E>
-28.879

> <-TS>
24.782

> <U+W>
-49.447

> <U>
10.480

> <W>
-59.927

> <W(PB)>
-62.373

> <W(SA)>
2.445

> <Valence>
10.552

> <Coulomb>
-0.995

> <VdW>
0.923

> <VdW6>
-9.371

> <VdW12>
10.295

> <Bond>
0.194

> <Angle>
2.991

> <Pdih>
7.366

> <Idih>
0.001

> <Tether>
0.000

$$$$
VeraChem MOL file


 25 24  0  0  0  0  0  0  0  0999 V2000     
   19.7427   19.6048   27.1883 C   0  0  0  0  0  0  0  0  0  0  0  0
   20.5887   19.9588   27.9856 O   0  5  0  0  0  0  0  0  0  0  0  0
   18.6157   20.0582   27.1565 O   0  0  0  0  0  0  0  0  0  0  0  0
   20.1227   18.5477   26.1577 C   0  0  0  0  0  0  0  0  0  0  0  0
   19.2268   17.9585   25.9281 H   0  0  0  0  0  0  0  0  0  0  0  0
   20.8491   17.8678   26.6187 H   0  0  0  0  0  0  0  0  0  0  0  0
   20.7080   19.1566   24.8598 C   0  0  0  0  0  0  0  0  0  0  0  0
   19.9767   19.8511   24.4290 H   0  0  0  0  0  0  0  0  0  0  0  0
   21.5967   19.7524   25.1099 H   0  0  0  0  0  0  0  0  0  0  0  0
   21.0900   18.0629   23.8345 C   0  0  0  0  0  0  0  0  0  0  0  0
   20.2252   17.4203   23.6195 H   0  0  0  0  0  0  0  0  0  0  0  0
   21.8474   17.4129   24.2937 H   0  0  0  0  0  0  0  0  0  0  0  0
   21.6680   18.6348   22.5152 C   0  0  0  0  0  0  0  0  0  0  0  0
   22.1606   19.5990   22.7010 H   0  0  0  0  0  0  0  0  0  0  0  0
   22.4602   17.9577   22.1675 H   0  0  0  0  0  0  0  0  0  0  0  0
   20.6391   18.7762   21.3653 C   0  0  0  0  0  0  0  0  0  0  0  0
   20.2230   17.7884   21.1243 H   0  0  0  0  0  0  0  0  0  0  0  0
   21.1724   19.1130   20.4658 H   0  0  0  0  0  0  0  0  0  0  0  0
   19.4857   19.7595   21.6610 C   0  0  0  0  0  0  0  0  0  0  0  0
   18.8672   19.3725   22.4814 H   0  0  0  0  0  0  0  0  0  0  0  0
   19.8949   20.7250   21.9888 H   0  0  0  0  0  0  0  0  0  0  0  0
   18.5926   19.9745   20.4223 C   0  0  0  0  0  0  0  0  0  0  0  0
   18.1502   19.0268   20.0883 H   0  0  0  0  0  0  0  0  0  0  0  0
   17.7738   20.6686   20.6519 H   0  0  0  0  0  0  0  0  0  0  0  0
   19.1702   20.3960   19.5892 H   0  0  0  0  0  0  0  0  0  0  0  0
  1  2  1  0  0  0  0
  1  3  2  0  0  0  0
  1  4  1  0  0  0  0
  4  5  1  0  0  0  0
  4  6  1  0  0  0  0
  4  7  1  0  0  0  0
  7  8  1  0  0  0  0
  7  9  1  0  0  0  0
  7 10  1  0  0  0  0
 10 11  1  0  0  0  0
 10 12  1  0  0  0  0
 10 13  1  0  0  0  0
 13 14  1  0  0  0  0
 13 15  1  0  0  0  0
 13 16  1  0  0  0  0
 16 17  1  0  0  0  0
 16 18  1  0  0  0  0
 16 19  1  0  0  0  0
 19 20  1  0  0  0  0
 19 21  1  0  0  0  0
 19 22  1  0  0  0  0
 22 23  1  0  0  0  0
 22 24  1  0  0  0  0
 22 25  1  0  0  0  0
M  END
> <VM2 Rank>
90

> <Conf_Id>
720

> <Probability>
0.03

> <Sum Probability>
99.40

> <Delta G>
3.907

> <G>
-4.055

> <E>
-28.830

> <-TS>
24.775

> <U+W>
-49.398

> <U>
10.175

> <W>
-59.573

> <W(PB)>
-62.030

> <W(SA)>
2.457

> <Valence>
10.554

> <Coulomb>
-1.316

> <VdW>
0.936

> <VdW6>
-9.356

> <VdW12>
10.292

> <Bond>
0.194

> <Angle>
2.996

> <Pdih>
7.363

> <Idih>
0.001

> <Tether>
0.000

$$$$
VeraChem MOL file


 25 24  0  0  0  0  0  0  0  0999 V2000     
   20.0361   19.0480   27.5084 C   0  0  0  0  0  0  0  0  0  0  0  0
   21.0805   19.1188   28.1256 O   0  5  0  0  0  0  0  0  0  0  0  0
   18.9544   19.3379   27.9800 O   0  0  0  0  0  0  0  0  0  0  0  0
   20.0885   18.5907   26.0551 C   0  0  0  0  0  0  0  0  0  0  0  0
   19.1589   18.0530   25.8335 H   0  0  0  0  0  0  0  0  0  0  0  0
   20.9108   17.8723   25.9533 H   0  0  0  0  0  0  0  0  0  0  0  0
   20.2776   19.7636   25.0618 C   0  0  0  0  0  0  0  0  0  0  0  0
   19.4535   20.4801   25.1847 H   0  0  0  0  0  0  0  0  0  0  0  0
   21.2054   20.2993   25.3058 H   0  0  0  0  0  0  0  0  0  0  0  0
   20.3273   19.2741   23.5981 C   0  0  0  0  0  0  0  0  0  0  0  0
   19.3978   18.7368   23.3696 H   0  0  0  0  0  0  0  0  0  0  0  0
   21.1547   18.5619   23.4760 H   0  0  0  0  0  0  0  0  0  0  0  0
   20.5037   20.4472   22.6086 C   0  0  0  0  0  0  0  0  0  0  0  0
   19.6278   21.1077   22.6658 H   0  0  0  0  0  0  0  0  0  0  0  0
   21.3660   21.0514   22.9220 H   0  0  0  0  0  0  0  0  0  0  0  0
   20.7255   20.0125   21.1379 C   0  0  0  0  0  0  0  0  0  0  0  0
   21.6519   19.4282   21.0532 H   0  0  0  0  0  0  0  0  0  0  0  0
   20.8925   20.9232   20.5465 H   0  0  0  0  0  0  0  0  0  0  0  0
   19.5427   19.2376   20.5049 C   0  0  0  0  0  0  0  0  0  0  0  0
   18.5964   19.5329   20.9788 H   0  0  0  0  0  0  0  0  0  0  0  0
   19.4585   19.5276   19.4484 H   0  0  0  0  0  0  0  0  0  0  0  0
   19.7167   17.7035   20.5657 C   0  0  0  0  0  0  0  0  0  0  0  0
   19.7894   17.3410   21.5972 H   0  0  0  0  0  0  0  0  0  0  0  0
   18.8623   17.2014   20.0937 H   0  0  0  0  0  0  0  0  0  0  0  0
   20.6247   17.3924   20.0329 H   0  0  0  0  0  0  0  0  0  0  0  0
  1  2  1  0  0  0  0
  1  3  2  0  0  0  0
  1  4  1  0  0  0  0
  4  5  1  0  0  0  0
  4  6  1  0  0  0  0
  4  7  1  0  0  0  0
  7  8  1  0  0  0  0
  7  9  1  0  0  0  0
  7 10  1  0  0  0  0
 10 11  1  0  0  0  0
 10 12  1  0  0  0  0
 10 13  1  0  0  0  0
 13 14  1  0  0  0  0
 13 15  1  0  0  0  0
 13 16  1  0  0  0  0
 16 17  1  0  0  0  0
 16 18  1  0  0  0  0
 16 19  1  0  0  0  0
 19 20  1  0  0  0  0
 19 21  1  0  0  0  0
 19 22  1  0  0  0  0
 22 23  1  0  0  0  0
 22 24  1  0  0  0  0
 22 25  1  0  0  0  0
M  END
> <VM2 Rank>
91

> <Conf_Id>
980

> <Probability>
0.03

> <Sum Probability>
99.43

> <Delta G>
3.934

> <G>
-4.029

> <E>
-28.762

> <-TS>
24.733

> <U+W>
-49.330

> <U>
9.708

> <W>
-59.037

> <W(PB)>
-61.494

> <W(SA)>
2.456

> <Valence>
10.529

> <Coulomb>
-1.841

> <VdW>
1.019

> <VdW6>
-9.201

> <VdW12>
10.221

> <Bond>
0.191

> <Angle>
3.009

> <Pdih>
7.328

> <Idih>
0.001

> <Tether>
0.000

$$$$
VeraChem MOL file


 25 24  0  0  0  0  0  0  0  0999 V2000     
   19.8963   19.1945   27.5096 C   0  0  0  0  0  0  0  0  0  0  0  0
   20.8612   19.3849   28.2233 O   0  5  0  0  0  0  0  0  0  0  0  0
   18.7594   19.4890   27.8216 O   0  0  0  0  0  0  0  0  0  0  0  0
   20.1277   18.5709   26.1379 C   0  0  0  0  0  0  0  0  0  0  0  0
   19.2461   17.9703   25.8837 H   0  0  0  0  0  0  0  0  0  0  0  0
   20.9778   17.8826   26.2155 H   0  0  0  0  0  0  0  0  0  0  0  0
   20.3923   19.6251   25.0348 C   0  0  0  0  0  0  0  0  0  0  0  0
   19.5379   20.3139   24.9790 H   0  0  0  0  0  0  0  0  0  0  0  0
   21.2697   20.2265   25.3103 H   0  0  0  0  0  0  0  0  0  0  0  0
   20.6218   18.9692   23.6559 C   0  0  0  0  0  0  0  0  0  0  0  0
   19.7475   18.3619   23.3934 H   0  0  0  0  0  0  0  0  0  0  0  0
   21.4763   18.2815   23.7166 H   0  0  0  0  0  0  0  0  0  0  0  0
   20.8915   20.0258   22.5588 C   0  0  0  0  0  0  0  0  0  0  0  0
   20.0709   20.7552   22.5202 H   0  0  0  0  0  0  0  0  0  0  0  0
   21.7901   20.5908   22.8419 H   0  0  0  0  0  0  0  0  0  0  0  0
   21.1208   19.4094   21.1553 C   0  0  0  0  0  0  0  0  0  0  0  0
   21.5493   18.4020   21.2468 H   0  0  0  0  0  0  0  0  0  0  0  0
   21.8809   20.0110   20.6384 H   0  0  0  0  0  0  0  0  0  0  0  0
   19.8632   19.3725   20.2520 C   0  0  0  0  0  0  0  0  0  0  0  0
   19.4932   20.3949   20.0942 H   0  0  0  0  0  0  0  0  0  0  0  0
   20.1560   18.9958   19.2623 H   0  0  0  0  0  0  0  0  0  0  0  0
   18.7188   18.4926   20.7966 C   0  0  0  0  0  0  0  0  0  0  0  0
   18.2855   18.9261   21.7065 H   0  0  0  0  0  0  0  0  0  0  0  0
   17.9137   18.4079   20.0554 H   0  0  0  0  0  0  0  0  0  0  0  0
   19.0753   17.4803   21.0270 H   0  0  0  0  0  0  0  0  0  0  0  0
  1  2  1  0  0  0  0
  1  3  2  0  0  0  0
  1  4  1  0  0  0  0
  4  5  1  0  0  0  0
  4  6  1  0  0  0  0
  4  7  1  0  0  0  0
  7  8  1  0  0  0  0
  7  9  1  0  0  0  0
  7 10  1  0  0  0  0
 10 11  1  0  0  0  0
 10 12  1  0  0  0  0
 10 13  1  0  0  0  0
 13 14  1  0  0  0  0
 13 15  1  0  0  0  0
 13 16  1  0  0  0  0
 16 17  1  0  0  0  0
 16 18  1  0  0  0  0
 16 19  1  0  0  0  0
 19 20  1  0  0  0  0
 19 21  1  0  0  0  0
 19 22  1  0  0  0  0
 22 23  1  0  0  0  0
 22 24  1  0  0  0  0
 22 25  1  0  0  0  0
M  END
> <VM2 Rank>
92

> <Conf_Id>
394

> <Probability>
0.03

> <Sum Probability>
99.46

> <Delta G>
3.936

> <G>
-4.026

> <E>
-28.762

> <-TS>
24.736

> <U+W>
-49.330

> <U>
9.739

> <W>
-59.069

> <W(PB)>
-61.523

> <W(SA)>
2.454

> <Valence>
10.506

> <Coulomb>
-1.761

> <VdW>
0.994

> <VdW6>
-9.209

> <VdW12>
10.203

> <Bond>
0.193

> <Angle>
2.979

> <Pdih>
7.334

> <Idih>
0.001

> <Tether>
0.000

$$$$
VeraChem MOL file


 25 24  0  0  0  0  0  0  0  0999 V2000     
   20.5265   19.6546   27.1793 C   0  0  0  0  0  0  0  0  0  0  0  0
   21.5858   20.2471   27.1220 O   0  5  0  0  0  0  0  0  0  0  0  0
   19.6612   19.8995   27.9966 O   0  0  0  0  0  0  0  0  0  0  0  0
   20.2596   18.5564   26.1560 C   0  0  0  0  0  0  0  0  0  0  0  0
   19.6359   17.7907   26.6327 H   0  0  0  0  0  0  0  0  0  0  0  0
   21.2174   18.0850   25.9050 H   0  0  0  0  0  0  0  0  0  0  0  0
   19.5722   19.0845   24.8729 C   0  0  0  0  0  0  0  0  0  0  0  0
   18.6212   19.5634   25.1444 H   0  0  0  0  0  0  0  0  0  0  0  0
   20.1996   19.8654   24.4265 H   0  0  0  0  0  0  0  0  0  0  0  0
   19.3081   17.9498   23.8550 C   0  0  0  0  0  0  0  0  0  0  0  0
   18.6498   17.2099   24.3306 H   0  0  0  0  0  0  0  0  0  0  0  0
   20.2421   17.4215   23.6192 H   0  0  0  0  0  0  0  0  0  0  0  0
   18.6322   18.4421   22.5502 C   0  0  0  0  0  0  0  0  0  0  0  0
   17.9241   17.6698   22.2199 H   0  0  0  0  0  0  0  0  0  0  0  0
   18.0261   19.3366   22.7488 H   0  0  0  0  0  0  0  0  0  0  0  0
   19.6082   18.7109   21.3771 C   0  0  0  0  0  0  0  0  0  0  0  0
   19.0160   18.9763   20.4907 H   0  0  0  0  0  0  0  0  0  0  0  0
   20.1401   17.7832   21.1252 H   0  0  0  0  0  0  0  0  0  0  0  0
   20.6346   19.8325   21.6477 C   0  0  0  0  0  0  0  0  0  0  0  0
   20.1143   20.7390   21.9862 H   0  0  0  0  0  0  0  0  0  0  0  0
   21.3156   19.5279   22.4532 H   0  0  0  0  0  0  0  0  0  0  0  0
   21.4646   20.1567   20.3891 C   0  0  0  0  0  0  0  0  0  0  0  0
   20.8195   20.5006   19.5701 H   0  0  0  0  0  0  0  0  0  0  0  0
   22.1943   20.9490   20.6009 H   0  0  0  0  0  0  0  0  0  0  0  0
   22.0155   19.2721   20.0437 H   0  0  0  0  0  0  0  0  0  0  0  0
  1  2  1  0  0  0  0
  1  3  2  0  0  0  0
  1  4  1  0  0  0  0
  4  5  1  0  0  0  0
  4  6  1  0  0  0  0
  4  7  1  0  0  0  0
  7  8  1  0  0  0  0
  7  9  1  0  0  0  0
  7 10  1  0  0  0  0
 10 11  1  0  0  0  0
 10 12  1  0  0  0  0
 10 13  1  0  0  0  0
 13 14  1  0  0  0  0
 13 15  1  0  0  0  0
 13 16  1  0  0  0  0
 16 17  1  0  0  0  0
 16 18  1  0  0  0  0
 16 19  1  0  0  0  0
 19 20  1  0  0  0  0
 19 21  1  0  0  0  0
 19 22  1  0  0  0  0
 22 23  1  0  0  0  0
 22 24  1  0  0  0  0
 22 25  1  0  0  0  0
M  END
> <VM2 Rank>
93

> <Conf_Id>
789

> <Probability>
0.03

> <Sum Probability>
99.49

> <Delta G>
3.946

> <G>
-4.016

> <E>
-28.790

> <-TS>
24.774

> <U+W>
-49.358

> <U>
10.175

> <W>
-59.533

> <W(PB)>
-62.003

> <W(SA)>
2.470

> <Valence>
10.554

> <Coulomb>
-1.316

> <VdW>
0.936

> <VdW6>
-9.356

> <VdW12>
10.292

> <Bond>
0.194

> <Angle>
2.996

> <Pdih>
7.363

> <Idih>
0.001

> <Tether>
0.000

$$$$
VeraChem MOL file


 25 24  0  0  0  0  0  0  0  0999 V2000     
   19.9793   18.7899   27.1123 C   0  0  0  0  0  0  0  0  0  0  0  0
   20.5708   17.7379   27.2542 O   0  5  0  0  0  0  0  0  0  0  0  0
   18.9007   19.0296   27.6182 O   0  0  0  0  0  0  0  0  0  0  0  0
   20.6172   19.8619   26.2358 C   0  0  0  0  0  0  0  0  0  0  0  0
   21.7064   19.7703   26.3233 H   0  0  0  0  0  0  0  0  0  0  0  0
   20.3401   20.8423   26.6415 H   0  0  0  0  0  0  0  0  0  0  0  0
   20.1898   19.7563   24.7511 C   0  0  0  0  0  0  0  0  0  0  0  0
   20.4619   18.7609   24.3760 H   0  0  0  0  0  0  0  0  0  0  0  0
   19.0968   19.8433   24.6804 H   0  0  0  0  0  0  0  0  0  0  0  0
   20.8586   20.8446   23.8820 C   0  0  0  0  0  0  0  0  0  0  0  0
   21.9472   20.6965   23.8856 H   0  0  0  0  0  0  0  0  0  0  0  0
   20.6798   21.8270   24.3400 H   0  0  0  0  0  0  0  0  0  0  0  0
   20.3510   20.8916   22.4189 C   0  0  0  0  0  0  0  0  0  0  0  0
   19.2800   21.1352   22.3990 H   0  0  0  0  0  0  0  0  0  0  0  0
   20.8565   21.7303   21.9209 H   0  0  0  0  0  0  0  0  0  0  0  0
   20.6256   19.6067   21.5966 C   0  0  0  0  0  0  0  0  0  0  0  0
   21.5141   19.0917   21.9866 H   0  0  0  0  0  0  0  0  0  0  0  0
   20.8695   19.8985   20.5659 H   0  0  0  0  0  0  0  0  0  0  0  0
   19.4197   18.6399   21.5497 C   0  0  0  0  0  0  0  0  0  0  0  0
   19.1221   18.3446   22.5631 H   0  0  0  0  0  0  0  0  0  0  0  0
   18.5553   19.1520   21.1052 H   0  0  0  0  0  0  0  0  0  0  0  0
   19.7402   17.3756   20.7273 C   0  0  0  0  0  0  0  0  0  0  0  0
   20.5813   16.8242   21.1675 H   0  0  0  0  0  0  0  0  0  0  0  0
   18.8729   16.7033   20.6976 H   0  0  0  0  0  0  0  0  0  0  0  0
   20.0035   17.6351   19.6935 H   0  0  0  0  0  0  0  0  0  0  0  0
  1  2  1  0  0  0  0
  1  3  2  0  0  0  0
  1  4  1  0  0  0  0
  4  5  1  0  0  0  0
  4  6  1  0  0  0  0
  4  7  1  0  0  0  0
  7  8  1  0  0  0  0
  7  9  1  0  0  0  0
  7 10  1  0  0  0  0
 10 11  1  0  0  0  0
 10 12  1  0  0  0  0
 10 13  1  0  0  0  0
 13 14  1  0  0  0  0
 13 15  1  0  0  0  0
 13 16  1  0  0  0  0
 16 17  1  0  0  0  0
 16 18  1  0  0  0  0
 16 19  1  0  0  0  0
 19 20  1  0  0  0  0
 19 21  1  0  0  0  0
 19 22  1  0  0  0  0
 22 23  1  0  0  0  0
 22 24  1  0  0  0  0
 22 25  1  0  0  0  0
M  END
> <VM2 Rank>
94

> <Conf_Id>
36

> <Probability>
0.03

> <Sum Probability>
99.53

> <Delta G>
3.947

> <G>
-4.015

> <E>
-28.797

> <-TS>
24.782

> <U+W>
-49.365

> <U>
10.481

> <W>
-59.846

> <W(PB)>
-62.298

> <W(SA)>
2.453

> <Valence>
10.552

> <Coulomb>
-0.994

> <VdW>
0.923

> <VdW6>
-9.371

> <VdW12>
10.294

> <Bond>
0.194

> <Angle>
2.991

> <Pdih>
7.366

> <Idih>
0.000

> <Tether>
0.000

$$$$
VeraChem MOL file


 25 24  0  0  0  0  0  0  0  0999 V2000     
   20.1746   19.6571   27.4903 C   0  0  0  0  0  0  0  0  0  0  0  0
   21.0931   19.1758   28.1238 O   0  5  0  0  0  0  0  0  0  0  0  0
   19.0801   19.8912   27.9635 O   0  0  0  0  0  0  0  0  0  0  0  0
   20.4011   19.9639   26.0143 C   0  0  0  0  0  0  0  0  0  0  0  0
   21.4518   20.2491   25.8829 H   0  0  0  0  0  0  0  0  0  0  0  0
   19.7926   20.8373   25.7506 H   0  0  0  0  0  0  0  0  0  0  0  0
   20.0518   18.7706   25.0913 C   0  0  0  0  0  0  0  0  0  0  0  0
   20.6599   17.9011   25.3771 H   0  0  0  0  0  0  0  0  0  0  0  0
   19.0006   18.4891   25.2438 H   0  0  0  0  0  0  0  0  0  0  0  0
   20.2895   19.1070   23.6031 C   0  0  0  0  0  0  0  0  0  0  0  0
   21.3419   19.3835   23.4516 H   0  0  0  0  0  0  0  0  0  0  0  0
   19.6808   19.9794   23.3327 H   0  0  0  0  0  0  0  0  0  0  0  0
   19.9290   17.9191   22.6837 C   0  0  0  0  0  0  0  0  0  0  0  0
   20.4494   17.0204   23.0417 H   0  0  0  0  0  0  0  0  0  0  0  0
   18.8544   17.7064   22.7670 H   0  0  0  0  0  0  0  0  0  0  0  0
   20.2977   18.1315   21.1938 C   0  0  0  0  0  0  0  0  0  0  0  0
   20.0473   17.2063   20.6570 H   0  0  0  0  0  0  0  0  0  0  0  0
   21.3845   18.2525   21.0881 H   0  0  0  0  0  0  0  0  0  0  0  0
   19.5578   19.3043   20.5030 C   0  0  0  0  0  0  0  0  0  0  0  0
   19.3429   19.0200   19.4636 H   0  0  0  0  0  0  0  0  0  0  0  0
   18.5830   19.4741   20.9807 H   0  0  0  0  0  0  0  0  0  0  0  0
   20.3782   20.6134   20.4791 C   0  0  0  0  0  0  0  0  0  0  0  0
   21.3245   20.4710   19.9413 H   0  0  0  0  0  0  0  0  0  0  0  0
   19.8186   21.4078   19.9687 H   0  0  0  0  0  0  0  0  0  0  0  0
   20.6137   20.9665   21.4894 H   0  0  0  0  0  0  0  0  0  0  0  0
  1  2  1  0  0  0  0
  1  3  2  0  0  0  0
  1  4  1  0  0  0  0
  4  5  1  0  0  0  0
  4  6  1  0  0  0  0
  4  7  1  0  0  0  0
  7  8  1  0  0  0  0
  7  9  1  0  0  0  0
  7 10  1  0  0  0  0
 10 11  1  0  0  0  0
 10 12  1  0  0  0  0
 10 13  1  0  0  0  0
 13 14  1  0  0  0  0
 13 15  1  0  0  0  0
 13 16  1  0  0  0  0
 16 17  1  0  0  0  0
 16 18  1  0  0  0  0
 16 19  1  0  0  0  0
 19 20  1  0  0  0  0
 19 21  1  0  0  0  0
 19 22  1  0  0  0  0
 22 23  1  0  0  0  0
 22 24  1  0  0  0  0
 22 25  1  0  0  0  0
M  END
> <VM2 Rank>
95

> <Conf_Id>
1370

> <Probability>
0.03

> <Sum Probability>
99.56

> <Delta G>
3.947

> <G>
-4.015

> <E>
-28.748

> <-TS>
24.733

> <U+W>
-49.315

> <U>
9.708

> <W>
-59.023

> <W(PB)>
-61.482

> <W(SA)>
2.459

> <Valence>
10.529

> <Coulomb>
-1.840

> <VdW>
1.019

> <VdW6>
-9.201

> <VdW12>
10.221

> <Bond>
0.191

> <Angle>
3.009

> <Pdih>
7.328

> <Idih>
0.001

> <Tether>
0.000

$$$$
VeraChem MOL file


 25 24  0  0  0  0  0  0  0  0999 V2000     
   20.4334   19.2288   27.5034 C   0  0  0  0  0  0  0  0  0  0  0  0
   21.5304   19.6661   27.7896 O   0  5  0  0  0  0  0  0  0  0  0  0
   19.4688   19.2958   28.2395 O   0  0  0  0  0  0  0  0  0  0  0  0
   20.2518   18.5789   26.1364 C   0  0  0  0  0  0  0  0  0  0  0  0
   19.4982   17.7881   26.2325 H   0  0  0  0  0  0  0  0  0  0  0  0
   21.1966   18.0949   25.8612 H   0  0  0  0  0  0  0  0  0  0  0  0
   19.8300   19.5892   25.0413 C   0  0  0  0  0  0  0  0  0  0  0  0
   18.8898   20.0747   25.3378 H   0  0  0  0  0  0  0  0  0  0  0  0
   20.5884   20.3809   24.9668 H   0  0  0  0  0  0  0  0  0  0  0  0
   19.6539   18.9074   23.6671 C   0  0  0  0  0  0  0  0  0  0  0  0
   18.8953   18.1168   23.7465 H   0  0  0  0  0  0  0  0  0  0  0  0
   20.5920   18.4157   23.3836 H   0  0  0  0  0  0  0  0  0  0  0  0
   19.2270   19.9196   22.5781 C   0  0  0  0  0  0  0  0  0  0  0  0
   18.2706   20.3663   22.8826 H   0  0  0  0  0  0  0  0  0  0  0  0
   19.9472   20.7473   22.5217 H   0  0  0  0  0  0  0  0  0  0  0  0
   19.0456   19.2771   21.1793 C   0  0  0  0  0  0  0  0  0  0  0  0
   18.2035   19.7765   20.6810 H   0  0  0  0  0  0  0  0  0  0  0  0
   18.7507   18.2235   21.2791 H   0  0  0  0  0  0  0  0  0  0  0  0
   20.2765   19.3988   20.2472 C   0  0  0  0  0  0  0  0  0  0  0  0
   20.0112   18.9866   19.2639 H   0  0  0  0  0  0  0  0  0  0  0  0
   20.5099   20.4598   20.0824 H   0  0  0  0  0  0  0  0  0  0  0  0
   21.5356   18.6722   20.7640 C   0  0  0  0  0  0  0  0  0  0  0  0
   21.9312   19.1586   21.6643 H   0  0  0  0  0  0  0  0  0  0  0  0
   21.3160   17.6232   21.0011 H   0  0  0  0  0  0  0  0  0  0  0  0
   22.3277   18.6894   20.0043 H   0  0  0  0  0  0  0  0  0  0  0  0
  1  2  1  0  0  0  0
  1  3  2  0  0  0  0
  1  4  1  0  0  0  0
  4  5  1  0  0  0  0
  4  6  1  0  0  0  0
  4  7  1  0  0  0  0
  7  8  1  0  0  0  0
  7  9  1  0  0  0  0
  7 10  1  0  0  0  0
 10 11  1  0  0  0  0
 10 12  1  0  0  0  0
 10 13  1  0  0  0  0
 13 14  1  0  0  0  0
 13 15  1  0  0  0  0
 13 16  1  0  0  0  0
 16 17  1  0  0  0  0
 16 18  1  0  0  0  0
 16 19  1  0  0  0  0
 19 20  1  0  0  0  0
 19 21  1  0  0  0  0
 19 22  1  0  0  0  0
 22 23  1  0  0  0  0
 22 24  1  0  0  0  0
 22 25  1  0  0  0  0
M  END
> <VM2 Rank>
96

> <Conf_Id>
436

> <Probability>
0.03

> <Sum Probability>
99.59

> <Delta G>
3.949

> <G>
-4.013

> <E>
-28.749

> <-TS>
24.736

> <U+W>
-49.317

> <U>
9.739

> <W>
-59.056

> <W(PB)>
-61.488

> <W(SA)>
2.432

> <Valence>
10.506

> <Coulomb>
-1.761

> <VdW>
0.994

> <VdW6>
-9.209

> <VdW12>
10.203

> <Bond>
0.193

> <Angle>
2.979

> <Pdih>
7.333

> <Idih>
0.001

> <Tether>
0.000

$$$$
VeraChem MOL file


 25 24  0  0  0  0  0  0  0  0999 V2000     
   20.3822   19.2590   27.1403 C   0  0  0  0  0  0  0  0  0  0  0  0
   21.5096   19.6924   27.2751 O   0  5  0  0  0  0  0  0  0  0  0  0
   19.4409   19.6087   27.8251 O   0  0  0  0  0  0  0  0  0  0  0  0
   20.1371   18.2016   26.0675 C   0  0  0  0  0  0  0  0  0  0  0  0
   19.5395   17.4042   26.5245 H   0  0  0  0  0  0  0  0  0  0  0  0
   21.0996   17.7565   25.7876 H   0  0  0  0  0  0  0  0  0  0  0  0
   19.4086   18.7366   24.8071 C   0  0  0  0  0  0  0  0  0  0  0  0
   19.1449   17.8834   24.1693 H   0  0  0  0  0  0  0  0  0  0  0  0
   18.4651   19.2138   25.1060 H   0  0  0  0  0  0  0  0  0  0  0  0
   20.2713   19.7383   24.0027 C   0  0  0  0  0  0  0  0  0  0  0  0
   21.2011   19.2522   23.6797 H   0  0  0  0  0  0  0  0  0  0  0  0
   20.5746   20.5634   24.6615 H   0  0  0  0  0  0  0  0  0  0  0  0
   19.5372   20.3411   22.7787 C   0  0  0  0  0  0  0  0  0  0  0  0
   18.6607   20.9007   23.1322 H   0  0  0  0  0  0  0  0  0  0  0  0
   20.1915   21.0840   22.3041 H   0  0  0  0  0  0  0  0  0  0  0  0
   19.0719   19.3151   21.7115 C   0  0  0  0  0  0  0  0  0  0  0  0
   18.5887   19.8605   20.8896 H   0  0  0  0  0  0  0  0  0  0  0  0
   18.2909   18.6735   22.1399 H   0  0  0  0  0  0  0  0  0  0  0  0
   20.1914   18.4201   21.1251 C   0  0  0  0  0  0  0  0  0  0  0  0
   20.6313   17.7983   21.9160 H   0  0  0  0  0  0  0  0  0  0  0  0
   19.7414   17.7227   20.4053 H   0  0  0  0  0  0  0  0  0  0  0  0
   21.3027   19.2212   20.4129 C   0  0  0  0  0  0  0  0  0  0  0  0
   21.8517   19.8559   21.1198 H   0  0  0  0  0  0  0  0  0  0  0  0
   22.0262   18.5417   19.9441 H   0  0  0  0  0  0  0  0  0  0  0  0
   20.8826   19.8630   19.6277 H   0  0  0  0  0  0  0  0  0  0  0  0
  1  2  1  0  0  0  0
  1  3  2  0  0  0  0
  1  4  1  0  0  0  0
  4  5  1  0  0  0  0
  4  6  1  0  0  0  0
  4  7  1  0  0  0  0
  7  8  1  0  0  0  0
  7  9  1  0  0  0  0
  7 10  1  0  0  0  0
 10 11  1  0  0  0  0
 10 12  1  0  0  0  0
 10 13  1  0  0  0  0
 13 14  1  0  0  0  0
 13 15  1  0  0  0  0
 13 16  1  0  0  0  0
 16 17  1  0  0  0  0
 16 18  1  0  0  0  0
 16 19  1  0  0  0  0
 19 20  1  0  0  0  0
 19 21  1  0  0  0  0
 19 22  1  0  0  0  0
 22 23  1  0  0  0  0
 22 24  1  0  0  0  0
 22 25  1  0  0  0  0
M  END
> <VM2 Rank>
97

> <Conf_Id>
230

> <Probability>
0.02

> <Sum Probability>
99.60

> <Delta G>
4.272

> <G>
-3.690

> <E>
-29.152

> <-TS>
25.462

> <U+W>
-49.720

> <U>
10.165

> <W>
-59.885

> <W(PB)>
-62.272

> <W(SA)>
2.387

> <Valence>
9.218

> <Coulomb>
0.149

> <VdW>
0.798

> <VdW6>
-11.032

> <VdW12>
11.831

> <Bond>
0.256

> <Angle>
3.425

> <Pdih>
5.536

> <Idih>
0.001

> <Tether>
0.000

$$$$
VeraChem MOL file


 25 24  0  0  0  0  0  0  0  0999 V2000     
   19.9518   19.7919   26.7080 C   0  0  0  0  0  0  0  0  0  0  0  0
   20.2081   19.3322   27.8038 O   0  5  0  0  0  0  0  0  0  0  0  0
   18.8720   20.2657   26.4140 O   0  0  0  0  0  0  0  0  0  0  0  0
   21.0570   19.7985   25.6556 C   0  0  0  0  0  0  0  0  0  0  0  0
   21.9481   20.2352   26.1210 H   0  0  0  0  0  0  0  0  0  0  0  0
   20.7661   20.4765   24.8449 H   0  0  0  0  0  0  0  0  0  0  0  0
   21.4062   18.3931   25.0941 C   0  0  0  0  0  0  0  0  0  0  0  0
   22.2539   18.4809   24.4023 H   0  0  0  0  0  0  0  0  0  0  0  0
   21.7569   17.7607   25.9212 H   0  0  0  0  0  0  0  0  0  0  0  0
   20.2279   17.6754   24.3862 C   0  0  0  0  0  0  0  0  0  0  0  0
   19.4383   17.4719   25.1225 H   0  0  0  0  0  0  0  0  0  0  0  0
   20.5727   16.6934   24.0349 H   0  0  0  0  0  0  0  0  0  0  0  0
   19.6069   18.4457   23.1941 C   0  0  0  0  0  0  0  0  0  0  0  0
   18.7825   17.8458   22.7857 H   0  0  0  0  0  0  0  0  0  0  0  0
   19.1542   19.3774   23.5567 H   0  0  0  0  0  0  0  0  0  0  0  0
   20.6192   18.7477   22.0622 C   0  0  0  0  0  0  0  0  0  0  0  0
   21.1336   17.8176   21.7852 H   0  0  0  0  0  0  0  0  0  0  0  0
   21.3926   19.4376   22.4241 H   0  0  0  0  0  0  0  0  0  0  0  0
   19.9613   19.3443   20.7963 C   0  0  0  0  0  0  0  0  0  0  0  0
   20.7216   19.4226   20.0070 H   0  0  0  0  0  0  0  0  0  0  0  0
   19.1915   18.6572   20.4187 H   0  0  0  0  0  0  0  0  0  0  0  0
   19.3426   20.7394   21.0318 C   0  0  0  0  0  0  0  0  0  0  0  0
   18.5017   20.6908   21.7349 H   0  0  0  0  0  0  0  0  0  0  0  0
   20.0885   21.4367   21.4351 H   0  0  0  0  0  0  0  0  0  0  0  0
   18.9646   21.1562   20.0893 H   0  0  0  0  0  0  0  0  0  0  0  0
  1  2  1  0  0  0  0
  1  3  2  0  0  0  0
  1  4  1  0  0  0  0
  4  5  1  0  0  0  0
  4  6  1  0  0  0  0
  4  7  1  0  0  0  0
  7  8  1  0  0  0  0
  7  9  1  0  0  0  0
  7 10  1  0  0  0  0
 10 11  1  0  0  0  0
 10 12  1  0  0  0  0
 10 13  1  0  0  0  0
 13 14  1  0  0  0  0
 13 15  1  0  0  0  0
 13 16  1  0  0  0  0
 16 17  1  0  0  0  0
 16 18  1  0  0  0  0
 16 19  1  0  0  0  0
 19 20  1  0  0  0  0
 19 21  1  0  0  0  0
 19 22  1  0  0  0  0
 22 23  1  0  0  0  0
 22 24  1  0  0  0  0
 22 25  1  0  0  0  0
M  END
> <VM2 Rank>
98

> <Conf_Id>
825

> <Probability>
0.02

> <Sum Probability>
99.62

> <Delta G>
4.300

> <G>
-3.662

> <E>
-29.035

> <-TS>
25.373

> <U+W>
-49.603

> <U>
10.962

> <W>
-60.565

> <W(PB)>
-62.940

> <W(SA)>
2.375

> <Valence>
9.203

> <Coulomb>
1.167

> <VdW>
0.592

> <VdW6>
-11.372

> <VdW12>
11.964

> <Bond>
0.260

> <Angle>
3.321

> <Pdih>
5.621

> <Idih>
0.001

> <Tether>
0.000

$$$$
VeraChem MOL file


 25 24  0  0  0  0  0  0  0  0999 V2000     
   20.0298   19.1418   26.9839 C   0  0  0  0  0  0  0  0  0  0  0  0
   20.8990   19.3890   27.7969 O   0  5  0  0  0  0  0  0  0  0  0  0
   18.8760   19.5051   27.1024 O   0  0  0  0  0  0  0  0  0  0  0  0
   20.4041   18.3054   25.7636 C   0  0  0  0  0  0  0  0  0  0  0  0
   19.4844   17.9366   25.2954 H   0  0  0  0  0  0  0  0  0  0  0  0
   20.9442   17.4230   26.1258 H   0  0  0  0  0  0  0  0  0  0  0  0
   21.2826   19.0562   24.7260 C   0  0  0  0  0  0  0  0  0  0  0  0
   22.2202   19.3594   25.2118 H   0  0  0  0  0  0  0  0  0  0  0  0
   21.5689   18.3627   23.9248 H   0  0  0  0  0  0  0  0  0  0  0  0
   20.6128   20.3125   24.1119 C   0  0  0  0  0  0  0  0  0  0  0  0
   21.3187   20.7884   23.4187 H   0  0  0  0  0  0  0  0  0  0  0  0
   20.4392   21.0494   24.9079 H   0  0  0  0  0  0  0  0  0  0  0  0
   19.2700   20.0528   23.3796 C   0  0  0  0  0  0  0  0  0  0  0  0
   18.5147   19.7387   24.1124 H   0  0  0  0  0  0  0  0  0  0  0  0
   18.9056   21.0041   22.9690 H   0  0  0  0  0  0  0  0  0  0  0  0
   19.3297   19.0060   22.2388 C   0  0  0  0  0  0  0  0  0  0  0  0
   18.3198   18.8904   21.8224 H   0  0  0  0  0  0  0  0  0  0  0  0
   19.6052   18.0241   22.6451 H   0  0  0  0  0  0  0  0  0  0  0  0
   20.3007   19.3914   21.1001 C   0  0  0  0  0  0  0  0  0  0  0  0
   20.0478   20.3908   20.7202 H   0  0  0  0  0  0  0  0  0  0  0  0
   21.3282   19.4446   21.4834 H   0  0  0  0  0  0  0  0  0  0  0  0
   20.2482   18.3738   19.9427 C   0  0  0  0  0  0  0  0  0  0  0  0
   19.2404   18.3218   19.5103 H   0  0  0  0  0  0  0  0  0  0  0  0
   20.9452   18.6599   19.1444 H   0  0  0  0  0  0  0  0  0  0  0  0
   20.5246   17.3698   20.2906 H   0  0  0  0  0  0  0  0  0  0  0  0
  1  2  1  0  0  0  0
  1  3  2  0  0  0  0
  1  4  1  0  0  0  0
  4  5  1  0  0  0  0
  4  6  1  0  0  0  0
  4  7  1  0  0  0  0
  7  8  1  0  0  0  0
  7  9  1  0  0  0  0
  7 10  1  0  0  0  0
 10 11  1  0  0  0  0
 10 12  1  0  0  0  0
 10 13  1  0  0  0  0
 13 14  1  0  0  0  0
 13 15  1  0  0  0  0
 13 16  1  0  0  0  0
 16 17  1  0  0  0  0
 16 18  1  0  0  0  0
 16 19  1  0  0  0  0
 19 20  1  0  0  0  0
 19 21  1  0  0  0  0
 19 22  1  0  0  0  0
 22 23  1  0  0  0  0
 22 24  1  0  0  0  0
 22 25  1  0  0  0  0
M  END
> <VM2 Rank>
99

> <Conf_Id>
250

> <Probability>
0.02

> <Sum Probability>
99.64

> <Delta G>
4.312

> <G>
-3.650

> <E>
-29.213

> <-TS>
25.563

> <U+W>
-49.781

> <U>
10.242

> <W>
-60.023

> <W(PB)>
-62.388

> <W(SA)>
2.365

> <Valence>
9.192

> <Coulomb>
0.540

> <VdW>
0.509

> <VdW6>
-11.540

> <VdW12>
12.049

> <Bond>
0.268

> <Angle>
3.481

> <Pdih>
5.442

> <Idih>
0.001

> <Tether>
0.000

$$$$
VeraChem MOL file


 25 24  0  0  0  0  0  0  0  0999 V2000     
   19.6502   19.2519   26.7277 C   0  0  0  0  0  0  0  0  0  0  0  0
   20.2093   19.3343   27.8040 O   0  5  0  0  0  0  0  0  0  0  0  0
   18.6716   19.9068   26.4271 O   0  0  0  0  0  0  0  0  0  0  0  0
   20.1919   18.2501   25.7119 C   0  0  0  0  0  0  0  0  0  0  0  0
   19.4374   18.0982   24.9314 H   0  0  0  0  0  0  0  0  0  0  0  0
   20.3024   17.2894   26.2281 H   0  0  0  0  0  0  0  0  0  0  0  0
   21.5533   18.6565   25.0845 C   0  0  0  0  0  0  0  0  0  0  0  0
   22.3010   18.7346   25.8858 H   0  0  0  0  0  0  0  0  0  0  0  0
   21.9020   17.8512   24.4252 H   0  0  0  0  0  0  0  0  0  0  0  0
   21.5237   19.9949   24.3019 C   0  0  0  0  0  0  0  0  0  0  0  0
   22.5292   20.1955   23.9077 H   0  0  0  0  0  0  0  0  0  0  0  0
   21.3052   20.8137   25.0011 H   0  0  0  0  0  0  0  0  0  0  0  0
   20.5057   20.0546   23.1356 C   0  0  0  0  0  0  0  0  0  0  0  0
   19.4867   19.9726   23.5350 H   0  0  0  0  0  0  0  0  0  0  0  0
   20.5707   21.0469   22.6695 H   0  0  0  0  0  0  0  0  0  0  0  0
   20.7450   18.9730   22.0539 C   0  0  0  0  0  0  0  0  0  0  0  0
   20.5752   17.9744   22.4771 H   0  0  0  0  0  0  0  0  0  0  0  0
   21.7977   19.0063   21.7420 H   0  0  0  0  0  0  0  0  0  0  0  0
   19.8533   19.1509   20.8032 C   0  0  0  0  0  0  0  0  0  0  0  0
   20.0223   20.1440   20.3646 H   0  0  0  0  0  0  0  0  0  0  0  0
   20.1613   18.4196   20.0433 H   0  0  0  0  0  0  0  0  0  0  0  0
   18.3491   18.9610   21.0961 C   0  0  0  0  0  0  0  0  0  0  0  0
   17.9709   19.7406   21.7692 H   0  0  0  0  0  0  0  0  0  0  0  0
   17.7671   19.0127   20.1669 H   0  0  0  0  0  0  0  0  0  0  0  0
   18.1597   17.9843   21.5601 H   0  0  0  0  0  0  0  0  0  0  0  0
  1  2  1  0  0  0  0
  1  3  2  0  0  0  0
  1  4  1  0  0  0  0
  4  5  1  0  0  0  0
  4  6  1  0  0  0  0
  4  7  1  0  0  0  0
  7  8  1  0  0  0  0
  7  9  1  0  0  0  0
  7 10  1  0  0  0  0
 10 11  1  0  0  0  0
 10 12  1  0  0  0  0
 10 13  1  0  0  0  0
 13 14  1  0  0  0  0
 13 15  1  0  0  0  0
 13 16  1  0  0  0  0
 16 17  1  0  0  0  0
 16 18  1  0  0  0  0
 16 19  1  0  0  0  0
 19 20  1  0  0  0  0
 19 21  1  0  0  0  0
 19 22  1  0  0  0  0
 22 23  1  0  0  0  0
 22 24  1  0  0  0  0
 22 25  1  0  0  0  0
M  END
> <VM2 Rank>
100

> <Conf_Id>
146

> <Probability>
0.02

> <Sum Probability>
99.65

> <Delta G>
4.340

> <G>
-3.622

> <E>
-28.995

> <-TS>
25.373

> <U+W>
-49.563

> <U>
10.961

> <W>
-60.524

> <W(PB)>
-62.910

> <W(SA)>
2.385

> <Valence>
9.203

> <Coulomb>
1.166

> <VdW>
0.592

> <VdW6>
-11.371

> <VdW12>
11.963

> <Bond>
0.260

> <Angle>
3.321

> <Pdih>
5.622

> <Idih>
0.001

> <Tether>
0.000

$$$$
VeraChem MOL file


 25 24  0  0  0  0  0  0  0  0999 V2000     
   19.7741   19.4604   26.8696 C   0  0  0  0  0  0  0  0  0  0  0  0
   20.4533   19.5066   27.8766 O   0  5  0  0  0  0  0  0  0  0  0  0
   18.9300   20.2887   26.5898 O   0  0  0  0  0  0  0  0  0  0  0  0
   19.9743   18.2813   25.9216 C   0  0  0  0  0  0  0  0  0  0  0  0
   19.1253   18.2382   25.2298 H   0  0  0  0  0  0  0  0  0  0  0  0
   19.9303   17.3669   26.5245 H   0  0  0  0  0  0  0  0  0  0  0  0
   21.3155   18.3173   25.1392 C   0  0  0  0  0  0  0  0  0  0  0  0
   22.1440   18.2907   25.8604 H   0  0  0  0  0  0  0  0  0  0  0  0
   21.4101   17.4023   24.5407 H   0  0  0  0  0  0  0  0  0  0  0  0
   21.4929   19.5594   24.2277 C   0  0  0  0  0  0  0  0  0  0  0  0
   22.4662   19.4906   23.7231 H   0  0  0  0  0  0  0  0  0  0  0  0
   21.5433   20.4585   24.8572 H   0  0  0  0  0  0  0  0  0  0  0  0
   20.3883   19.7661   23.1606 C   0  0  0  0  0  0  0  0  0  0  0  0
   19.4219   19.9402   23.6521 H   0  0  0  0  0  0  0  0  0  0  0  0
   20.6197   20.6879   22.6123 H   0  0  0  0  0  0  0  0  0  0  0  0
   20.2652   18.5900   22.1608 C   0  0  0  0  0  0  0  0  0  0  0  0
   20.0250   17.6703   22.7092 H   0  0  0  0  0  0  0  0  0  0  0  0
   21.2326   18.4179   21.6697 H   0  0  0  0  0  0  0  0  0  0  0  0
   19.1709   18.8063   21.0894 C   0  0  0  0  0  0  0  0  0  0  0  0
   19.0541   17.8775   20.5141 H   0  0  0  0  0  0  0  0  0  0  0  0
   18.2046   18.9915   21.5785 H   0  0  0  0  0  0  0  0  0  0  0  0
   19.4884   19.9579   20.1107 C   0  0  0  0  0  0  0  0  0  0  0  0
   20.4670   19.8111   19.6354 H   0  0  0  0  0  0  0  0  0  0  0  0
   18.7314   20.0064   19.3172 H   0  0  0  0  0  0  0  0  0  0  0  0
   19.4952   20.9287   20.6214 H   0  0  0  0  0  0  0  0  0  0  0  0
  1  2  1  0  0  0  0
  1  3  2  0  0  0  0
  1  4  1  0  0  0  0
  4  5  1  0  0  0  0
  4  6  1  0  0  0  0
  4  7  1  0  0  0  0
  7  8  1  0  0  0  0
  7  9  1  0  0  0  0
  7 10  1  0  0  0  0
 10 11  1  0  0  0  0
 10 12  1  0  0  0  0
 10 13  1  0  0  0  0
 13 14  1  0  0  0  0
 13 15  1  0  0  0  0
 13 16  1  0  0  0  0
 16 17  1  0  0  0  0
 16 18  1  0  0  0  0
 16 19  1  0  0  0  0
 19 20  1  0  0  0  0
 19 21  1  0  0  0  0
 19 22  1  0  0  0  0
 22 23  1  0  0  0  0
 22 24  1  0  0  0  0
 22 25  1  0  0  0  0
M  END
> <VM2 Rank>
101

> <Conf_Id>
735

> <Probability>
0.01

> <Sum Probability>
99.67

> <Delta G>
4.388

> <G>
-3.574

> <E>
-28.898

> <-TS>
25.323

> <U+W>
-49.465

> <U>
10.878

> <W>
-60.344

> <W(PB)>
-62.742

> <W(SA)>
2.398

> <Valence>
9.320

> <Coulomb>
0.827

> <VdW>
0.731

> <VdW6>
-11.182

> <VdW12>
11.912

> <Bond>
0.267

> <Angle>
3.459

> <Pdih>
5.593

> <Idih>
0.001

> <Tether>
0.000

$$$$
VeraChem MOL file


 25 24  0  0  0  0  0  0  0  0999 V2000     
   20.1258   19.8340   26.7124 C   0  0  0  0  0  0  0  0  0  0  0  0
   21.2319   20.3023   26.8984 O   0  5  0  0  0  0  0  0  0  0  0  0
   19.1026   20.4888   26.7512 O   0  0  0  0  0  0  0  0  0  0  0  0
   20.0110   18.3365   26.4414 C   0  0  0  0  0  0  0  0  0  0  0  0
   19.1992   17.9506   27.0689 H   0  0  0  0  0  0  0  0  0  0  0  0
   20.9331   17.8477   26.7784 H   0  0  0  0  0  0  0  0  0  0  0  0
   19.7298   17.9865   24.9572 C   0  0  0  0  0  0  0  0  0  0  0  0
   19.5297   16.9098   24.8744 H   0  0  0  0  0  0  0  0  0  0  0  0
   18.8167   18.5055   24.6367 H   0  0  0  0  0  0  0  0  0  0  0  0
   20.9089   18.3598   24.0275 C   0  0  0  0  0  0  0  0  0  0  0  0
   21.8256   17.8873   24.4058 H   0  0  0  0  0  0  0  0  0  0  0  0
   21.0884   19.4424   24.0669 H   0  0  0  0  0  0  0  0  0  0  0  0
   20.6996   17.9161   22.5579 C   0  0  0  0  0  0  0  0  0  0  0  0
   21.5992   18.1666   21.9807 H   0  0  0  0  0  0  0  0  0  0  0  0
   20.6215   16.8210   22.5258 H   0  0  0  0  0  0  0  0  0  0  0  0
   19.4561   18.5221   21.8546 C   0  0  0  0  0  0  0  0  0  0  0  0
   18.5454   18.1361   22.3309 H   0  0  0  0  0  0  0  0  0  0  0  0
   19.4267   18.1565   20.8193 H   0  0  0  0  0  0  0  0  0  0  0  0
   19.3965   20.0695   21.8392 C   0  0  0  0  0  0  0  0  0  0  0  0
   18.4664   20.3794   21.3435 H   0  0  0  0  0  0  0  0  0  0  0  0
   19.3368   20.4557   22.8657 H   0  0  0  0  0  0  0  0  0  0  0  0
   20.5907   20.7184   21.1064 C   0  0  0  0  0  0  0  0  0  0  0  0
   20.6791   20.3338   20.0821 H   0  0  0  0  0  0  0  0  0  0  0  0
   20.4613   21.8069   21.0498 H   0  0  0  0  0  0  0  0  0  0  0  0
   21.5341   20.5221   21.6311 H   0  0  0  0  0  0  0  0  0  0  0  0
  1  2  1  0  0  0  0
  1  3  2  0  0  0  0
  1  4  1  0  0  0  0
  4  5  1  0  0  0  0
  4  6  1  0  0  0  0
  4  7  1  0  0  0  0
  7  8  1  0  0  0  0
  7  9  1  0  0  0  0
  7 10  1  0  0  0  0
 10 11  1  0  0  0  0
 10 12  1  0  0  0  0
 10 13  1  0  0  0  0
 13 14  1  0  0  0  0
 13 15  1  0  0  0  0
 13 16  1  0  0  0  0
 16 17  1  0  0  0  0
 16 18  1  0  0  0  0
 16 19  1  0  0  0  0
 19 20  1  0  0  0  0
 19 21  1  0  0  0  0
 19 22  1  0  0  0  0
 22 23  1  0  0  0  0
 22 24  1  0  0  0  0
 22 25  1  0  0  0  0
M  END
> <VM2 Rank>
102

> <Conf_Id>
750

> <Probability>
0.01

> <Sum Probability>
99.68

> <Delta G>
4.433

> <G>
-3.529

> <E>
-29.004

> <-TS>
25.475

> <U+W>
-49.572

> <U>
11.216

> <W>
-60.788

> <W(PB)>
-63.159

> <W(SA)>
2.372

> <Valence>
9.147

> <Coulomb>
1.469

> <VdW>
0.600

> <VdW6>
-11.294

> <VdW12>
11.895

> <Bond>
0.253

> <Angle>
3.362

> <Pdih>
5.532

> <Idih>
0.001

> <Tether>
0.000

$$$$
VeraChem MOL file


 25 24  0  0  0  0  0  0  0  0999 V2000     
   20.0870   19.5407   26.9723 C   0  0  0  0  0  0  0  0  0  0  0  0
   20.8584   19.1061   27.8051 O   0  5  0  0  0  0  0  0  0  0  0  0
   18.8787   19.5235   27.1019 O   0  0  0  0  0  0  0  0  0  0  0  0
   20.6712   20.1665   25.7090 C   0  0  0  0  0  0  0  0  0  0  0  0
   21.4404   20.8810   26.0243 H   0  0  0  0  0  0  0  0  0  0  0  0
   19.8882   20.7513   25.2128 H   0  0  0  0  0  0  0  0  0  0  0  0
   21.2947   19.1408   24.7235 C   0  0  0  0  0  0  0  0  0  0  0  0
   21.7578   19.6788   23.8862 H   0  0  0  0  0  0  0  0  0  0  0  0
   22.1134   18.6149   25.2337 H   0  0  0  0  0  0  0  0  0  0  0  0
   20.2939   18.0902   24.1771 C   0  0  0  0  0  0  0  0  0  0  0  0
   19.9268   17.4788   25.0127 H   0  0  0  0  0  0  0  0  0  0  0  0
   20.8319   17.3962   23.5183 H   0  0  0  0  0  0  0  0  0  0  0  0
   19.0722   18.6742   23.4201 C   0  0  0  0  0  0  0  0  0  0  0  0
   18.4518   17.8416   23.0618 H   0  0  0  0  0  0  0  0  0  0  0  0
   18.4416   19.2295   24.1273 H   0  0  0  0  0  0  0  0  0  0  0  0
   19.4141   19.5946   22.2215 C   0  0  0  0  0  0  0  0  0  0  0  0
   19.9577   20.4813   22.5729 H   0  0  0  0  0  0  0  0  0  0  0  0
   18.4740   19.9651   21.7908 H   0  0  0  0  0  0  0  0  0  0  0  0
   20.2284   18.8872   21.1150 C   0  0  0  0  0  0  0  0  0  0  0  0
   21.2027   18.5696   21.5092 H   0  0  0  0  0  0  0  0  0  0  0  0
   19.7018   17.9789   20.7911 H   0  0  0  0  0  0  0  0  0  0  0  0
   20.4543   19.8102   19.9006 C   0  0  0  0  0  0  0  0  0  0  0  0
   19.4982   20.1183   19.4575 H   0  0  0  0  0  0  0  0  0  0  0  0
   21.0044   20.7144   20.1924 H   0  0  0  0  0  0  0  0  0  0  0  0
   21.0363   19.2945   19.1258 H   0  0  0  0  0  0  0  0  0  0  0  0
  1  2  1  0  0  0  0
  1  3  2  0  0  0  0
  1  4  1  0  0  0  0
  4  5  1  0  0  0  0
  4  6  1  0  0  0  0
  4  7  1  0  0  0  0
  7  8  1  0  0  0  0
  7  9  1  0  0  0  0
  7 10  1  0  0  0  0
 10 11  1  0  0  0  0
 10 12  1  0  0  0  0
 10 13  1  0  0  0  0
 13 14  1  0  0  0  0
 13 15  1  0  0  0  0
 13 16  1  0  0  0  0
 16 17  1  0  0  0  0
 16 18  1  0  0  0  0
 16 19  1  0  0  0  0
 19 20  1  0  0  0  0
 19 21  1  0  0  0  0
 19 22  1  0  0  0  0
 22 23  1  0  0  0  0
 22 24  1  0  0  0  0
 22 25  1  0  0  0  0
M  END
> <VM2 Rank>
103

> <Conf_Id>
1062

> <Probability>
0.01

> <Sum Probability>
99.69

> <Delta G>
4.461

> <G>
-3.501

> <E>
-29.064

> <-TS>
25.563

> <U+W>
-49.632

> <U>
10.242

> <W>
-59.874

> <W(PB)>
-62.264

> <W(SA)>
2.389

> <Valence>
9.192

> <Coulomb>
0.541

> <VdW>
0.509

> <VdW6>
-11.540

> <VdW12>
12.049

> <Bond>
0.268

> <Angle>
3.481

> <Pdih>
5.442

> <Idih>
0.001

> <Tether>
0.000

$$$$
VeraChem MOL file


 25 24  0  0  0  0  0  0  0  0999 V2000     
   19.8711   19.6192   26.8633 C   0  0  0  0  0  0  0  0  0  0  0  0
   20.1760   19.0524   27.8946 O   0  5  0  0  0  0  0  0  0  0  0  0
   18.7392   19.9765   26.6023 O   0  0  0  0  0  0  0  0  0  0  0  0
   20.9770   19.9226   25.8563 C   0  0  0  0  0  0  0  0  0  0  0  0
   21.7908   20.4124   26.4033 H   0  0  0  0  0  0  0  0  0  0  0  0
   20.6027   20.6567   25.1335 H   0  0  0  0  0  0  0  0  0  0  0  0
   21.5303   18.6690   25.1252 C   0  0  0  0  0  0  0  0  0  0  0  0
   22.3656   18.9663   24.4785 H   0  0  0  0  0  0  0  0  0  0  0  0
   21.9580   17.9864   25.8725 H   0  0  0  0  0  0  0  0  0  0  0  0
   20.4753   17.8937   24.2939 C   0  0  0  0  0  0  0  0  0  0  0  0
   19.7215   17.4766   24.9757 H   0  0  0  0  0  0  0  0  0  0  0  0
   20.9634   17.0309   23.8208 H   0  0  0  0  0  0  0  0  0  0  0  0
   19.7490   18.7198   23.2022 C   0  0  0  0  0  0  0  0  0  0  0  0
   19.0163   18.0632   22.7165 H   0  0  0  0  0  0  0  0  0  0  0  0
   19.1698   19.5278   23.6685 H   0  0  0  0  0  0  0  0  0  0  0  0
   20.7028   19.3064   22.1324 C   0  0  0  0  0  0  0  0  0  0  0  0
   21.2806   18.4966   21.6667 H   0  0  0  0  0  0  0  0  0  0  0  0
   21.4296   19.9699   22.6181 H   0  0  0  0  0  0  0  0  0  0  0  0
   19.9725   20.1185   21.0373 C   0  0  0  0  0  0  0  0  0  0  0  0
   19.3833   20.9212   21.5018 H   0  0  0  0  0  0  0  0  0  0  0  0
   20.7242   20.6116   20.4056 H   0  0  0  0  0  0  0  0  0  0  0  0
   19.0598   19.2560   20.1385 C   0  0  0  0  0  0  0  0  0  0  0  0
   18.2181   18.8378   20.7043 H   0  0  0  0  0  0  0  0  0  0  0  0
   18.6428   19.8608   19.3228 H   0  0  0  0  0  0  0  0  0  0  0  0
   19.6209   18.4256   19.6904 H   0  0  0  0  0  0  0  0  0  0  0  0
  1  2  1  0  0  0  0
  1  3  2  0  0  0  0
  1  4  1  0  0  0  0
  4  5  1  0  0  0  0
  4  6  1  0  0  0  0
  4  7  1  0  0  0  0
  7  8  1  0  0  0  0
  7  9  1  0  0  0  0
  7 10  1  0  0  0  0
 10 11  1  0  0  0  0
 10 12  1  0  0  0  0
 10 13  1  0  0  0  0
 13 14  1  0  0  0  0
 13 15  1  0  0  0  0
 13 16  1  0  0  0  0
 16 17  1  0  0  0  0
 16 18  1  0  0  0  0
 16 19  1  0  0  0  0
 19 20  1  0  0  0  0
 19 21  1  0  0  0  0
 19 22  1  0  0  0  0
 22 23  1  0  0  0  0
 22 24  1  0  0  0  0
 22 25  1  0  0  0  0
M  END
> <VM2 Rank>
104

> <Conf_Id>
216

> <Probability>
0.01

> <Sum Probability>
99.71

> <Delta G>
4.484

> <G>
-3.479

> <E>
-28.802

> <-TS>
25.324

> <U+W>
-49.370

> <U>
10.879

> <W>
-60.249

> <W(PB)>
-62.653

> <W(SA)>
2.404

> <Valence>
9.320

> <Coulomb>
0.828

> <VdW>
0.731

> <VdW6>
-11.182

> <VdW12>
11.913

> <Bond>
0.267

> <Angle>
3.459

> <Pdih>
5.593

> <Idih>
0.001

> <Tether>
0.000

$$$$
VeraChem MOL file


 25 24  0  0  0  0  0  0  0  0999 V2000     
   19.9507   19.6605   26.8831 C   0  0  0  0  0  0  0  0  0  0  0  0
   20.8700   20.4129   27.1409 O   0  5  0  0  0  0  0  0  0  0  0  0
   18.7815   19.9886   26.9339 O   0  0  0  0  0  0  0  0  0  0  0  0
   20.2766   18.2082   26.5398 C   0  0  0  0  0  0  0  0  0  0  0  0
   19.3399   17.6584   26.3881 H   0  0  0  0  0  0  0  0  0  0  0  0
   20.7500   17.7807   27.4312 H   0  0  0  0  0  0  0  0  0  0  0  0
   21.2218   18.0099   25.3213 C   0  0  0  0  0  0  0  0  0  0  0  0
   22.0517   18.7287   25.3690 H   0  0  0  0  0  0  0  0  0  0  0  0
   21.6796   17.0152   25.4076 H   0  0  0  0  0  0  0  0  0  0  0  0
   20.5288   18.0897   23.9381 C   0  0  0  0  0  0  0  0  0  0  0  0
   19.7010   17.3688   23.8976 H   0  0  0  0  0  0  0  0  0  0  0  0
   21.2563   17.7668   23.1831 H   0  0  0  0  0  0  0  0  0  0  0  0
   20.0074   19.5013   23.5752 C   0  0  0  0  0  0  0  0  0  0  0  0
   19.2317   19.7954   24.2926 H   0  0  0  0  0  0  0  0  0  0  0  0
   20.8182   20.2359   23.6732 H   0  0  0  0  0  0  0  0  0  0  0  0
   19.3946   19.5881   22.1566 C   0  0  0  0  0  0  0  0  0  0  0  0
   18.9028   20.5649   22.0520 H   0  0  0  0  0  0  0  0  0  0  0  0
   18.6058   18.8311   22.0491 H   0  0  0  0  0  0  0  0  0  0  0  0
   20.4315   19.4289   21.0213 C   0  0  0  0  0  0  0  0  0  0  0  0
   21.2483   20.1502   21.1619 H   0  0  0  0  0  0  0  0  0  0  0  0
   20.8794   18.4273   21.0530 H   0  0  0  0  0  0  0  0  0  0  0  0
   19.7901   19.6458   19.6358 C   0  0  0  0  0  0  0  0  0  0  0  0
   18.9865   18.9193   19.4574 H   0  0  0  0  0  0  0  0  0  0  0  0
   19.3652   20.6547   19.5526 H   0  0  0  0  0  0  0  0  0  0  0  0
   20.5375   19.5266   18.8407 H   0  0  0  0  0  0  0  0  0  0  0  0
  1  2  1  0  0  0  0
  1  3  2  0  0  0  0
  1  4  1  0  0  0  0
  4  5  1  0  0  0  0
  4  6  1  0  0  0  0
  4  7  1  0  0  0  0
  7  8  1  0  0  0  0
  7  9  1  0  0  0  0
  7 10  1  0  0  0  0
 10 11  1  0  0  0  0
 10 12  1  0  0  0  0
 10 13  1  0  0  0  0
 13 14  1  0  0  0  0
 13 15  1  0  0  0  0
 13 16  1  0  0  0  0
 16 17  1  0  0  0  0
 16 18  1  0  0  0  0
 16 19  1  0  0  0  0
 19 20  1  0  0  0  0
 19 21  1  0  0  0  0
 19 22  1  0  0  0  0
 22 23  1  0  0  0  0
 22 24  1  0  0  0  0
 22 25  1  0  0  0  0
M  END
> <VM2 Rank>
105

> <Conf_Id>
528

> <Probability>
0.01

> <Sum Probability>
99.72

> <Delta G>
4.582

> <G>
-3.380

> <E>
-28.383

> <-TS>
25.003

> <U+W>
-48.951

> <U>
11.422

> <W>
-60.372

> <W(PB)>
-62.796

> <W(SA)>
2.424

> <Valence>
10.135

> <Coulomb>
0.369

> <VdW>
0.918

> <VdW6>
-10.482

> <VdW12>
11.400

> <Bond>
0.245

> <Angle>
3.539

> <Pdih>
6.346

> <Idih>
0.006

> <Tether>
0.000

$$$$
VeraChem MOL file


 25 24  0  0  0  0  0  0  0  0999 V2000     
   19.8609   19.7004   26.7431 C   0  0  0  0  0  0  0  0  0  0  0  0
   20.8526   20.1950   27.2426 O   0  5  0  0  0  0  0  0  0  0  0  0
   18.8334   20.3172   26.5406 O   0  0  0  0  0  0  0  0  0  0  0  0
   19.8826   18.2093   26.4126 C   0  0  0  0  0  0  0  0  0  0  0  0
   18.9004   17.9169   26.0218 H   0  0  0  0  0  0  0  0  0  0  0  0
   20.0102   17.6837   27.3659 H   0  0  0  0  0  0  0  0  0  0  0  0
   21.0054   17.7632   25.4342 C   0  0  0  0  0  0  0  0  0  0  0  0
   21.9597   18.2247   25.7240 H   0  0  0  0  0  0  0  0  0  0  0  0
   21.1464   16.6801   25.5503 H   0  0  0  0  0  0  0  0  0  0  0  0
   20.7115   18.0437   23.9396 C   0  0  0  0  0  0  0  0  0  0  0  0
   19.7633   17.5655   23.6609 H   0  0  0  0  0  0  0  0  0  0  0  0
   21.4926   17.5578   23.3391 H   0  0  0  0  0  0  0  0  0  0  0  0
   20.6703   19.5482   23.5793 C   0  0  0  0  0  0  0  0  0  0  0  0
   19.7856   20.0175   24.0281 H   0  0  0  0  0  0  0  0  0  0  0  0
   21.5456   20.0473   24.0171 H   0  0  0  0  0  0  0  0  0  0  0  0
   20.6614   19.8134   22.0549 C   0  0  0  0  0  0  0  0  0  0  0  0
   21.5553   19.3671   21.5981 H   0  0  0  0  0  0  0  0  0  0  0  0
   20.7362   20.8968   21.8894 H   0  0  0  0  0  0  0  0  0  0  0  0
   19.3943   19.2827   21.3471 C   0  0  0  0  0  0  0  0  0  0  0  0
   19.3395   18.1900   21.4402 H   0  0  0  0  0  0  0  0  0  0  0  0
   18.4990   19.6914   21.8356 H   0  0  0  0  0  0  0  0  0  0  0  0
   19.3806   19.6609   19.8522 C   0  0  0  0  0  0  0  0  0  0  0  0
   19.3963   20.7510   19.7222 H   0  0  0  0  0  0  0  0  0  0  0  0
   20.2521   19.2410   19.3332 H   0  0  0  0  0  0  0  0  0  0  0  0
   18.4766   19.2746   19.3638 H   0  0  0  0  0  0  0  0  0  0  0  0
  1  2  1  0  0  0  0
  1  3  2  0  0  0  0
  1  4  1  0  0  0  0
  4  5  1  0  0  0  0
  4  6  1  0  0  0  0
  4  7  1  0  0  0  0
  7  8  1  0  0  0  0
  7  9  1  0  0  0  0
  7 10  1  0  0  0  0
 10 11  1  0  0  0  0
 10 12  1  0  0  0  0
 10 13  1  0  0  0  0
 13 14  1  0  0  0  0
 13 15  1  0  0  0  0
 13 16  1  0  0  0  0
 16 17  1  0  0  0  0
 16 18  1  0  0  0  0
 16 19  1  0  0  0  0
 19 20  1  0  0  0  0
 19 21  1  0  0  0  0
 19 22  1  0  0  0  0
 22 23  1  0  0  0  0
 22 24  1  0  0  0  0
 22 25  1  0  0  0  0
M  END
> <VM2 Rank>
106

> <Conf_Id>
1085

> <Probability>
0.01

> <Sum Probability>
99.73

> <Delta G>
4.596

> <G>
-3.366

> <E>
-28.554

> <-TS>
25.187

> <U+W>
-49.121

> <U>
11.400

> <W>
-60.522

> <W(PB)>
-62.946

> <W(SA)>
2.424

> <Valence>
9.920

> <Coulomb>
0.704

> <VdW>
0.777

> <VdW6>
-10.716

> <VdW12>
11.493

> <Bond>
0.235

> <Angle>
3.375

> <Pdih>
6.305

> <Idih>
0.006

> <Tether>
0.000

$$$$
VeraChem MOL file


 25 24  0  0  0  0  0  0  0  0999 V2000     
   19.6884   19.1961   26.7586 C   0  0  0  0  0  0  0  0  0  0  0  0
   20.1795   18.2263   27.3028 O   0  5  0  0  0  0  0  0  0  0  0  0
   18.4947   19.3268   26.5710 O   0  0  0  0  0  0  0  0  0  0  0  0
   20.6116   20.3413   26.3470 C   0  0  0  0  0  0  0  0  0  0  0  0
   21.0519   20.7305   27.2723 H   0  0  0  0  0  0  0  0  0  0  0  0
   20.0064   21.1514   25.9224 H   0  0  0  0  0  0  0  0  0  0  0  0
   21.7540   19.9526   25.3670 C   0  0  0  0  0  0  0  0  0  0  0  0
   22.5303   20.7274   25.4259 H   0  0  0  0  0  0  0  0  0  0  0  0
   22.2318   19.0205   25.6995 H   0  0  0  0  0  0  0  0  0  0  0  0
   21.3219   19.8289   23.8847 C   0  0  0  0  0  0  0  0  0  0  0  0
   22.2256   19.7014   23.2733 H   0  0  0  0  0  0  0  0  0  0  0  0
   20.8593   20.7709   23.5624 H   0  0  0  0  0  0  0  0  0  0  0  0
   20.3622   18.6469   23.6070 C   0  0  0  0  0  0  0  0  0  0  0  0
   20.7574   17.7417   24.0880 H   0  0  0  0  0  0  0  0  0  0  0  0
   19.3839   18.8424   24.0643 H   0  0  0  0  0  0  0  0  0  0  0  0
   20.1643   18.3592   22.0996 C   0  0  0  0  0  0  0  0  0  0  0  0
   19.5576   17.4493   21.9954 H   0  0  0  0  0  0  0  0  0  0  0  0
   21.1357   18.1396   21.6359 H   0  0  0  0  0  0  0  0  0  0  0  0
   19.4734   19.5142   21.3400 C   0  0  0  0  0  0  0  0  0  0  0  0
   18.5245   19.7661   21.8334 H   0  0  0  0  0  0  0  0  0  0  0  0
   20.1001   20.4152   21.3719 H   0  0  0  0  0  0  0  0  0  0  0  0
   19.2030   19.1418   19.8682 C   0  0  0  0  0  0  0  0  0  0  0  0
   18.5463   18.2648   19.7987 H   0  0  0  0  0  0  0  0  0  0  0  0
   18.7151   19.9728   19.3424 H   0  0  0  0  0  0  0  0  0  0  0  0
   20.1394   18.9117   19.3433 H   0  0  0  0  0  0  0  0  0  0  0  0
  1  2  1  0  0  0  0
  1  3  2  0  0  0  0
  1  4  1  0  0  0  0
  4  5  1  0  0  0  0
  4  6  1  0  0  0  0
  4  7  1  0  0  0  0
  7  8  1  0  0  0  0
  7  9  1  0  0  0  0
  7 10  1  0  0  0  0
 10 11  1  0  0  0  0
 10 12  1  0  0  0  0
 10 13  1  0  0  0  0
 13 14  1  0  0  0  0
 13 15  1  0  0  0  0
 13 16  1  0  0  0  0
 16 17  1  0  0  0  0
 16 18  1  0  0  0  0
 16 19  1  0  0  0  0
 19 20  1  0  0  0  0
 19 21  1  0  0  0  0
 19 22  1  0  0  0  0
 22 23  1  0  0  0  0
 22 24  1  0  0  0  0
 22 25  1  0  0  0  0
M  END
> <VM2 Rank>
107

> <Conf_Id>
438

> <Probability>
0.01

> <Sum Probability>
99.74

> <Delta G>
4.608

> <G>
-3.355

> <E>
-28.541

> <-TS>
25.187

> <U+W>
-49.109

> <U>
11.401

> <W>
-60.510

> <W(PB)>
-62.942

> <W(SA)>
2.432

> <Valence>
9.920

> <Coulomb>
0.705

> <VdW>
0.777

> <VdW6>
-10.716

> <VdW12>
11.493

> <Bond>
0.235

> <Angle>
3.375

> <Pdih>
6.304

> <Idih>
0.006

> <Tether>
0.000

$$$$
VeraChem MOL file


 25 24  0  0  0  0  0  0  0  0999 V2000     
   20.3077   19.5669   27.3740 C   0  0  0  0  0  0  0  0  0  0  0  0
   21.3895   19.4551   27.9160 O   0  5  0  0  0  0  0  0  0  0  0  0
   19.2494   19.5338   27.9704 O   0  0  0  0  0  0  0  0  0  0  0  0
   20.2756   19.7349   25.8591 C   0  0  0  0  0  0  0  0  0  0  0  0
   21.1762   20.2836   25.5585 H   0  0  0  0  0  0  0  0  0  0  0  0
   19.4132   20.3641   25.6113 H   0  0  0  0  0  0  0  0  0  0  0  0
   20.1980   18.3811   25.1068 C   0  0  0  0  0  0  0  0  0  0  0  0
   21.0265   17.7421   25.4424 H   0  0  0  0  0  0  0  0  0  0  0  0
   19.2718   17.8594   25.3851 H   0  0  0  0  0  0  0  0  0  0  0  0
   20.2747   18.5265   23.5684 C   0  0  0  0  0  0  0  0  0  0  0  0
   20.3139   17.5233   23.1227 H   0  0  0  0  0  0  0  0  0  0  0  0
   21.2136   19.0291   23.3025 H   0  0  0  0  0  0  0  0  0  0  0  0
   19.0786   19.3010   22.9665 C   0  0  0  0  0  0  0  0  0  0  0  0
   18.1459   18.8905   23.3766 H   0  0  0  0  0  0  0  0  0  0  0  0
   19.1196   20.3517   23.2820 H   0  0  0  0  0  0  0  0  0  0  0  0
   18.9973   19.2414   21.4203 C   0  0  0  0  0  0  0  0  0  0  0  0
   18.0795   19.7645   21.1186 H   0  0  0  0  0  0  0  0  0  0  0  0
   18.8706   18.2020   21.0882 H   0  0  0  0  0  0  0  0  0  0  0  0
   20.1900   19.8996   20.6824 C   0  0  0  0  0  0  0  0  0  0  0  0
   19.8154   20.3742   19.7650 H   0  0  0  0  0  0  0  0  0  0  0  0
   20.6158   20.7082   21.2924 H   0  0  0  0  0  0  0  0  0  0  0  0
   21.2922   18.8936   20.2821 C   0  0  0  0  0  0  0  0  0  0  0  0
   20.8889   18.1151   19.6216 H   0  0  0  0  0  0  0  0  0  0  0  0
   22.1006   19.4047   19.7434 H   0  0  0  0  0  0  0  0  0  0  0  0
   21.7330   18.4010   21.1559 H   0  0  0  0  0  0  0  0  0  0  0  0
  1  2  1  0  0  0  0
  1  3  2  0  0  0  0
  1  4  1  0  0  0  0
  4  5  1  0  0  0  0
  4  6  1  0  0  0  0
  4  7  1  0  0  0  0
  7  8  1  0  0  0  0
  7  9  1  0  0  0  0
  7 10  1  0  0  0  0
 10 11  1  0  0  0  0
 10 12  1  0  0  0  0
 10 13  1  0  0  0  0
 13 14  1  0  0  0  0
 13 15  1  0  0  0  0
 13 16  1  0  0  0  0
 16 17  1  0  0  0  0
 16 18  1  0  0  0  0
 16 19  1  0  0  0  0
 19 20  1  0  0  0  0
 19 21  1  0  0  0  0
 19 22  1  0  0  0  0
 22 23  1  0  0  0  0
 22 24  1  0  0  0  0
 22 25  1  0  0  0  0
M  END
> <VM2 Rank>
108

> <Conf_Id>
450

> <Probability>
0.01

> <Sum Probability>
99.75

> <Delta G>
4.649

> <G>
-3.313

> <E>
-28.170

> <-TS>
24.856

> <U+W>
-48.737

> <U>
10.438

> <W>
-59.175

> <W(PB)>
-61.615

> <W(SA)>
2.439

> <Valence>
10.999

> <Coulomb>
-1.665

> <VdW>
1.104

> <VdW6>
-9.904

> <VdW12>
11.009

> <Bond>
0.232

> <Angle>
3.215

> <Pdih>
7.552

> <Idih>
0.001

> <Tether>
0.000

$$$$
VeraChem MOL file


 25 24  0  0  0  0  0  0  0  0999 V2000     
   20.3248   19.7464   27.2296 C   0  0  0  0  0  0  0  0  0  0  0  0
   21.3805   19.6069   27.8151 O   0  5  0  0  0  0  0  0  0  0  0  0
   19.2626   19.9281   27.7912 O   0  0  0  0  0  0  0  0  0  0  0  0
   20.3301   19.6659   25.7073 C   0  0  0  0  0  0  0  0  0  0  0  0
   21.2909   20.0547   25.3494 H   0  0  0  0  0  0  0  0  0  0  0  0
   19.5486   20.3380   25.3356 H   0  0  0  0  0  0  0  0  0  0  0  0
   20.1078   18.2237   25.1821 C   0  0  0  0  0  0  0  0  0  0  0  0
   20.8511   17.5614   25.6473 H   0  0  0  0  0  0  0  0  0  0  0  0
   19.1228   17.8612   25.5072 H   0  0  0  0  0  0  0  0  0  0  0  0
   20.2305   18.1027   23.6446 C   0  0  0  0  0  0  0  0  0  0  0  0
   20.1950   17.0380   23.3767 H   0  0  0  0  0  0  0  0  0  0  0  0
   21.2169   18.4639   23.3307 H   0  0  0  0  0  0  0  0  0  0  0  0
   19.1085   18.8476   22.8787 C   0  0  0  0  0  0  0  0  0  0  0  0
   18.1416   18.4604   23.2280 H   0  0  0  0  0  0  0  0  0  0  0  0
   19.1147   19.9185   23.1184 H   0  0  0  0  0  0  0  0  0  0  0  0
   19.1869   18.6590   21.3421 C   0  0  0  0  0  0  0  0  0  0  0  0
   18.1613   18.6091   20.9516 H   0  0  0  0  0  0  0  0  0  0  0  0
   19.6456   17.6909   21.0989 H   0  0  0  0  0  0  0  0  0  0  0  0
   19.9173   19.7976   20.5876 C   0  0  0  0  0  0  0  0  0  0  0  0
   19.8486   19.6008   19.5089 H   0  0  0  0  0  0  0  0  0  0  0  0
   19.3940   20.7482   20.7603 H   0  0  0  0  0  0  0  0  0  0  0  0
   21.4041   19.9562   20.9677 C   0  0  0  0  0  0  0  0  0  0  0  0
   21.5123   20.3151   21.9988 H   0  0  0  0  0  0  0  0  0  0  0  0
   21.9395   19.0028   20.8712 H   0  0  0  0  0  0  0  0  0  0  0  0
   21.8924   20.6873   20.3106 H   0  0  0  0  0  0  0  0  0  0  0  0
  1  2  1  0  0  0  0
  1  3  2  0  0  0  0
  1  4  1  0  0  0  0
  4  5  1  0  0  0  0
  4  6  1  0  0  0  0
  4  7  1  0  0  0  0
  7  8  1  0  0  0  0
  7  9  1  0  0  0  0
  7 10  1  0  0  0  0
 10 11  1  0  0  0  0
 10 12  1  0  0  0  0
 10 13  1  0  0  0  0
 13 14  1  0  0  0  0
 13 15  1  0  0  0  0
 13 16  1  0  0  0  0
 16 17  1  0  0  0  0
 16 18  1  0  0  0  0
 16 19  1  0  0  0  0
 19 20  1  0  0  0  0
 19 21  1  0  0  0  0
 19 22  1  0  0  0  0
 22 23  1  0  0  0  0
 22 24  1  0  0  0  0
 22 25  1  0  0  0  0
M  END
> <VM2 Rank>
109

> <Conf_Id>
238

> <Probability>
0.01

> <Sum Probability>
99.76

> <Delta G>
4.657

> <G>
-3.305

> <E>
-28.116

> <-TS>
24.811

> <U+W>
-48.684

> <U>
10.664

> <W>
-59.348

> <W(PB)>
-61.759

> <W(SA)>
2.411

> <Valence>
11.013

> <Coulomb>
-1.402

> <VdW>
1.052

> <VdW6>
-9.993

> <VdW12>
11.045

> <Bond>
0.241

> <Angle>
3.227

> <Pdih>
7.545

> <Idih>
0.001

> <Tether>
0.000

$$$$
VeraChem MOL file


 25 24  0  0  0  0  0  0  0  0999 V2000     
   20.3243   18.9310   26.8933 C   0  0  0  0  0  0  0  0  0  0  0  0
   21.4693   19.2427   27.1567 O   0  5  0  0  0  0  0  0  0  0  0  0
   19.9063   17.7920   26.9647 O   0  0  0  0  0  0  0  0  0  0  0  0
   19.3406   20.0364   26.5142 C   0  0  0  0  0  0  0  0  0  0  0  0
   19.2606   20.6901   27.3904 H   0  0  0  0  0  0  0  0  0  0  0  0
   18.3487   19.5945   26.3612 H   0  0  0  0  0  0  0  0  0  0  0  0
   19.7461   20.8920   25.2808 C   0  0  0  0  0  0  0  0  0  0  0  0
   19.2059   21.8465   25.3398 H   0  0  0  0  0  0  0  0  0  0  0  0
   20.8138   21.1462   25.3349 H   0  0  0  0  0  0  0  0  0  0  0  0
   19.4212   20.2524   23.9078 C   0  0  0  0  0  0  0  0  0  0  0  0
   19.5934   21.0144   23.1375 H   0  0  0  0  0  0  0  0  0  0  0  0
   18.3529   20.0015   23.8607 H   0  0  0  0  0  0  0  0  0  0  0  0
   20.2653   18.9962   23.5824 C   0  0  0  0  0  0  0  0  0  0  0  0
   21.3342   19.2265   23.6878 H   0  0  0  0  0  0  0  0  0  0  0  0
   20.0417   18.2111   24.3149 H   0  0  0  0  0  0  0  0  0  0  0  0
   19.9937   18.4171   22.1730 C   0  0  0  0  0  0  0  0  0  0  0  0
   18.9196   18.2177   22.0573 H   0  0  0  0  0  0  0  0  0  0  0  0
   20.4994   17.4448   22.0959 H   0  0  0  0  0  0  0  0  0  0  0  0
   20.4846   19.3259   21.0230 C   0  0  0  0  0  0  0  0  0  0  0  0
   19.9341   20.2755   21.0272 H   0  0  0  0  0  0  0  0  0  0  0  0
   21.5457   19.5695   21.1707 H   0  0  0  0  0  0  0  0  0  0  0  0
   20.3015   18.6482   19.6499 C   0  0  0  0  0  0  0  0  0  0  0  0
   19.2444   18.4174   19.4642 H   0  0  0  0  0  0  0  0  0  0  0  0
   20.6514   19.3064   18.8441 H   0  0  0  0  0  0  0  0  0  0  0  0
   20.8720   17.7119   19.5942 H   0  0  0  0  0  0  0  0  0  0  0  0
  1  2  1  0  0  0  0
  1  3  2  0  0  0  0
  1  4  1  0  0  0  0
  4  5  1  0  0  0  0
  4  6  1  0  0  0  0
  4  7  1  0  0  0  0
  7  8  1  0  0  0  0
  7  9  1  0  0  0  0
  7 10  1  0  0  0  0
 10 11  1  0  0  0  0
 10 12  1  0  0  0  0
 10 13  1  0  0  0  0
 13 14  1  0  0  0  0
 13 15  1  0  0  0  0
 13 16  1  0  0  0  0
 16 17  1  0  0  0  0
 16 18  1  0  0  0  0
 16 19  1  0  0  0  0
 19 20  1  0  0  0  0
 19 21  1  0  0  0  0
 19 22  1  0  0  0  0
 22 23  1  0  0  0  0
 22 24  1  0  0  0  0
 22 25  1  0  0  0  0
M  END
> <VM2 Rank>
110

> <Conf_Id>
1259

> <Probability>
0.01

> <Sum Probability>
99.77

> <Delta G>
4.658

> <G>
-3.304

> <E>
-28.308

> <-TS>
25.003

> <U+W>
-48.875

> <U>
11.423

> <W>
-60.298

> <W(PB)>
-62.736

> <W(SA)>
2.438

> <Valence>
10.135

> <Coulomb>
0.370

> <VdW>
0.918

> <VdW6>
-10.483

> <VdW12>
11.400

> <Bond>
0.245

> <Angle>
3.539

> <Pdih>
6.346

> <Idih>
0.006

> <Tether>
0.000

$$$$
VeraChem MOL file


 25 24  0  0  0  0  0  0  0  0999 V2000     
   20.0106   19.4657   26.9807 C   0  0  0  0  0  0  0  0  0  0  0  0
   20.8994   19.9144   27.6781 O   0  5  0  0  0  0  0  0  0  0  0  0
   18.9168   19.9836   26.8697 O   0  0  0  0  0  0  0  0  0  0  0  0
   20.2749   18.1647   26.2280 C   0  0  0  0  0  0  0  0  0  0  0  0
   19.3175   17.7554   25.8868 H   0  0  0  0  0  0  0  0  0  0  0  0
   20.6776   17.4464   26.9516 H   0  0  0  0  0  0  0  0  0  0  0  0
   21.2670   18.3077   25.0412 C   0  0  0  0  0  0  0  0  0  0  0  0
   22.2370   18.6431   25.4337 H   0  0  0  0  0  0  0  0  0  0  0  0
   21.4414   17.3190   24.5958 H   0  0  0  0  0  0  0  0  0  0  0  0
   20.8123   19.2918   23.9351 C   0  0  0  0  0  0  0  0  0  0  0  0
   21.6285   19.3814   23.2072 H   0  0  0  0  0  0  0  0  0  0  0  0
   20.6673   20.2926   24.3643 H   0  0  0  0  0  0  0  0  0  0  0  0
   19.5207   18.8464   23.2065 C   0  0  0  0  0  0  0  0  0  0  0  0
   19.6562   17.8402   22.7893 H   0  0  0  0  0  0  0  0  0  0  0  0
   18.7030   18.7690   23.9344 H   0  0  0  0  0  0  0  0  0  0  0  0
   19.0691   19.8258   22.0932 C   0  0  0  0  0  0  0  0  0  0  0  0
   18.8569   20.8038   22.5461 H   0  0  0  0  0  0  0  0  0  0  0  0
   18.1152   19.4705   21.6804 H   0  0  0  0  0  0  0  0  0  0  0  0
   20.0722   20.0218   20.9292 C   0  0  0  0  0  0  0  0  0  0  0  0
   19.6402   20.7339   20.2128 H   0  0  0  0  0  0  0  0  0  0  0  0
   20.9957   20.4873   21.2977 H   0  0  0  0  0  0  0  0  0  0  0  0
   20.4100   18.7122   20.1843 C   0  0  0  0  0  0  0  0  0  0  0  0
   21.0461   18.9183   19.3139 H   0  0  0  0  0  0  0  0  0  0  0  0
   20.9516   18.0130   20.8337 H   0  0  0  0  0  0  0  0  0  0  0  0
   19.4979   18.2164   19.8277 H   0  0  0  0  0  0  0  0  0  0  0  0
  1  2  1  0  0  0  0
  1  3  2  0  0  0  0
  1  4  1  0  0  0  0
  4  5  1  0  0  0  0
  4  6  1  0  0  0  0
  4  7  1  0  0  0  0
  7  8  1  0  0  0  0
  7  9  1  0  0  0  0
  7 10  1  0  0  0  0
 10 11  1  0  0  0  0
 10 12  1  0  0  0  0
 10 13  1  0  0  0  0
 13 14  1  0  0  0  0
 13 15  1  0  0  0  0
 13 16  1  0  0  0  0
 16 17  1  0  0  0  0
 16 18  1  0  0  0  0
 16 19  1  0  0  0  0
 19 20  1  0  0  0  0
 19 21  1  0  0  0  0
 19 22  1  0  0  0  0
 22 23  1  0  0  0  0
 22 24  1  0  0  0  0
 22 25  1  0  0  0  0
M  END
> <VM2 Rank>
111

> <Conf_Id>
563

> <Probability>
0.01

> <Sum Probability>
99.78

> <Delta G>
4.660

> <G>
-3.303

> <E>
-28.505

> <-TS>
25.202

> <U+W>
-49.073

> <U>
11.036

> <W>
-60.109

> <W(PB)>
-62.507

> <W(SA)>
2.399

> <Valence>
9.325

> <Coulomb>
0.928

> <VdW>
0.783

> <VdW6>
-11.027

> <VdW12>
11.810

> <Bond>
0.268

> <Angle>
3.516

> <Pdih>
5.540

> <Idih>
0.001

> <Tether>
0.000

$$$$
VeraChem MOL file


 25 24  0  0  0  0  0  0  0  0999 V2000     
   19.5563   19.0595   26.5038 C   0  0  0  0  0  0  0  0  0  0  0  0
   19.5972   17.8542   26.6559 O   0  5  0  0  0  0  0  0  0  0  0  0
   18.5223   19.6838   26.3678 O   0  0  0  0  0  0  0  0  0  0  0  0
   20.8673   19.8418   26.5575 C   0  0  0  0  0  0  0  0  0  0  0  0
   21.2701   19.6989   27.5669 H   0  0  0  0  0  0  0  0  0  0  0  0
   20.6485   20.9116   26.4555 H   0  0  0  0  0  0  0  0  0  0  0  0
   21.9404   19.4100   25.5188 C   0  0  0  0  0  0  0  0  0  0  0  0
   22.9189   19.7567   25.8778 H   0  0  0  0  0  0  0  0  0  0  0  0
   22.0042   18.3137   25.4800 H   0  0  0  0  0  0  0  0  0  0  0  0
   21.7317   19.9804   24.0940 C   0  0  0  0  0  0  0  0  0  0  0  0
   22.6186   19.7348   23.4938 H   0  0  0  0  0  0  0  0  0  0  0  0
   21.6831   21.0770   24.1385 H   0  0  0  0  0  0  0  0  0  0  0  0
   20.4785   19.4335   23.3734 C   0  0  0  0  0  0  0  0  0  0  0  0
   20.4782   18.3372   23.4303 H   0  0  0  0  0  0  0  0  0  0  0  0
   19.5726   19.7836   23.8840 H   0  0  0  0  0  0  0  0  0  0  0  0
   20.4283   19.8862   21.8956 C   0  0  0  0  0  0  0  0  0  0  0  0
   21.3012   19.4923   21.3573 H   0  0  0  0  0  0  0  0  0  0  0  0
   20.5055   20.9813   21.8552 H   0  0  0  0  0  0  0  0  0  0  0  0
   19.1344   19.4575   21.1652 C   0  0  0  0  0  0  0  0  0  0  0  0
   18.2593   19.8563   21.6968 H   0  0  0  0  0  0  0  0  0  0  0  0
   19.1254   19.9143   20.1660 H   0  0  0  0  0  0  0  0  0  0  0  0
   18.9966   17.9270   21.0140 C   0  0  0  0  0  0  0  0  0  0  0  0
   19.8750   17.5009   20.5120 H   0  0  0  0  0  0  0  0  0  0  0  0
   18.8855   17.4370   21.9895 H   0  0  0  0  0  0  0  0  0  0  0  0
   18.1110   17.6786   20.4149 H   0  0  0  0  0  0  0  0  0  0  0  0
  1  2  1  0  0  0  0
  1  3  2  0  0  0  0
  1  4  1  0  0  0  0
  4  5  1  0  0  0  0
  4  6  1  0  0  0  0
  4  7  1  0  0  0  0
  7  8  1  0  0  0  0
  7  9  1  0  0  0  0
  7 10  1  0  0  0  0
 10 11  1  0  0  0  0
 10 12  1  0  0  0  0
 10 13  1  0  0  0  0
 13 14  1  0  0  0  0
 13 15  1  0  0  0  0
 13 16  1  0  0  0  0
 16 17  1  0  0  0  0
 16 18  1  0  0  0  0
 16 19  1  0  0  0  0
 19 20  1  0  0  0  0
 19 21  1  0  0  0  0
 19 22  1  0  0  0  0
 22 23  1  0  0  0  0
 22 24  1  0  0  0  0
 22 25  1  0  0  0  0
M  END
> <VM2 Rank>
112

> <Conf_Id>
235

> <Probability>
0.01

> <Sum Probability>
99.78

> <Delta G>
4.661

> <G>
-3.301

> <E>
-28.442

> <-TS>
25.141

> <U+W>
-49.010

> <U>
12.313

> <W>
-61.322

> <W(PB)>
-63.724

> <W(SA)>
2.402

> <Valence>
9.950

> <Coulomb>
1.612

> <VdW>
0.751

> <VdW6>
-10.686

> <VdW12>
11.437

> <Bond>
0.232

> <Angle>
3.418

> <Pdih>
6.293

> <Idih>
0.007

> <Tether>
0.000

$$$$
VeraChem MOL file


 25 24  0  0  0  0  0  0  0  0999 V2000     
   20.5964   19.1045   27.1174 C   0  0  0  0  0  0  0  0  0  0  0  0
   21.5414   19.8329   27.3476 O   0  5  0  0  0  0  0  0  0  0  0  0
   19.9861   18.5016   27.9782 O   0  0  0  0  0  0  0  0  0  0  0  0
   20.1363   18.9565   25.6716 C   0  0  0  0  0  0  0  0  0  0  0  0
   19.7180   17.9504   25.5486 H   0  0  0  0  0  0  0  0  0  0  0  0
   21.0237   19.0260   25.0325 H   0  0  0  0  0  0  0  0  0  0  0  0
   19.0916   20.0253   25.2621 C   0  0  0  0  0  0  0  0  0  0  0  0
   18.2723   20.0156   25.9943 H   0  0  0  0  0  0  0  0  0  0  0  0
   19.5499   21.0217   25.3270 H   0  0  0  0  0  0  0  0  0  0  0  0
   18.4908   19.8219   23.8484 C   0  0  0  0  0  0  0  0  0  0  0  0
   17.7354   20.6046   23.6942 H   0  0  0  0  0  0  0  0  0  0  0  0
   17.9464   18.8688   23.8024 H   0  0  0  0  0  0  0  0  0  0  0  0
   19.5199   19.9093   22.6929 C   0  0  0  0  0  0  0  0  0  0  0  0
   19.0386   20.4112   21.8434 H   0  0  0  0  0  0  0  0  0  0  0  0
   20.3646   20.5466   22.9877 H   0  0  0  0  0  0  0  0  0  0  0  0
   20.0277   18.5236   22.2216 C   0  0  0  0  0  0  0  0  0  0  0  0
   19.1884   17.9466   21.8102 H   0  0  0  0  0  0  0  0  0  0  0  0
   20.3991   17.9511   23.0796 H   0  0  0  0  0  0  0  0  0  0  0  0
   21.1573   18.6104   21.1690 C   0  0  0  0  0  0  0  0  0  0  0  0
   22.0044   19.1760   21.5809 H   0  0  0  0  0  0  0  0  0  0  0  0
   21.5299   17.5967   20.9675 H   0  0  0  0  0  0  0  0  0  0  0  0
   20.7056   19.2481   19.8372 C   0  0  0  0  0  0  0  0  0  0  0  0
   19.8393   18.7174   19.4213 H   0  0  0  0  0  0  0  0  0  0  0  0
   20.4329   20.3024   19.9702 H   0  0  0  0  0  0  0  0  0  0  0  0
   21.5153   19.2054   19.0972 H   0  0  0  0  0  0  0  0  0  0  0  0
  1  2  1  0  0  0  0
  1  3  2  0  0  0  0
  1  4  1  0  0  0  0
  4  5  1  0  0  0  0
  4  6  1  0  0  0  0
  4  7  1  0  0  0  0
  7  8  1  0  0  0  0
  7  9  1  0  0  0  0
  7 10  1  0  0  0  0
 10 11  1  0  0  0  0
 10 12  1  0  0  0  0
 10 13  1  0  0  0  0
 13 14  1  0  0  0  0
 13 15  1  0  0  0  0
 13 16  1  0  0  0  0
 16 17  1  0  0  0  0
 16 18  1  0  0  0  0
 16 19  1  0  0  0  0
 19 20  1  0  0  0  0
 19 21  1  0  0  0  0
 19 22  1  0  0  0  0
 22 23  1  0  0  0  0
 22 24  1  0  0  0  0
 22 25  1  0  0  0  0
M  END
> <VM2 Rank>
113

> <Conf_Id>
222

> <Probability>
0.01

> <Sum Probability>
99.79

> <Delta G>
4.661

> <G>
-3.301

> <E>
-28.221

> <-TS>
24.920

> <U+W>
-48.789

> <U>
10.710

> <W>
-59.499

> <W(PB)>
-61.911

> <W(SA)>
2.413

> <Valence>
11.065

> <Coulomb>
-1.442

> <VdW>
1.087

> <VdW6>
-9.993

> <VdW12>
11.080

> <Bond>
0.233

> <Angle>
3.172

> <Pdih>
7.658

> <Idih>
0.001

> <Tether>
0.000

$$$$
VeraChem MOL file


 25 24  0  0  0  0  0  0  0  0999 V2000     
   19.6479   19.4037   27.0391 C   0  0  0  0  0  0  0  0  0  0  0  0
   20.2133   19.3010   28.1099 O   0  5  0  0  0  0  0  0  0  0  0  0
   18.6458   20.0693   26.8680 O   0  0  0  0  0  0  0  0  0  0  0  0
   20.2409   18.6733   25.8396 C   0  0  0  0  0  0  0  0  0  0  0  0
   19.4154   18.3870   25.1808 H   0  0  0  0  0  0  0  0  0  0  0  0
   20.6976   17.7445   26.2016 H   0  0  0  0  0  0  0  0  0  0  0  0
   21.2941   19.5233   25.0808 C   0  0  0  0  0  0  0  0  0  0  0  0
   20.8539   20.4801   24.7678 H   0  0  0  0  0  0  0  0  0  0  0  0
   22.0980   19.7736   25.7869 H   0  0  0  0  0  0  0  0  0  0  0  0
   21.9149   18.7942   23.8621 C   0  0  0  0  0  0  0  0  0  0  0  0
   21.9274   17.7090   24.0325 H   0  0  0  0  0  0  0  0  0  0  0  0
   22.9685   19.0958   23.7844 H   0  0  0  0  0  0  0  0  0  0  0  0
   21.2390   19.1131   22.5049 C   0  0  0  0  0  0  0  0  0  0  0  0
   21.3173   20.1908   22.3104 H   0  0  0  0  0  0  0  0  0  0  0  0
   21.8088   18.6132   21.7099 H   0  0  0  0  0  0  0  0  0  0  0  0
   19.7587   18.6731   22.4136 C   0  0  0  0  0  0  0  0  0  0  0  0
   19.1470   19.2861   23.0883 H   0  0  0  0  0  0  0  0  0  0  0  0
   19.6705   17.6341   22.7586 H   0  0  0  0  0  0  0  0  0  0  0  0
   19.1793   18.7685   20.9829 C   0  0  0  0  0  0  0  0  0  0  0  0
   19.7721   18.1446   20.2999 H   0  0  0  0  0  0  0  0  0  0  0  0
   18.1641   18.3482   20.9846 H   0  0  0  0  0  0  0  0  0  0  0  0
   19.1191   20.2146   20.4451 C   0  0  0  0  0  0  0  0  0  0  0  0
   20.1239   20.6382   20.3233 H   0  0  0  0  0  0  0  0  0  0  0  0
   18.6263   20.2397   19.4646 H   0  0  0  0  0  0  0  0  0  0  0  0
   18.5519   20.8632   21.1254 H   0  0  0  0  0  0  0  0  0  0  0  0
  1  2  1  0  0  0  0
  1  3  2  0  0  0  0
  1  4  1  0  0  0  0
  4  5  1  0  0  0  0
  4  6  1  0  0  0  0
  4  7  1  0  0  0  0
  7  8  1  0  0  0  0
  7  9  1  0  0  0  0
  7 10  1  0  0  0  0
 10 11  1  0  0  0  0
 10 12  1  0  0  0  0
 10 13  1  0  0  0  0
 13 14  1  0  0  0  0
 13 15  1  0  0  0  0
 13 16  1  0  0  0  0
 16 17  1  0  0  0  0
 16 18  1  0  0  0  0
 16 19  1  0  0  0  0
 19 20  1  0  0  0  0
 19 21  1  0  0  0  0
 19 22  1  0  0  0  0
 22 23  1  0  0  0  0
 22 24  1  0  0  0  0
 22 25  1  0  0  0  0
M  END
> <VM2 Rank>
114

> <Conf_Id>
221

> <Probability>
0.01

> <Sum Probability>
99.80

> <Delta G>
4.708

> <G>
-3.255

> <E>
-28.163

> <-TS>
24.908

> <U+W>
-48.730

> <U>
10.997

> <W>
-59.727

> <W(PB)>
-62.149

> <W(SA)>
2.422

> <Valence>
10.985

> <Coulomb>
-0.994

> <VdW>
1.006

> <VdW6>
-10.063

> <VdW12>
11.069

> <Bond>
0.238

> <Angle>
3.202

> <Pdih>
7.545

> <Idih>
0.001

> <Tether>
0.000

$$$$
VeraChem MOL file


 25 24  0  0  0  0  0  0  0  0999 V2000     
   20.1406   18.8944   27.2559 C   0  0  0  0  0  0  0  0  0  0  0  0
   21.1669   18.6191   27.8456 O   0  5  0  0  0  0  0  0  0  0  0  0
   19.1054   19.2011   27.8137 O   0  0  0  0  0  0  0  0  0  0  0  0
   20.1591   18.8758   25.7317 C   0  0  0  0  0  0  0  0  0  0  0  0
   19.1652   18.5659   25.3903 H   0  0  0  0  0  0  0  0  0  0  0  0
   20.8689   18.1046   25.4096 H   0  0  0  0  0  0  0  0  0  0  0  0
   20.5456   20.2474   25.1198 C   0  0  0  0  0  0  0  0  0  0  0  0
   19.8025   21.0028   25.4105 H   0  0  0  0  0  0  0  0  0  0  0  0
   21.5019   20.5697   25.5546 H   0  0  0  0  0  0  0  0  0  0  0  0
   20.6876   20.2163   23.5795 C   0  0  0  0  0  0  0  0  0  0  0  0
   21.4328   19.4622   23.3000 H   0  0  0  0  0  0  0  0  0  0  0  0
   21.0915   21.1829   23.2490 H   0  0  0  0  0  0  0  0  0  0  0  0
   19.3484   19.9574   22.8447 C   0  0  0  0  0  0  0  0  0  0  0  0
   18.9152   18.9955   23.1469 H   0  0  0  0  0  0  0  0  0  0  0  0
   18.6322   20.7289   23.1584 H   0  0  0  0  0  0  0  0  0  0  0  0
   19.4780   20.0064   21.3007 C   0  0  0  0  0  0  0  0  0  0  0  0
   20.2921   20.6828   21.0069 H   0  0  0  0  0  0  0  0  0  0  0  0
   18.5594   20.4519   20.8951 H   0  0  0  0  0  0  0  0  0  0  0  0
   19.6638   18.6258   20.6236 C   0  0  0  0  0  0  0  0  0  0  0  0
   18.7973   17.9876   20.8453 H   0  0  0  0  0  0  0  0  0  0  0  0
   19.6685   18.7697   19.5344 H   0  0  0  0  0  0  0  0  0  0  0  0
   20.9576   17.8905   21.0308 C   0  0  0  0  0  0  0  0  0  0  0  0
   21.0923   16.9860   20.4238 H   0  0  0  0  0  0  0  0  0  0  0  0
   21.8373   18.5307   20.8852 H   0  0  0  0  0  0  0  0  0  0  0  0
   20.9214   17.5799   22.0824 H   0  0  0  0  0  0  0  0  0  0  0  0
  1  2  1  0  0  0  0
  1  3  2  0  0  0  0
  1  4  1  0  0  0  0
  4  5  1  0  0  0  0
  4  6  1  0  0  0  0
  4  7  1  0  0  0  0
  7  8  1  0  0  0  0
  7  9  1  0  0  0  0
  7 10  1  0  0  0  0
 10 11  1  0  0  0  0
 10 12  1  0  0  0  0
 10 13  1  0  0  0  0
 13 14  1  0  0  0  0
 13 15  1  0  0  0  0
 13 16  1  0  0  0  0
 16 17  1  0  0  0  0
 16 18  1  0  0  0  0
 16 19  1  0  0  0  0
 19 20  1  0  0  0  0
 19 21  1  0  0  0  0
 19 22  1  0  0  0  0
 22 23  1  0  0  0  0
 22 24  1  0  0  0  0
 22 25  1  0  0  0  0
M  END
> <VM2 Rank>
115

> <Conf_Id>
463

> <Probability>
0.01

> <Sum Probability>
99.81

> <Delta G>
4.710

> <G>
-3.252

> <E>
-28.063

> <-TS>
24.811

> <U+W>
-48.631

> <U>
10.664

> <W>
-59.294

> <W(PB)>
-61.729

> <W(SA)>
2.435

> <Valence>
11.013

> <Coulomb>
-1.402

> <VdW>
1.052

> <VdW6>
-9.992

> <VdW12>
11.045

> <Bond>
0.241

> <Angle>
3.228

> <Pdih>
7.544

> <Idih>
0.001

> <Tether>
0.000

$$$$
VeraChem MOL file


 25 24  0  0  0  0  0  0  0  0999 V2000     
   20.6423   19.4671   27.0276 C   0  0  0  0  0  0  0  0  0  0  0  0
   21.5478   20.2541   26.8344 O   0  5  0  0  0  0  0  0  0  0  0  0
   20.1193   19.2952   28.1110 O   0  0  0  0  0  0  0  0  0  0  0  0
   20.1194   18.6655   25.8411 C   0  0  0  0  0  0  0  0  0  0  0  0
   19.7926   17.6869   26.2121 H   0  0  0  0  0  0  0  0  0  0  0  0
   20.9591   18.4853   25.1629 H   0  0  0  0  0  0  0  0  0  0  0  0
   18.9496   19.3739   25.1079 C   0  0  0  0  0  0  0  0  0  0  0  0
   18.1369   19.5212   25.8327 H   0  0  0  0  0  0  0  0  0  0  0  0
   19.2576   20.3784   24.7862 H   0  0  0  0  0  0  0  0  0  0  0  0
   18.3984   18.5701   23.9027 C   0  0  0  0  0  0  0  0  0  0  0  0
   17.3137   18.7355   23.8497 H   0  0  0  0  0  0  0  0  0  0  0  0
   18.5277   17.4923   24.0718 H   0  0  0  0  0  0  0  0  0  0  0  0
   18.9971   18.9702   22.5308 C   0  0  0  0  0  0  0  0  0  0  0  0
   18.4772   18.4007   21.7485 H   0  0  0  0  0  0  0  0  0  0  0  0
   18.7782   20.0289   22.3397 H   0  0  0  0  0  0  0  0  0  0  0  0
   20.5187   18.7215   22.4048 C   0  0  0  0  0  0  0  0  0  0  0  0
   20.7460   17.7026   22.7462 H   0  0  0  0  0  0  0  0  0  0  0  0
   21.0630   19.4082   23.0662 H   0  0  0  0  0  0  0  0  0  0  0  0
   21.0483   18.8876   20.9614 C   0  0  0  0  0  0  0  0  0  0  0  0
   22.1083   18.5995   20.9390 H   0  0  0  0  0  0  0  0  0  0  0  0
   20.5238   18.1926   20.2912 H   0  0  0  0  0  0  0  0  0  0  0  0
   20.9121   20.3289   20.4244 C   0  0  0  0  0  0  0  0  0  0  0  0
   21.4078   21.0452   21.0925 H   0  0  0  0  0  0  0  0  0  0  0  0
   21.3750   20.4149   19.4329 H   0  0  0  0  0  0  0  0  0  0  0  0
   19.8591   20.6213   20.3264 H   0  0  0  0  0  0  0  0  0  0  0  0
  1  2  1  0  0  0  0
  1  3  2  0  0  0  0
  1  4  1  0  0  0  0
  4  5  1  0  0  0  0
  4  6  1  0  0  0  0
  4  7  1  0  0  0  0
  7  8  1  0  0  0  0
  7  9  1  0  0  0  0
  7 10  1  0  0  0  0
 10 11  1  0  0  0  0
 10 12  1  0  0  0  0
 10 13  1  0  0  0  0
 13 14  1  0  0  0  0
 13 15  1  0  0  0  0
 13 16  1  0  0  0  0
 16 17  1  0  0  0  0
 16 18  1  0  0  0  0
 16 19  1  0  0  0  0
 19 20  1  0  0  0  0
 19 21  1  0  0  0  0
 19 22  1  0  0  0  0
 22 23  1  0  0  0  0
 22 24  1  0  0  0  0
 22 25  1  0  0  0  0
M  END
> <VM2 Rank>
116

> <Conf_Id>
856

> <Probability>
0.01

> <Sum Probability>
99.82

> <Delta G>
4.712

> <G>
-3.250

> <E>
-28.158

> <-TS>
24.908

> <U+W>
-48.726

> <U>
10.997

> <W>
-59.723

> <W(PB)>
-62.151

> <W(SA)>
2.428

> <Valence>
10.985

> <Coulomb>
-0.994

> <VdW>
1.006

> <VdW6>
-10.063

> <VdW12>
11.069

> <Bond>
0.238

> <Angle>
3.202

> <Pdih>
7.545

> <Idih>
0.001

> <Tether>
0.000

$$$$
VeraChem MOL file


 25 24  0  0  0  0  0  0  0  0999 V2000     
   20.2806   19.1086   27.3881 C   0  0  0  0  0  0  0  0  0  0  0  0
   21.3701   19.1253   27.9263 O   0  5  0  0  0  0  0  0  0  0  0  0
   19.2357   19.3021   27.9775 O   0  0  0  0  0  0  0  0  0  0  0  0
   20.2236   18.8530   25.8863 C   0  0  0  0  0  0  0  0  0  0  0  0
   19.2925   18.3155   25.6743 H   0  0  0  0  0  0  0  0  0  0  0  0
   21.0525   18.1851   25.6231 H   0  0  0  0  0  0  0  0  0  0  0  0
   20.3027   20.1580   25.0522 C   0  0  0  0  0  0  0  0  0  0  0  0
   19.4452   20.8008   25.2946 H   0  0  0  0  0  0  0  0  0  0  0  0
   21.2017   20.7147   25.3509 H   0  0  0  0  0  0  0  0  0  0  0  0
   20.3563   19.9106   23.5258 C   0  0  0  0  0  0  0  0  0  0  0  0
   21.2288   19.2861   23.2946 H   0  0  0  0  0  0  0  0  0  0  0  0
   20.5112   20.8731   23.0197 H   0  0  0  0  0  0  0  0  0  0  0  0
   19.0755   19.2462   22.9682 C   0  0  0  0  0  0  0  0  0  0  0  0
   18.9943   18.2192   23.3475 H   0  0  0  0  0  0  0  0  0  0  0  0
   18.1989   19.7875   23.3492 H   0  0  0  0  0  0  0  0  0  0  0  0
   18.9960   19.2203   21.4210 C   0  0  0  0  0  0  0  0  0  0  0  0
   18.9908   20.2452   21.0255 H   0  0  0  0  0  0  0  0  0  0  0  0
   18.0222   18.7909   21.1486 H   0  0  0  0  0  0  0  0  0  0  0  0
   20.1007   18.3831   20.7289 C   0  0  0  0  0  0  0  0  0  0  0  0
   20.4311   17.5689   21.3887 H   0  0  0  0  0  0  0  0  0  0  0  0
   19.6697   17.9005   19.8409 H   0  0  0  0  0  0  0  0  0  0  0  0
   21.3117   19.2267   20.2717 C   0  0  0  0  0  0  0  0  0  0  0  0
   21.8104   19.7167   21.1154 H   0  0  0  0  0  0  0  0  0  0  0  0
   22.0526   18.5925   19.7682 H   0  0  0  0  0  0  0  0  0  0  0  0
   21.0000   20.0053   19.5635 H   0  0  0  0  0  0  0  0  0  0  0  0
  1  2  1  0  0  0  0
  1  3  2  0  0  0  0
  1  4  1  0  0  0  0
  4  5  1  0  0  0  0
  4  6  1  0  0  0  0
  4  7  1  0  0  0  0
  7  8  1  0  0  0  0
  7  9  1  0  0  0  0
  7 10  1  0  0  0  0
 10 11  1  0  0  0  0
 10 12  1  0  0  0  0
 10 13  1  0  0  0  0
 13 14  1  0  0  0  0
 13 15  1  0  0  0  0
 13 16  1  0  0  0  0
 16 17  1  0  0  0  0
 16 18  1  0  0  0  0
 16 19  1  0  0  0  0
 19 20  1  0  0  0  0
 19 21  1  0  0  0  0
 19 22  1  0  0  0  0
 22 23  1  0  0  0  0
 22 24  1  0  0  0  0
 22 25  1  0  0  0  0
M  END
> <VM2 Rank>
117

> <Conf_Id>
435

> <Probability>
0.01

> <Sum Probability>
99.83

> <Delta G>
4.724

> <G>
-3.238

> <E>
-28.094

> <-TS>
24.856

> <U+W>
-48.662

> <U>
10.438

> <W>
-59.100

> <W(PB)>
-61.543

> <W(SA)>
2.443

> <Valence>
10.999

> <Coulomb>
-1.666

> <VdW>
1.105

> <VdW6>
-9.904

> <VdW12>
11.009

> <Bond>
0.232

> <Angle>
3.215

> <Pdih>
7.552

> <Idih>
0.001

> <Tether>
0.000

$$$$
VeraChem MOL file


 25 24  0  0  0  0  0  0  0  0999 V2000     
   20.7655   19.1402   26.4895 C   0  0  0  0  0  0  0  0  0  0  0  0
   21.7042   19.8956   26.3305 O   0  5  0  0  0  0  0  0  0  0  0  0
   20.8881   17.9403   26.6408 O   0  0  0  0  0  0  0  0  0  0  0  0
   19.3640   19.7420   26.5747 C   0  0  0  0  0  0  0  0  0  0  0  0
   19.4367   20.8312   26.4688 H   0  0  0  0  0  0  0  0  0  0  0  0
   19.0073   19.5489   27.5930 H   0  0  0  0  0  0  0  0  0  0  0  0
   18.3336   19.1699   25.5608 C   0  0  0  0  0  0  0  0  0  0  0  0
   18.4149   18.0747   25.5220 H   0  0  0  0  0  0  0  0  0  0  0  0
   17.3265   19.3845   25.9430 H   0  0  0  0  0  0  0  0  0  0  0  0
   18.4316   19.7603   24.1322 C   0  0  0  0  0  0  0  0  0  0  0  0
   18.3349   20.8537   24.1769 H   0  0  0  0  0  0  0  0  0  0  0  0
   17.5717   19.3978   23.5525 H   0  0  0  0  0  0  0  0  0  0  0  0
   19.7295   19.3837   23.3822 C   0  0  0  0  0  0  0  0  0  0  0  0
   20.5923   19.8523   23.8720 H   0  0  0  0  0  0  0  0  0  0  0  0
   19.8771   18.2973   23.4378 H   0  0  0  0  0  0  0  0  0  0  0  0
   19.6848   19.8361   21.9041 C   0  0  0  0  0  0  0  0  0  0  0  0
   19.4613   20.9111   21.8667 H   0  0  0  0  0  0  0  0  0  0  0  0
   18.8601   19.3282   21.3856 H   0  0  0  0  0  0  0  0  0  0  0  0
   21.0072   19.5823   21.1435 C   0  0  0  0  0  0  0  0  0  0  0  0
   20.9321   20.0340   20.1448 H   0  0  0  0  0  0  0  0  0  0  0  0
   21.8332   20.0954   21.6551 H   0  0  0  0  0  0  0  0  0  0  0  0
   21.3445   18.0835   20.9877 C   0  0  0  0  0  0  0  0  0  0  0  0
   20.5194   17.5429   20.5059 H   0  0  0  0  0  0  0  0  0  0  0  0
   22.2412   17.9542   20.3680 H   0  0  0  0  0  0  0  0  0  0  0  0
   21.5425   17.6149   21.9600 H   0  0  0  0  0  0  0  0  0  0  0  0
  1  2  1  0  0  0  0
  1  3  2  0  0  0  0
  1  4  1  0  0  0  0
  4  5  1  0  0  0  0
  4  6  1  0  0  0  0
  4  7  1  0  0  0  0
  7  8  1  0  0  0  0
  7  9  1  0  0  0  0
  7 10  1  0  0  0  0
 10 11  1  0  0  0  0
 10 12  1  0  0  0  0
 10 13  1  0  0  0  0
 13 14  1  0  0  0  0
 13 15  1  0  0  0  0
 13 16  1  0  0  0  0
 16 17  1  0  0  0  0
 16 18  1  0  0  0  0
 16 19  1  0  0  0  0
 19 20  1  0  0  0  0
 19 21  1  0  0  0  0
 19 22  1  0  0  0  0
 22 23  1  0  0  0  0
 22 24  1  0  0  0  0
 22 25  1  0  0  0  0
M  END
> <VM2 Rank>
118

> <Conf_Id>
229

> <Probability>
0.01

> <Sum Probability>
99.84

> <Delta G>
4.775

> <G>
-3.187

> <E>
-28.329

> <-TS>
25.142

> <U+W>
-48.896

> <U>
12.313

> <W>
-61.210

> <W(PB)>
-63.636

> <W(SA)>
2.427

> <Valence>
9.950

> <Coulomb>
1.612

> <VdW>
0.751

> <VdW6>
-10.688

> <VdW12>
11.439

> <Bond>
0.232

> <Angle>
3.418

> <Pdih>
6.293

> <Idih>
0.007

> <Tether>
0.000

$$$$
VeraChem MOL file


 25 24  0  0  0  0  0  0  0  0999 V2000     
   19.9898   19.8884   27.0285 C   0  0  0  0  0  0  0  0  0  0  0  0
   21.0410   20.1373   27.5851 O   0  5  0  0  0  0  0  0  0  0  0  0
   18.9132   19.8888   27.5922 O   0  0  0  0  0  0  0  0  0  0  0  0
   20.0261   19.5332   25.5465 C   0  0  0  0  0  0  0  0  0  0  0  0
   20.8405   20.1054   25.0884 H   0  0  0  0  0  0  0  0  0  0  0  0
   19.0876   19.8717   25.0916 H   0  0  0  0  0  0  0  0  0  0  0  0
   20.2261   18.0169   25.2975 C   0  0  0  0  0  0  0  0  0  0  0  0
   21.2055   17.7113   25.6908 H   0  0  0  0  0  0  0  0  0  0  0  0
   19.4755   17.4630   25.8781 H   0  0  0  0  0  0  0  0  0  0  0  0
   20.1070   17.5953   23.8114 C   0  0  0  0  0  0  0  0  0  0  0  0
   19.0957   17.8110   23.4450 H   0  0  0  0  0  0  0  0  0  0  0  0
   20.2112   16.5026   23.7685 H   0  0  0  0  0  0  0  0  0  0  0  0
   21.1796   18.2178   22.8782 C   0  0  0  0  0  0  0  0  0  0  0  0
   22.0886   18.4287   23.4578 H   0  0  0  0  0  0  0  0  0  0  0  0
   21.4747   17.4713   22.1282 H   0  0  0  0  0  0  0  0  0  0  0  0
   20.7309   19.5022   22.1356 C   0  0  0  0  0  0  0  0  0  0  0  0
   21.6182   19.9722   21.6902 H   0  0  0  0  0  0  0  0  0  0  0  0
   20.3196   20.2313   22.8436 H   0  0  0  0  0  0  0  0  0  0  0  0
   19.7013   19.2308   21.0148 C   0  0  0  0  0  0  0  0  0  0  0  0
   20.1100   18.4966   20.3068 H   0  0  0  0  0  0  0  0  0  0  0  0
   18.7865   18.7929   21.4341 H   0  0  0  0  0  0  0  0  0  0  0  0
   19.3379   20.5234   20.2564 C   0  0  0  0  0  0  0  0  0  0  0  0
   18.8986   21.2661   20.9351 H   0  0  0  0  0  0  0  0  0  0  0  0
   20.2264   20.9685   19.7896 H   0  0  0  0  0  0  0  0  0  0  0  0
   18.6076   20.3146   19.4639 H   0  0  0  0  0  0  0  0  0  0  0  0
  1  2  1  0  0  0  0
  1  3  2  0  0  0  0
  1  4  1  0  0  0  0
  4  5  1  0  0  0  0
  4  6  1  0  0  0  0
  4  7  1  0  0  0  0
  7  8  1  0  0  0  0
  7  9  1  0  0  0  0
  7 10  1  0  0  0  0
 10 11  1  0  0  0  0
 10 12  1  0  0  0  0
 10 13  1  0  0  0  0
 13 14  1  0  0  0  0
 13 15  1  0  0  0  0
 13 16  1  0  0  0  0
 16 17  1  0  0  0  0
 16 18  1  0  0  0  0
 16 19  1  0  0  0  0
 19 20  1  0  0  0  0
 19 21  1  0  0  0  0
 19 22  1  0  0  0  0
 22 23  1  0  0  0  0
 22 24  1  0  0  0  0
 22 25  1  0  0  0  0
M  END
> <VM2 Rank>
119

> <Conf_Id>
1089

> <Probability>
0.01

> <Sum Probability>
99.84

> <Delta G>
4.779

> <G>
-3.183

> <E>
-28.035

> <-TS>
24.851

> <U+W>
-48.602

> <U>
10.987

> <W>
-59.589

> <W(PB)>
-62.019

> <W(SA)>
2.430

> <Valence>
11.268

> <Coulomb>
-1.344

> <VdW>
1.063

> <VdW6>
-9.930

> <VdW12>
10.993

> <Bond>
0.245

> <Angle>
3.252

> <Pdih>
7.770

> <Idih>
0.001

> <Tether>
0.000

$$$$
VeraChem MOL file


 25 24  0  0  0  0  0  0  0  0999 V2000     
   20.2584   19.4314   27.4296 C   0  0  0  0  0  0  0  0  0  0  0  0
   21.2089   20.1397   27.6971 O   0  5  0  0  0  0  0  0  0  0  0  0
   19.3367   19.2247   28.1942 O   0  0  0  0  0  0  0  0  0  0  0  0
   20.2082   18.7842   26.0502 C   0  0  0  0  0  0  0  0  0  0  0  0
   19.6877   17.8236   26.1439 H   0  0  0  0  0  0  0  0  0  0  0  0
   21.2385   18.5683   25.7459 H   0  0  0  0  0  0  0  0  0  0  0  0
   19.5018   19.6750   24.9954 C   0  0  0  0  0  0  0  0  0  0  0  0
   18.5076   19.9495   25.3742 H   0  0  0  0  0  0  0  0  0  0  0  0
   20.0587   20.6148   24.8770 H   0  0  0  0  0  0  0  0  0  0  0  0
   19.3357   18.9902   23.6179 C   0  0  0  0  0  0  0  0  0  0  0  0
   18.7266   19.6416   22.9800 H   0  0  0  0  0  0  0  0  0  0  0  0
   18.7640   18.0599   23.7380 H   0  0  0  0  0  0  0  0  0  0  0  0
   20.6830   18.6824   22.9184 C   0  0  0  0  0  0  0  0  0  0  0  0
   21.3192   19.5778   22.9031 H   0  0  0  0  0  0  0  0  0  0  0  0
   21.2219   17.9322   23.5115 H   0  0  0  0  0  0  0  0  0  0  0  0
   20.5120   18.1280   21.4811 C   0  0  0  0  0  0  0  0  0  0  0  0
   19.5540   17.5983   21.3885 H   0  0  0  0  0  0  0  0  0  0  0  0
   21.2894   17.3703   21.3122 H   0  0  0  0  0  0  0  0  0  0  0  0
   20.6446   19.1891   20.3606 C   0  0  0  0  0  0  0  0  0  0  0  0
   21.6391   19.6535   20.4099 H   0  0  0  0  0  0  0  0  0  0  0  0
   20.5915   18.6792   19.3889 H   0  0  0  0  0  0  0  0  0  0  0  0
   19.5637   20.2894   20.4014 C   0  0  0  0  0  0  0  0  0  0  0  0
   19.6452   20.9404   19.5215 H   0  0  0  0  0  0  0  0  0  0  0  0
   18.5568   19.8523   20.4074 H   0  0  0  0  0  0  0  0  0  0  0  0
   19.6754   20.9209   21.2916 H   0  0  0  0  0  0  0  0  0  0  0  0
  1  2  1  0  0  0  0
  1  3  2  0  0  0  0
  1  4  1  0  0  0  0
  4  5  1  0  0  0  0
  4  6  1  0  0  0  0
  4  7  1  0  0  0  0
  7  8  1  0  0  0  0
  7  9  1  0  0  0  0
  7 10  1  0  0  0  0
 10 11  1  0  0  0  0
 10 12  1  0  0  0  0
 10 13  1  0  0  0  0
 13 14  1  0  0  0  0
 13 15  1  0  0  0  0
 13 16  1  0  0  0  0
 16 17  1  0  0  0  0
 16 18  1  0  0  0  0
 16 19  1  0  0  0  0
 19 20  1  0  0  0  0
 19 21  1  0  0  0  0
 19 22  1  0  0  0  0
 22 23  1  0  0  0  0
 22 24  1  0  0  0  0
 22 25  1  0  0  0  0
M  END
> <VM2 Rank>
120

> <Conf_Id>
530

> <Probability>
0.01

> <Sum Probability>
99.85

> <Delta G>
4.848

> <G>
-3.114

> <E>
-27.995

> <-TS>
24.881

> <U+W>
-48.563

> <U>
10.553

> <W>
-59.116

> <W(PB)>
-61.565

> <W(SA)>
2.449

> <Valence>
11.068

> <Coulomb>
-1.643

> <VdW>
1.127

> <VdW6>
-9.885

> <VdW12>
11.012

> <Bond>
0.238

> <Angle>
3.177

> <Pdih>
7.653

> <Idih>
0.001

> <Tether>
0.000

$$$$
VeraChem MOL file


 25 24  0  0  0  0  0  0  0  0999 V2000     
   20.2128   19.2623   27.4701 C   0  0  0  0  0  0  0  0  0  0  0  0
   21.2764   19.2321   28.0572 O   0  5  0  0  0  0  0  0  0  0  0  0
   19.1799   19.6635   27.9688 O   0  0  0  0  0  0  0  0  0  0  0  0
   20.1773   18.7919   26.0204 C   0  0  0  0  0  0  0  0  0  0  0  0
   19.1958   18.3392   25.8421 H   0  0  0  0  0  0  0  0  0  0  0  0
   20.9274   18.0009   25.9015 H   0  0  0  0  0  0  0  0  0  0  0  0
   20.4453   19.9393   25.0116 C   0  0  0  0  0  0  0  0  0  0  0  0
   19.6612   20.7033   25.1057 H   0  0  0  0  0  0  0  0  0  0  0  0
   21.3901   20.4302   25.2830 H   0  0  0  0  0  0  0  0  0  0  0  0
   20.5408   19.4647   23.5417 C   0  0  0  0  0  0  0  0  0  0  0  0
   21.3078   18.6832   23.4546 H   0  0  0  0  0  0  0  0  0  0  0  0
   20.8833   20.3131   22.9360 H   0  0  0  0  0  0  0  0  0  0  0  0
   19.1978   18.9490   22.9716 C   0  0  0  0  0  0  0  0  0  0  0  0
   18.8128   18.1442   23.6100 H   0  0  0  0  0  0  0  0  0  0  0  0
   18.4528   19.7553   23.0083 H   0  0  0  0  0  0  0  0  0  0  0  0
   19.2909   18.4003   21.5253 C   0  0  0  0  0  0  0  0  0  0  0  0
   18.2979   18.0173   21.2533 H   0  0  0  0  0  0  0  0  0  0  0  0
   19.9633   17.5320   21.4951 H   0  0  0  0  0  0  0  0  0  0  0  0
   19.7130   19.4433   20.4604 C   0  0  0  0  0  0  0  0  0  0  0  0
   19.1482   19.2519   19.5375 H   0  0  0  0  0  0  0  0  0  0  0  0
   19.4328   20.4549   20.7851 H   0  0  0  0  0  0  0  0  0  0  0  0
   21.2188   19.3876   20.1189 C   0  0  0  0  0  0  0  0  0  0  0  0
   21.4916   18.4025   19.7186 H   0  0  0  0  0  0  0  0  0  0  0  0
   21.4684   20.1393   19.3590 H   0  0  0  0  0  0  0  0  0  0  0  0
   21.8442   19.5795   20.9982 H   0  0  0  0  0  0  0  0  0  0  0  0
  1  2  1  0  0  0  0
  1  3  2  0  0  0  0
  1  4  1  0  0  0  0
  4  5  1  0  0  0  0
  4  6  1  0  0  0  0
  4  7  1  0  0  0  0
  7  8  1  0  0  0  0
  7  9  1  0  0  0  0
  7 10  1  0  0  0  0
 10 11  1  0  0  0  0
 10 12  1  0  0  0  0
 10 13  1  0  0  0  0
 13 14  1  0  0  0  0
 13 15  1  0  0  0  0
 13 16  1  0  0  0  0
 16 17  1  0  0  0  0
 16 18  1  0  0  0  0
 16 19  1  0  0  0  0
 19 20  1  0  0  0  0
 19 21  1  0  0  0  0
 19 22  1  0  0  0  0
 22 23  1  0  0  0  0
 22 24  1  0  0  0  0
 22 25  1  0  0  0  0
M  END
> <VM2 Rank>
121

> <Conf_Id>
1243

> <Probability>
0.01

> <Sum Probability>
99.86

> <Delta G>
4.857

> <G>
-3.106

> <E>
-27.896

> <-TS>
24.790

> <U+W>
-48.464

> <U>
10.617

> <W>
-59.081

> <W(PB)>
-61.515

> <W(SA)>
2.434

> <Valence>
11.188

> <Coulomb>
-1.778

> <VdW>
1.208

> <VdW6>
-9.786

> <VdW12>
10.993

> <Bond>
0.241

> <Angle>
3.294

> <Pdih>
7.653

> <Idih>
0.001

> <Tether>
0.000

$$$$
VeraChem MOL file


 25 24  0  0  0  0  0  0  0  0999 V2000     
   20.1252   19.7909   27.1376 C   0  0  0  0  0  0  0  0  0  0  0  0
   21.1591   20.3174   27.4988 O   0  5  0  0  0  0  0  0  0  0  0  0
   19.0207   20.2105   27.4220 O   0  0  0  0  0  0  0  0  0  0  0  0
   20.2189   18.5450   26.2640 C   0  0  0  0  0  0  0  0  0  0  0  0
   19.3576   17.9049   26.4898 H   0  0  0  0  0  0  0  0  0  0  0  0
   21.1198   17.9919   26.5555 H   0  0  0  0  0  0  0  0  0  0  0  0
   20.2581   18.8737   24.7513 C   0  0  0  0  0  0  0  0  0  0  0  0
   19.3557   19.4418   24.4901 H   0  0  0  0  0  0  0  0  0  0  0  0
   21.1212   19.5206   24.5420 H   0  0  0  0  0  0  0  0  0  0  0  0
   20.3415   17.5955   23.8874 C   0  0  0  0  0  0  0  0  0  0  0  0
   19.4349   16.9932   24.0367 H   0  0  0  0  0  0  0  0  0  0  0  0
   21.1813   16.9809   24.2393 H   0  0  0  0  0  0  0  0  0  0  0  0
   20.5376   17.8653   22.3744 C   0  0  0  0  0  0  0  0  0  0  0  0
   21.4904   18.3838   22.2107 H   0  0  0  0  0  0  0  0  0  0  0  0
   20.6403   16.8918   21.8759 H   0  0  0  0  0  0  0  0  0  0  0  0
   19.3682   18.6303   21.6990 C   0  0  0  0  0  0  0  0  0  0  0  0
   18.4366   18.4291   22.2451 H   0  0  0  0  0  0  0  0  0  0  0  0
   19.2132   18.2236   20.6903 H   0  0  0  0  0  0  0  0  0  0  0  0
   19.5770   20.1606   21.5789 C   0  0  0  0  0  0  0  0  0  0  0  0
   18.6235   20.6223   21.2881 H   0  0  0  0  0  0  0  0  0  0  0  0
   19.8435   20.5922   22.5513 H   0  0  0  0  0  0  0  0  0  0  0  0
   20.6466   20.5449   20.5328 C   0  0  0  0  0  0  0  0  0  0  0  0
   20.3971   20.1329   19.5464 H   0  0  0  0  0  0  0  0  0  0  0  0
   20.7123   21.6363   20.4349 H   0  0  0  0  0  0  0  0  0  0  0  0
   21.6400   20.1765   20.8164 H   0  0  0  0  0  0  0  0  0  0  0  0
  1  2  1  0  0  0  0
  1  3  2  0  0  0  0
  1  4  1  0  0  0  0
  4  5  1  0  0  0  0
  4  6  1  0  0  0  0
  4  7  1  0  0  0  0
  7  8  1  0  0  0  0
  7  9  1  0  0  0  0
  7 10  1  0  0  0  0
 10 11  1  0  0  0  0
 10 12  1  0  0  0  0
 10 13  1  0  0  0  0
 13 14  1  0  0  0  0
 13 15  1  0  0  0  0
 13 16  1  0  0  0  0
 16 17  1  0  0  0  0
 16 18  1  0  0  0  0
 16 19  1  0  0  0  0
 19 20  1  0  0  0  0
 19 21  1  0  0  0  0
 19 22  1  0  0  0  0
 22 23  1  0  0  0  0
 22 24  1  0  0  0  0
 22 25  1  0  0  0  0
M  END
> <VM2 Rank>
122

> <Conf_Id>
442

> <Probability>
0.01

> <Sum Probability>
99.86

> <Delta G>
4.879

> <G>
-3.084

> <E>
-27.936

> <-TS>
24.853

> <U+W>
-48.504

> <U>
11.373

> <W>
-59.877

> <W(PB)>
-62.301

> <W(SA)>
2.424

> <Valence>
11.258

> <Coulomb>
-0.951

> <VdW>
1.066

> <VdW6>
-9.862

> <VdW12>
10.928

> <Bond>
0.236

> <Angle>
3.227

> <Pdih>
7.795

> <Idih>
0.001

> <Tether>
0.000

$$$$
VeraChem MOL file


 25 24  0  0  0  0  0  0  0  0999 V2000     
   19.6873   19.2599   27.1266 C   0  0  0  0  0  0  0  0  0  0  0  0
   20.2857   19.0603   28.1653 O   0  5  0  0  0  0  0  0  0  0  0  0
   18.6720   19.9233   27.0512 O   0  0  0  0  0  0  0  0  0  0  0  0
   20.2536   18.6621   25.8438 C   0  0  0  0  0  0  0  0  0  0  0  0
   19.4131   18.4270   25.1832 H   0  0  0  0  0  0  0  0  0  0  0  0
   20.7349   17.7103   26.0980 H   0  0  0  0  0  0  0  0  0  0  0  0
   21.2707   19.6008   25.1424 C   0  0  0  0  0  0  0  0  0  0  0  0
   20.8142   20.5827   24.9555 H   0  0  0  0  0  0  0  0  0  0  0  0
   22.1024   19.7787   25.8381 H   0  0  0  0  0  0  0  0  0  0  0  0
   21.8404   19.0140   23.8258 C   0  0  0  0  0  0  0  0  0  0  0  0
   21.8285   17.9161   23.8615 H   0  0  0  0  0  0  0  0  0  0  0  0
   22.8992   19.2982   23.7546 H   0  0  0  0  0  0  0  0  0  0  0  0
   21.1373   19.5104   22.5372 C   0  0  0  0  0  0  0  0  0  0  0  0
   21.2452   20.6008   22.4602 H   0  0  0  0  0  0  0  0  0  0  0  0
   21.6730   19.0865   21.6787 H   0  0  0  0  0  0  0  0  0  0  0  0
   19.6383   19.1364   22.4464 C   0  0  0  0  0  0  0  0  0  0  0  0
   19.0978   19.6236   23.2680 H   0  0  0  0  0  0  0  0  0  0  0  0
   19.5150   18.0536   22.5828 H   0  0  0  0  0  0  0  0  0  0  0  0
   18.9742   19.5712   21.1189 C   0  0  0  0  0  0  0  0  0  0  0  0
   17.8900   19.4135   21.2013 H   0  0  0  0  0  0  0  0  0  0  0  0
   19.1195   20.6496   20.9663 H   0  0  0  0  0  0  0  0  0  0  0  0
   19.4936   18.7955   19.8886 C   0  0  0  0  0  0  0  0  0  0  0  0
   19.3891   17.7125   20.0342 H   0  0  0  0  0  0  0  0  0  0  0  0
   18.9231   19.0721   18.9925 H   0  0  0  0  0  0  0  0  0  0  0  0
   20.5495   19.0163   19.6897 H   0  0  0  0  0  0  0  0  0  0  0  0
  1  2  1  0  0  0  0
  1  3  2  0  0  0  0
  1  4  1  0  0  0  0
  4  5  1  0  0  0  0
  4  6  1  0  0  0  0
  4  7  1  0  0  0  0
  7  8  1  0  0  0  0
  7  9  1  0  0  0  0
  7 10  1  0  0  0  0
 10 11  1  0  0  0  0
 10 12  1  0  0  0  0
 10 13  1  0  0  0  0
 13 14  1  0  0  0  0
 13 15  1  0  0  0  0
 13 16  1  0  0  0  0
 16 17  1  0  0  0  0
 16 18  1  0  0  0  0
 16 19  1  0  0  0  0
 19 20  1  0  0  0  0
 19 21  1  0  0  0  0
 19 22  1  0  0  0  0
 22 23  1  0  0  0  0
 22 24  1  0  0  0  0
 22 25  1  0  0  0  0
M  END
> <VM2 Rank>
123

> <Conf_Id>
1003

> <Probability>
0.01

> <Sum Probability>
99.87

> <Delta G>
4.890

> <G>
-3.073

> <E>
-27.926

> <-TS>
24.854

> <U+W>
-48.494

> <U>
10.982

> <W>
-59.476

> <W(PB)>
-61.935

> <W(SA)>
2.459

> <Valence>
11.160

> <Coulomb>
-1.272

> <VdW>
1.095

> <VdW6>
-9.961

> <VdW12>
11.056

> <Bond>
0.244

> <Angle>
3.277

> <Pdih>
7.638

> <Idih>
0.001

> <Tether>
0.000

$$$$
VeraChem MOL file


 25 24  0  0  0  0  0  0  0  0999 V2000     
   20.1066   18.8489   27.1597 C   0  0  0  0  0  0  0  0  0  0  0  0
   21.1193   18.2993   27.5459 O   0  5  0  0  0  0  0  0  0  0  0  0
   18.9867   18.4867   27.4621 O   0  0  0  0  0  0  0  0  0  0  0  0
   20.2485   20.0479   26.2289 C   0  0  0  0  0  0  0  0  0  0  0  0
   21.1708   20.5781   26.4951 H   0  0  0  0  0  0  0  0  0  0  0  0
   19.4133   20.7313   26.4237 H   0  0  0  0  0  0  0  0  0  0  0  0
   20.2734   19.6476   24.7332 C   0  0  0  0  0  0  0  0  0  0  0  0
   21.1102   18.9581   24.5552 H   0  0  0  0  0  0  0  0  0  0  0  0
   19.3491   19.1039   24.4980 H   0  0  0  0  0  0  0  0  0  0  0  0
   20.4064   20.8797   23.8106 C   0  0  0  0  0  0  0  0  0  0  0  0
   21.2701   21.4764   24.1342 H   0  0  0  0  0  0  0  0  0  0  0  0
   19.5244   21.5236   23.9308 H   0  0  0  0  0  0  0  0  0  0  0  0
   20.5903   20.5320   22.3121 C   0  0  0  0  0  0  0  0  0  0  0  0
   20.7308   21.4763   21.7687 H   0  0  0  0  0  0  0  0  0  0  0  0
   21.5217   19.9693   22.1736 H   0  0  0  0  0  0  0  0  0  0  0  0
   19.3910   19.7830   21.6720 C   0  0  0  0  0  0  0  0  0  0  0  0
   19.2512   20.1479   20.6453 H   0  0  0  0  0  0  0  0  0  0  0  0
   18.4685   20.0461   22.2073 H   0  0  0  0  0  0  0  0  0  0  0  0
   19.5392   18.2417   21.6238 C   0  0  0  0  0  0  0  0  0  0  0  0
   19.7895   17.8458   22.6156 H   0  0  0  0  0  0  0  0  0  0  0  0
   18.5679   17.8049   21.3541 H   0  0  0  0  0  0  0  0  0  0  0  0
   20.5917   17.7671   20.5977 C   0  0  0  0  0  0  0  0  0  0  0  0
   20.3576   18.1420   19.5929 H   0  0  0  0  0  0  0  0  0  0  0  0
   21.5991   18.1090   20.8645 H   0  0  0  0  0  0  0  0  0  0  0  0
   20.6142   16.6706   20.5510 H   0  0  0  0  0  0  0  0  0  0  0  0
  1  2  1  0  0  0  0
  1  3  2  0  0  0  0
  1  4  1  0  0  0  0
  4  5  1  0  0  0  0
  4  6  1  0  0  0  0
  4  7  1  0  0  0  0
  7  8  1  0  0  0  0
  7  9  1  0  0  0  0
  7 10  1  0  0  0  0
 10 11  1  0  0  0  0
 10 12  1  0  0  0  0
 10 13  1  0  0  0  0
 13 14  1  0  0  0  0
 13 15  1  0  0  0  0
 13 16  1  0  0  0  0
 16 17  1  0  0  0  0
 16 18  1  0  0  0  0
 16 19  1  0  0  0  0
 19 20  1  0  0  0  0
 19 21  1  0  0  0  0
 19 22  1  0  0  0  0
 22 23  1  0  0  0  0
 22 24  1  0  0  0  0
 22 25  1  0  0  0  0
M  END
> <VM2 Rank>
124

> <Conf_Id>
561

> <Probability>
0.01

> <Sum Probability>
99.87

> <Delta G>
4.904

> <G>
-3.059

> <E>
-27.911

> <-TS>
24.853

> <U+W>
-48.479

> <U>
11.374

> <W>
-59.853

> <W(PB)>
-62.282

> <W(SA)>
2.429

> <Valence>
11.258

> <Coulomb>
-0.951

> <VdW>
1.066

> <VdW6>
-9.862

> <VdW12>
10.928

> <Bond>
0.236

> <Angle>
3.227

> <Pdih>
7.794

> <Idih>
0.000

> <Tether>
0.000

$$$$
VeraChem MOL file


 25 24  0  0  0  0  0  0  0  0999 V2000     
   20.4034   19.7359   27.0904 C   0  0  0  0  0  0  0  0  0  0  0  0
   21.3253   20.5174   26.9634 O   0  5  0  0  0  0  0  0  0  0  0  0
   19.6152   19.7693   28.0148 O   0  0  0  0  0  0  0  0  0  0  0  0
   20.2121   18.6675   26.0199 C   0  0  0  0  0  0  0  0  0  0  0  0
   19.7960   17.7751   26.5024 H   0  0  0  0  0  0  0  0  0  0  0  0
   21.2025   18.3965   25.6384 H   0  0  0  0  0  0  0  0  0  0  0  0
   19.2845   19.1341   24.8674 C   0  0  0  0  0  0  0  0  0  0  0  0
   18.3234   19.4450   25.2996 H   0  0  0  0  0  0  0  0  0  0  0  0
   19.7121   20.0270   24.3953 H   0  0  0  0  0  0  0  0  0  0  0  0
   19.0175   18.0315   23.8114 C   0  0  0  0  0  0  0  0  0  0  0  0
   18.1674   18.3259   23.1810 H   0  0  0  0  0  0  0  0  0  0  0  0
   18.6950   17.1219   24.3362 H   0  0  0  0  0  0  0  0  0  0  0  0
   20.2326   17.6870   22.9094 C   0  0  0  0  0  0  0  0  0  0  0  0
   21.1771   17.8654   23.4380 H   0  0  0  0  0  0  0  0  0  0  0  0
   20.2077   16.6084   22.7027 H   0  0  0  0  0  0  0  0  0  0  0  0
   20.2508   18.4215   21.5453 C   0  0  0  0  0  0  0  0  0  0  0  0
   19.3455   18.1639   20.9788 H   0  0  0  0  0  0  0  0  0  0  0  0
   21.0988   18.0401   20.9602 H   0  0  0  0  0  0  0  0  0  0  0  0
   20.3687   19.9573   21.6546 C   0  0  0  0  0  0  0  0  0  0  0  0
   19.4684   20.3671   22.1307 H   0  0  0  0  0  0  0  0  0  0  0  0
   21.2229   20.2200   22.2937 H   0  0  0  0  0  0  0  0  0  0  0  0
   20.5428   20.6125   20.2694 C   0  0  0  0  0  0  0  0  0  0  0  0
   21.4554   20.2531   19.7762 H   0  0  0  0  0  0  0  0  0  0  0  0
   19.6886   20.3859   19.6180 H   0  0  0  0  0  0  0  0  0  0  0  0
   20.6166   21.7036   20.3645 H   0  0  0  0  0  0  0  0  0  0  0  0
  1  2  1  0  0  0  0
  1  3  2  0  0  0  0
  1  4  1  0  0  0  0
  4  5  1  0  0  0  0
  4  6  1  0  0  0  0
  4  7  1  0  0  0  0
  7  8  1  0  0  0  0
  7  9  1  0  0  0  0
  7 10  1  0  0  0  0
 10 11  1  0  0  0  0
 10 12  1  0  0  0  0
 10 13  1  0  0  0  0
 13 14  1  0  0  0  0
 13 15  1  0  0  0  0
 13 16  1  0  0  0  0
 16 17  1  0  0  0  0
 16 18  1  0  0  0  0
 16 19  1  0  0  0  0
 19 20  1  0  0  0  0
 19 21  1  0  0  0  0
 19 22  1  0  0  0  0
 22 23  1  0  0  0  0
 22 24  1  0  0  0  0
 22 25  1  0  0  0  0
M  END
> <VM2 Rank>
125

> <Conf_Id>
258

> <Probability>
0.01

> <Sum Probability>
99.88

> <Delta G>
4.905

> <G>
-3.058

> <E>
-27.902

> <-TS>
24.845

> <U+W>
-48.470

> <U>
11.198

> <W>
-59.667

> <W(PB)>
-62.101

> <W(SA)>
2.433

> <Valence>
11.279

> <Coulomb>
-1.128

> <VdW>
1.047

> <VdW6>
-9.931

> <VdW12>
10.978

> <Bond>
0.250

> <Angle>
3.255

> <Pdih>
7.772

> <Idih>
0.001

> <Tether>
0.000

$$$$
VeraChem MOL file


 25 24  0  0  0  0  0  0  0  0999 V2000     
   20.7776   18.9606   26.4110 C   0  0  0  0  0  0  0  0  0  0  0  0
   21.4479   19.9341   26.6952 O   0  5  0  0  0  0  0  0  0  0  0  0
   21.2533   17.8872   26.0967 O   0  0  0  0  0  0  0  0  0  0  0  0
   19.2579   19.0692   26.5231 C   0  0  0  0  0  0  0  0  0  0  0  0
   19.0401   19.2591   27.5804 H   0  0  0  0  0  0  0  0  0  0  0  0
   18.8122   18.0969   26.2806 H   0  0  0  0  0  0  0  0  0  0  0  0
   18.6074   20.1896   25.6635 C   0  0  0  0  0  0  0  0  0  0  0  0
   17.6215   20.4161   26.0914 H   0  0  0  0  0  0  0  0  0  0  0  0
   19.1935   21.1152   25.7491 H   0  0  0  0  0  0  0  0  0  0  0  0
   18.4020   19.8275   24.1715 C   0  0  0  0  0  0  0  0  0  0  0  0
   17.8085   20.6256   23.7050 H   0  0  0  0  0  0  0  0  0  0  0  0
   17.8021   18.9105   24.0929 H   0  0  0  0  0  0  0  0  0  0  0  0
   19.7173   19.6562   23.3781 C   0  0  0  0  0  0  0  0  0  0  0  0
   20.3615   20.5314   23.5387 H   0  0  0  0  0  0  0  0  0  0  0  0
   20.2599   18.7822   23.7565 H   0  0  0  0  0  0  0  0  0  0  0  0
   19.4524   19.4779   21.8649 C   0  0  0  0  0  0  0  0  0  0  0  0
   18.8550   20.3259   21.5033 H   0  0  0  0  0  0  0  0  0  0  0  0
   18.8462   18.5768   21.6995 H   0  0  0  0  0  0  0  0  0  0  0  0
   20.7453   19.3939   21.0204 C   0  0  0  0  0  0  0  0  0  0  0  0
   20.4719   19.3894   19.9563 H   0  0  0  0  0  0  0  0  0  0  0  0
   21.3523   20.2956   21.1811 H   0  0  0  0  0  0  0  0  0  0  0  0
   21.5919   18.1379   21.3215 C   0  0  0  0  0  0  0  0  0  0  0  0
   21.9840   18.1551   22.3463 H   0  0  0  0  0  0  0  0  0  0  0  0
   20.9971   17.2239   21.1959 H   0  0  0  0  0  0  0  0  0  0  0  0
   22.4494   18.0800   20.6387 H   0  0  0  0  0  0  0  0  0  0  0  0
  1  2  1  0  0  0  0
  1  3  2  0  0  0  0
  1  4  1  0  0  0  0
  4  5  1  0  0  0  0
  4  6  1  0  0  0  0
  4  7  1  0  0  0  0
  7  8  1  0  0  0  0
  7  9  1  0  0  0  0
  7 10  1  0  0  0  0
 10 11  1  0  0  0  0
 10 12  1  0  0  0  0
 10 13  1  0  0  0  0
 13 14  1  0  0  0  0
 13 15  1  0  0  0  0
 13 16  1  0  0  0  0
 16 17  1  0  0  0  0
 16 18  1  0  0  0  0
 16 19  1  0  0  0  0
 19 20  1  0  0  0  0
 19 21  1  0  0  0  0
 19 22  1  0  0  0  0
 22 23  1  0  0  0  0
 22 24  1  0  0  0  0
 22 25  1  0  0  0  0
M  END
> <VM2 Rank>
126

> <Conf_Id>
568

> <Probability>
0.01

> <Sum Probability>
99.89

> <Delta G>
4.906

> <G>
-3.056

> <E>
-28.214

> <-TS>
25.158

> <U+W>
-48.781

> <U>
12.472

> <W>
-61.253

> <W(PB)>
-63.647

> <W(SA)>
2.393

> <Valence>
9.941

> <Coulomb>
1.808

> <VdW>
0.723

> <VdW6>
-10.775

> <VdW12>
11.499

> <Bond>
0.236

> <Angle>
3.416

> <Pdih>
6.282

> <Idih>
0.007

> <Tether>
0.000

$$$$
VeraChem MOL file


 25 24  0  0  0  0  0  0  0  0999 V2000     
   20.5941   18.8211   26.7696 C   0  0  0  0  0  0  0  0  0  0  0  0
   21.7609   19.1580   26.8115 O   0  5  0  0  0  0  0  0  0  0  0  0
   19.9518   18.4962   27.7488 O   0  0  0  0  0  0  0  0  0  0  0  0
   19.8906   18.8270   25.4174 C   0  0  0  0  0  0  0  0  0  0  0  0
   19.1331   18.0343   25.4268 H   0  0  0  0  0  0  0  0  0  0  0  0
   20.6294   18.5545   24.6581 H   0  0  0  0  0  0  0  0  0  0  0  0
   19.2293   20.1923   25.0918 C   0  0  0  0  0  0  0  0  0  0  0  0
   18.5226   20.4242   25.9006 H   0  0  0  0  0  0  0  0  0  0  0  0
   19.9838   20.9908   25.1082 H   0  0  0  0  0  0  0  0  0  0  0  0
   18.4585   20.2088   23.7467 C   0  0  0  0  0  0  0  0  0  0  0  0
   17.5885   20.8686   23.8674 H   0  0  0  0  0  0  0  0  0  0  0  0
   18.0425   19.2165   23.5289 H   0  0  0  0  0  0  0  0  0  0  0  0
   19.2714   20.7422   22.5373 C   0  0  0  0  0  0  0  0  0  0  0  0
   18.6000   20.8186   21.6713 H   0  0  0  0  0  0  0  0  0  0  0  0
   19.5953   21.7689   22.7558 H   0  0  0  0  0  0  0  0  0  0  0  0
   20.5105   19.9096   22.1284 C   0  0  0  0  0  0  0  0  0  0  0  0
   21.2337   19.8846   22.9530 H   0  0  0  0  0  0  0  0  0  0  0  0
   21.0163   20.4281   21.3026 H   0  0  0  0  0  0  0  0  0  0  0  0
   20.1639   18.4739   21.6728 C   0  0  0  0  0  0  0  0  0  0  0  0
   19.6805   17.9216   22.4887 H   0  0  0  0  0  0  0  0  0  0  0  0
   19.4430   18.5135   20.8448 H   0  0  0  0  0  0  0  0  0  0  0  0
   21.4219   17.7049   21.2217 C   0  0  0  0  0  0  0  0  0  0  0  0
   22.1474   17.6252   22.0419 H   0  0  0  0  0  0  0  0  0  0  0  0
   21.1596   16.6884   20.9010 H   0  0  0  0  0  0  0  0  0  0  0  0
   21.9109   18.2108   20.3789 H   0  0  0  0  0  0  0  0  0  0  0  0
  1  2  1  0  0  0  0
  1  3  2  0  0  0  0
  1  4  1  0  0  0  0
  4  5  1  0  0  0  0
  4  6  1  0  0  0  0
  4  7  1  0  0  0  0
  7  8  1  0  0  0  0
  7  9  1  0  0  0  0
  7 10  1  0  0  0  0
 10 11  1  0  0  0  0
 10 12  1  0  0  0  0
 10 13  1  0  0  0  0
 13 14  1  0  0  0  0
 13 15  1  0  0  0  0
 13 16  1  0  0  0  0
 16 17  1  0  0  0  0
 16 18  1  0  0  0  0
 16 19  1  0  0  0  0
 19 20  1  0  0  0  0
 19 21  1  0  0  0  0
 19 22  1  0  0  0  0
 22 23  1  0  0  0  0
 22 24  1  0  0  0  0
 22 25  1  0  0  0  0
M  END
> <VM2 Rank>
127

> <Conf_Id>
793

> <Probability>
0.01

> <Sum Probability>
99.89

> <Delta G>
4.909

> <G>
-3.054

> <E>
-28.317

> <-TS>
25.264

> <U+W>
-48.885

> <U>
11.279

> <W>
-60.164

> <W(PB)>
-62.543

> <W(SA)>
2.379

> <Valence>
11.119

> <Coulomb>
-0.438

> <VdW>
0.597

> <VdW6>
-10.693

> <VdW12>
11.290

> <Bond>
0.252

> <Angle>
3.622

> <Pdih>
7.244

> <Idih>
0.001

> <Tether>
0.000

$$$$
VeraChem MOL file


 25 24  0  0  0  0  0  0  0  0999 V2000     
   20.1101   19.2557   27.4713 C   0  0  0  0  0  0  0  0  0  0  0  0
   21.0949   19.7858   27.9466 O   0  5  0  0  0  0  0  0  0  0  0  0
   19.0729   19.0913   28.0828 O   0  0  0  0  0  0  0  0  0  0  0  0
   20.1716   18.7915   26.0204 C   0  0  0  0  0  0  0  0  0  0  0  0
   19.5258   17.9113   25.9177 H   0  0  0  0  0  0  0  0  0  0  0  0
   21.1984   18.4671   25.8188 H   0  0  0  0  0  0  0  0  0  0  0  0
   19.7366   19.8939   25.0198 C   0  0  0  0  0  0  0  0  0  0  0  0
   18.7434   20.2610   25.3136 H   0  0  0  0  0  0  0  0  0  0  0  0
   20.4190   20.7517   25.0970 H   0  0  0  0  0  0  0  0  0  0  0  0
   19.6686   19.4090   23.5518 C   0  0  0  0  0  0  0  0  0  0  0  0
   19.2068   20.2059   22.9554 H   0  0  0  0  0  0  0  0  0  0  0  0
   19.0056   18.5359   23.4812 H   0  0  0  0  0  0  0  0  0  0  0  0
   21.0528   19.0678   22.9502 C   0  0  0  0  0  0  0  0  0  0  0  0
   21.6895   19.9626   22.9708 H   0  0  0  0  0  0  0  0  0  0  0  0
   21.5519   18.3197   23.5784 H   0  0  0  0  0  0  0  0  0  0  0  0
   20.9972   18.5095   21.5056 C   0  0  0  0  0  0  0  0  0  0  0  0
   20.4405   17.5625   21.4897 H   0  0  0  0  0  0  0  0  0  0  0  0
   22.0244   18.2558   21.2102 H   0  0  0  0  0  0  0  0  0  0  0  0
   20.4212   19.4886   20.4521 C   0  0  0  0  0  0  0  0  0  0  0  0
   20.5777   20.5281   20.7716 H   0  0  0  0  0  0  0  0  0  0  0  0
   20.9843   19.3692   19.5162 H   0  0  0  0  0  0  0  0  0  0  0  0
   18.9272   19.2409   20.1454 C   0  0  0  0  0  0  0  0  0  0  0  0
   18.3030   19.3531   21.0392 H   0  0  0  0  0  0  0  0  0  0  0  0
   18.5665   19.9534   19.3925 H   0  0  0  0  0  0  0  0  0  0  0  0
   18.7730   18.2284   19.7503 H   0  0  0  0  0  0  0  0  0  0  0  0
  1  2  1  0  0  0  0
  1  3  2  0  0  0  0
  1  4  1  0  0  0  0
  4  5  1  0  0  0  0
  4  6  1  0  0  0  0
  4  7  1  0  0  0  0
  7  8  1  0  0  0  0
  7  9  1  0  0  0  0
  7 10  1  0  0  0  0
 10 11  1  0  0  0  0
 10 12  1  0  0  0  0
 10 13  1  0  0  0  0
 13 14  1  0  0  0  0
 13 15  1  0  0  0  0
 13 16  1  0  0  0  0
 16 17  1  0  0  0  0
 16 18  1  0  0  0  0
 16 19  1  0  0  0  0
 19 20  1  0  0  0  0
 19 21  1  0  0  0  0
 19 22  1  0  0  0  0
 22 23  1  0  0  0  0
 22 24  1  0  0  0  0
 22 25  1  0  0  0  0
M  END
> <VM2 Rank>
128

> <Conf_Id>
19

> <Probability>
0.01

> <Sum Probability>
99.90

> <Delta G>
4.913

> <G>
-3.050

> <E>
-27.840

> <-TS>
24.790

> <U+W>
-48.407

> <U>
10.617

> <W>
-59.025

> <W(PB)>
-61.462

> <W(SA)>
2.437

> <Valence>
11.188

> <Coulomb>
-1.778

> <VdW>
1.208

> <VdW6>
-9.786

> <VdW12>
10.993

> <Bond>
0.241

> <Angle>
3.294

> <Pdih>
7.653

> <Idih>
0.001

> <Tether>
0.000

$$$$
VeraChem MOL file


 25 24  0  0  0  0  0  0  0  0999 V2000     
   19.7723   18.7683   26.7790 C   0  0  0  0  0  0  0  0  0  0  0  0
   20.4731   18.5302   27.7429 O   0  5  0  0  0  0  0  0  0  0  0  0
   18.5731   18.9528   26.8480 O   0  0  0  0  0  0  0  0  0  0  0  0
   20.4382   18.8620   25.4111 C   0  0  0  0  0  0  0  0  0  0  0  0
   19.7232   18.4961   24.6685 H   0  0  0  0  0  0  0  0  0  0  0  0
   21.2909   18.1728   25.4020 H   0  0  0  0  0  0  0  0  0  0  0  0
   20.9117   20.3003   25.0723 C   0  0  0  0  0  0  0  0  0  0  0  0
   20.0618   20.9957   25.1072 H   0  0  0  0  0  0  0  0  0  0  0  0
   21.6014   20.6219   25.8650 H   0  0  0  0  0  0  0  0  0  0  0  0
   21.6429   20.4132   23.7098 C   0  0  0  0  0  0  0  0  0  0  0  0
   22.1771   19.4819   23.4811 H   0  0  0  0  0  0  0  0  0  0  0  0
   22.4240   21.1789   23.8114 H   0  0  0  0  0  0  0  0  0  0  0  0
   20.7408   20.8365   22.5203 C   0  0  0  0  0  0  0  0  0  0  0  0
   20.2935   21.8137   22.7478 H   0  0  0  0  0  0  0  0  0  0  0  0
   21.3767   20.9968   21.6391 H   0  0  0  0  0  0  0  0  0  0  0  0
   19.6091   19.8518   22.1390 C   0  0  0  0  0  0  0  0  0  0  0  0
   19.0222   20.3002   21.3259 H   0  0  0  0  0  0  0  0  0  0  0  0
   18.9143   19.7358   22.9801 H   0  0  0  0  0  0  0  0  0  0  0  0
   20.1257   18.4715   21.6733 C   0  0  0  0  0  0  0  0  0  0  0  0
   20.8162   18.6017   20.8288 H   0  0  0  0  0  0  0  0  0  0  0  0
   20.6945   17.9867   22.4769 H   0  0  0  0  0  0  0  0  0  0  0  0
   18.9661   17.5473   21.2503 C   0  0  0  0  0  0  0  0  0  0  0  0
   18.3970   17.9854   20.4199 H   0  0  0  0  0  0  0  0  0  0  0  0
   19.3487   16.5722   20.9220 H   0  0  0  0  0  0  0  0  0  0  0  0
   18.2761   17.3767   22.0870 H   0  0  0  0  0  0  0  0  0  0  0  0
  1  2  1  0  0  0  0
  1  3  2  0  0  0  0
  1  4  1  0  0  0  0
  4  5  1  0  0  0  0
  4  6  1  0  0  0  0
  4  7  1  0  0  0  0
  7  8  1  0  0  0  0
  7  9  1  0  0  0  0
  7 10  1  0  0  0  0
 10 11  1  0  0  0  0
 10 12  1  0  0  0  0
 10 13  1  0  0  0  0
 13 14  1  0  0  0  0
 13 15  1  0  0  0  0
 13 16  1  0  0  0  0
 16 17  1  0  0  0  0
 16 18  1  0  0  0  0
 16 19  1  0  0  0  0
 19 20  1  0  0  0  0
 19 21  1  0  0  0  0
 19 22  1  0  0  0  0
 22 23  1  0  0  0  0
 22 24  1  0  0  0  0
 22 25  1  0  0  0  0
M  END
> <VM2 Rank>
129

> <Conf_Id>
541

> <Probability>
0.01

> <Sum Probability>
99.91

> <Delta G>
4.933

> <G>
-3.030

> <E>
-28.293

> <-TS>
25.264

> <U+W>
-48.861

> <U>
11.279

> <W>
-60.140

> <W(PB)>
-62.527

> <W(SA)>
2.387

> <Valence>
11.119

> <Coulomb>
-0.437

> <VdW>
0.598

> <VdW6>
-10.693

> <VdW12>
11.291

> <Bond>
0.252

> <Angle>
3.622

> <Pdih>
7.245

> <Idih>
0.001

> <Tether>
0.000

$$$$
VeraChem MOL file


 25 24  0  0  0  0  0  0  0  0999 V2000     
   20.6236   19.3198   27.1157 C   0  0  0  0  0  0  0  0  0  0  0  0
   21.5442   20.1068   27.0178 O   0  5  0  0  0  0  0  0  0  0  0  0
   20.0794   19.0475   28.1676 O   0  0  0  0  0  0  0  0  0  0  0  0
   20.1086   18.6528   25.8455 C   0  0  0  0  0  0  0  0  0  0  0  0
   19.7584   17.6478   26.1095 H   0  0  0  0  0  0  0  0  0  0  0  0
   20.9567   18.5255   25.1655 H   0  0  0  0  0  0  0  0  0  0  0  0
   18.9643   19.4532   25.1690 C   0  0  0  0  0  0  0  0  0  0  0  0
   18.1330   19.5248   25.8840 H   0  0  0  0  0  0  0  0  0  0  0  0
   19.2876   20.4850   24.9732 H   0  0  0  0  0  0  0  0  0  0  0  0
   18.4439   18.7967   23.8651 C   0  0  0  0  0  0  0  0  0  0  0  0
   17.3561   18.9436   23.8187 H   0  0  0  0  0  0  0  0  0  0  0  0
   18.5964   17.7093   23.8989 H   0  0  0  0  0  0  0  0  0  0  0  0
   19.0482   19.3767   22.5614 C   0  0  0  0  0  0  0  0  0  0  0  0
   18.5512   18.8868   21.7148 H   0  0  0  0  0  0  0  0  0  0  0  0
   18.8006   20.4444   22.4886 H   0  0  0  0  0  0  0  0  0  0  0  0
   20.5801   19.1965   22.4355 C   0  0  0  0  0  0  0  0  0  0  0  0
   20.8434   18.1384   22.5673 H   0  0  0  0  0  0  0  0  0  0  0  0
   21.0730   19.7497   23.2452 H   0  0  0  0  0  0  0  0  0  0  0  0
   21.1527   19.7105   21.0938 C   0  0  0  0  0  0  0  0  0  0  0  0
   20.8677   20.7614   20.9463 H   0  0  0  0  0  0  0  0  0  0  0  0
   22.2498   19.6922   21.1509 H   0  0  0  0  0  0  0  0  0  0  0  0
   20.7081   18.8734   19.8745 C   0  0  0  0  0  0  0  0  0  0  0  0
   19.6284   18.9575   19.7004 H   0  0  0  0  0  0  0  0  0  0  0  0
   21.2178   19.2192   18.9659 H   0  0  0  0  0  0  0  0  0  0  0  0
   20.9530   17.8126   20.0159 H   0  0  0  0  0  0  0  0  0  0  0  0
  1  2  1  0  0  0  0
  1  3  2  0  0  0  0
  1  4  1  0  0  0  0
  4  5  1  0  0  0  0
  4  6  1  0  0  0  0
  4  7  1  0  0  0  0
  7  8  1  0  0  0  0
  7  9  1  0  0  0  0
  7 10  1  0  0  0  0
 10 11  1  0  0  0  0
 10 12  1  0  0  0  0
 10 13  1  0  0  0  0
 13 14  1  0  0  0  0
 13 15  1  0  0  0  0
 13 16  1  0  0  0  0
 16 17  1  0  0  0  0
 16 18  1  0  0  0  0
 16 19  1  0  0  0  0
 19 20  1  0  0  0  0
 19 21  1  0  0  0  0
 19 22  1  0  0  0  0
 22 23  1  0  0  0  0
 22 24  1  0  0  0  0
 22 25  1  0  0  0  0
M  END
> <VM2 Rank>
130

> <Conf_Id>
1308

> <Probability>
0.01

> <Sum Probability>
99.91

> <Delta G>
4.946

> <G>
-3.016

> <E>
-27.869

> <-TS>
24.853

> <U+W>
-48.437

> <U>
10.982

> <W>
-59.419

> <W(PB)>
-61.897

> <W(SA)>
2.477

> <Valence>
11.160

> <Coulomb>
-1.272

> <VdW>
1.094

> <VdW6>
-9.961

> <VdW12>
11.055

> <Bond>
0.244

> <Angle>
3.277

> <Pdih>
7.638

> <Idih>
0.001

> <Tether>
0.000

$$$$
VeraChem MOL file


 25 24  0  0  0  0  0  0  0  0999 V2000     
   19.5658   18.8803   26.4251 C   0  0  0  0  0  0  0  0  0  0  0  0
   19.2290   17.7530   26.1205 O   0  5  0  0  0  0  0  0  0  0  0  0
   18.7795   19.7573   26.7257 O   0  0  0  0  0  0  0  0  0  0  0  0
   21.0600   19.1888   26.5023 C   0  0  0  0  0  0  0  0  0  0  0  0
   21.6246   18.2835   26.2483 H   0  0  0  0  0  0  0  0  0  0  0  0
   21.2751   19.4076   27.5546 H   0  0  0  0  0  0  0  0  0  0  0  0
   21.5370   20.3839   25.6295 C   0  0  0  0  0  0  0  0  0  0  0  0
   20.8360   21.2241   25.7299 H   0  0  0  0  0  0  0  0  0  0  0  0
   22.4940   20.7392   26.0349 H   0  0  0  0  0  0  0  0  0  0  0  0
   21.7541   20.0496   24.1327 C   0  0  0  0  0  0  0  0  0  0  0  0
   22.4676   19.2195   24.0390 H   0  0  0  0  0  0  0  0  0  0  0  0
   22.2263   20.9181   23.6537 H   0  0  0  0  0  0  0  0  0  0  0  0
   20.4549   19.7051   23.3695 C   0  0  0  0  0  0  0  0  0  0  0  0
   20.0410   18.7678   23.7592 H   0  0  0  0  0  0  0  0  0  0  0  0
   19.7049   20.4880   23.5460 H   0  0  0  0  0  0  0  0  0  0  0  0
   20.7062   19.5606   21.8504 C   0  0  0  0  0  0  0  0  0  0  0  0
   21.4219   18.7469   21.6699 H   0  0  0  0  0  0  0  0  0  0  0  0
   21.1783   20.4793   21.4763 H   0  0  0  0  0  0  0  0  0  0  0  0
   19.4166   19.3057   21.0357 C   0  0  0  0  0  0  0  0  0  0  0  0
   18.7001   20.1200   21.2114 H   0  0  0  0  0  0  0  0  0  0  0  0
   19.6638   19.3353   19.9656 H   0  0  0  0  0  0  0  0  0  0  0  0
   18.7498   17.9498   21.3545 C   0  0  0  0  0  0  0  0  0  0  0  0
   18.3823   17.9170   22.3881 H   0  0  0  0  0  0  0  0  0  0  0  0
   17.8920   17.7782   20.6915 H   0  0  0  0  0  0  0  0  0  0  0  0
   19.4567   17.1217   21.2143 H   0  0  0  0  0  0  0  0  0  0  0  0
  1  2  1  0  0  0  0
  1  3  2  0  0  0  0
  1  4  1  0  0  0  0
  4  5  1  0  0  0  0
  4  6  1  0  0  0  0
  4  7  1  0  0  0  0
  7  8  1  0  0  0  0
  7  9  1  0  0  0  0
  7 10  1  0  0  0  0
 10 11  1  0  0  0  0
 10 12  1  0  0  0  0
 10 13  1  0  0  0  0
 13 14  1  0  0  0  0
 13 15  1  0  0  0  0
 13 16  1  0  0  0  0
 16 17  1  0  0  0  0
 16 18  1  0  0  0  0
 16 19  1  0  0  0  0
 19 20  1  0  0  0  0
 19 21  1  0  0  0  0
 19 22  1  0  0  0  0
 22 23  1  0  0  0  0
 22 24  1  0  0  0  0
 22 25  1  0  0  0  0
M  END
> <VM2 Rank>
131

> <Conf_Id>
148

> <Probability>
0.01

> <Sum Probability>
99.92

> <Delta G>
4.991

> <G>
-2.972

> <E>
-28.129

> <-TS>
25.157

> <U+W>
-48.696

> <U>
12.472

> <W>
-61.168

> <W(PB)>
-63.566

> <W(SA)>
2.398

> <Valence>
9.941

> <Coulomb>
1.808

> <VdW>
0.724

> <VdW6>
-10.775

> <VdW12>
11.499

> <Bond>
0.236

> <Angle>
3.415

> <Pdih>
6.282

> <Idih>
0.007

> <Tether>
0.000

$$$$
VeraChem MOL file


 25 24  0  0  0  0  0  0  0  0999 V2000     
   20.4866   19.3102   27.3362 C   0  0  0  0  0  0  0  0  0  0  0  0
   21.6053   19.7666   27.4661 O   0  5  0  0  0  0  0  0  0  0  0  0
   19.5908   19.4848   28.1385 O   0  0  0  0  0  0  0  0  0  0  0  0
   20.1845   18.4893   26.0876 C   0  0  0  0  0  0  0  0  0  0  0  0
   19.4438   17.7255   26.3532 H   0  0  0  0  0  0  0  0  0  0  0  0
   21.1017   17.9641   25.7950 H   0  0  0  0  0  0  0  0  0  0  0  0
   19.6653   19.3524   24.9112 C   0  0  0  0  0  0  0  0  0  0  0  0
   18.7535   19.8794   25.2244 H   0  0  0  0  0  0  0  0  0  0  0  0
   20.4125   20.1217   24.6779 H   0  0  0  0  0  0  0  0  0  0  0  0
   19.3672   18.4943   23.6591 C   0  0  0  0  0  0  0  0  0  0  0  0
   18.6432   17.7144   23.9317 H   0  0  0  0  0  0  0  0  0  0  0  0
   20.2788   17.9723   23.3445 H   0  0  0  0  0  0  0  0  0  0  0  0
   18.7815   19.3148   22.4821 C   0  0  0  0  0  0  0  0  0  0  0  0
   18.3431   18.6312   21.7425 H   0  0  0  0  0  0  0  0  0  0  0  0
   17.9440   19.9152   22.8626 H   0  0  0  0  0  0  0  0  0  0  0  0
   19.7946   20.2550   21.7758 C   0  0  0  0  0  0  0  0  0  0  0  0
   20.5722   20.5891   22.4736 H   0  0  0  0  0  0  0  0  0  0  0  0
   19.2590   21.1642   21.4706 H   0  0  0  0  0  0  0  0  0  0  0  0
   20.4525   19.6550   20.5085 C   0  0  0  0  0  0  0  0  0  0  0  0
   19.6756   19.4023   19.7739 H   0  0  0  0  0  0  0  0  0  0  0  0
   21.0777   20.4279   20.0409 H   0  0  0  0  0  0  0  0  0  0  0  0
   21.3248   18.4118   20.7808 C   0  0  0  0  0  0  0  0  0  0  0  0
   22.0720   18.6177   21.5582 H   0  0  0  0  0  0  0  0  0  0  0  0
   20.7115   17.5612   21.1033 H   0  0  0  0  0  0  0  0  0  0  0  0
   21.8574   18.1092   19.8701 H   0  0  0  0  0  0  0  0  0  0  0  0
  1  2  1  0  0  0  0
  1  3  2  0  0  0  0
  1  4  1  0  0  0  0
  4  5  1  0  0  0  0
  4  6  1  0  0  0  0
  4  7  1  0  0  0  0
  7  8  1  0  0  0  0
  7  9  1  0  0  0  0
  7 10  1  0  0  0  0
 10 11  1  0  0  0  0
 10 12  1  0  0  0  0
 10 13  1  0  0  0  0
 13 14  1  0  0  0  0
 13 15  1  0  0  0  0
 13 16  1  0  0  0  0
 16 17  1  0  0  0  0
 16 18  1  0  0  0  0
 16 19  1  0  0  0  0
 19 20  1  0  0  0  0
 19 21  1  0  0  0  0
 19 22  1  0  0  0  0
 22 23  1  0  0  0  0
 22 24  1  0  0  0  0
 22 25  1  0  0  0  0
M  END
> <VM2 Rank>
132

> <Conf_Id>
829

> <Probability>
0.01

> <Sum Probability>
99.92

> <Delta G>
5.020

> <G>
-2.943

> <E>
-27.760

> <-TS>
24.817

> <U+W>
-48.328

> <U>
11.068

> <W>
-59.396

> <W(PB)>
-61.845

> <W(SA)>
2.449

> <Valence>
11.256

> <Coulomb>
-1.285

> <VdW>
1.098

> <VdW6>
-9.790

> <VdW12>
10.888

> <Bond>
0.240

> <Angle>
3.223

> <Pdih>
7.792

> <Idih>
0.001

> <Tether>
0.000

$$$$
VeraChem MOL file


 25 24  0  0  0  0  0  0  0  0999 V2000     
   20.7084   19.0714   26.4781 C   0  0  0  0  0  0  0  0  0  0  0  0
   21.8001   19.1423   25.9491 O   0  5  0  0  0  0  0  0  0  0  0  0
   20.3847   18.1780   27.2363 O   0  0  0  0  0  0  0  0  0  0  0  0
   19.6996   20.1844   26.2068 C   0  0  0  0  0  0  0  0  0  0  0  0
   20.2157   21.0111   25.7057 H   0  0  0  0  0  0  0  0  0  0  0  0
   19.3697   20.5683   27.1791 H   0  0  0  0  0  0  0  0  0  0  0  0
   18.4607   19.7341   25.3849 C   0  0  0  0  0  0  0  0  0  0  0  0
   17.9251   18.9587   25.9499 H   0  0  0  0  0  0  0  0  0  0  0  0
   17.7660   20.5793   25.2881 H   0  0  0  0  0  0  0  0  0  0  0  0
   18.7945   19.1837   23.9768 C   0  0  0  0  0  0  0  0  0  0  0  0
   17.8647   18.8346   23.5078 H   0  0  0  0  0  0  0  0  0  0  0  0
   19.4428   18.3029   24.0760 H   0  0  0  0  0  0  0  0  0  0  0  0
   19.4658   20.2286   23.0529 C   0  0  0  0  0  0  0  0  0  0  0  0
   18.8709   21.1518   23.0640 H   0  0  0  0  0  0  0  0  0  0  0  0
   20.4552   20.4957   23.4456 H   0  0  0  0  0  0  0  0  0  0  0  0
   19.6040   19.7524   21.5848 C   0  0  0  0  0  0  0  0  0  0  0  0
   20.0519   20.5620   20.9928 H   0  0  0  0  0  0  0  0  0  0  0  0
   18.6011   19.5905   21.1670 H   0  0  0  0  0  0  0  0  0  0  0  0
   20.4410   18.4645   21.3854 C   0  0  0  0  0  0  0  0  0  0  0  0
   19.9524   17.6154   21.8814 H   0  0  0  0  0  0  0  0  0  0  0  0
   20.4593   18.2211   20.3142 H   0  0  0  0  0  0  0  0  0  0  0  0
   21.8943   18.5946   21.8909 C   0  0  0  0  0  0  0  0  0  0  0  0
   21.9271   18.7210   22.9813 H   0  0  0  0  0  0  0  0  0  0  0  0
   22.4697   17.6933   21.6440 H   0  0  0  0  0  0  0  0  0  0  0  0
   22.3960   19.4547   21.4291 H   0  0  0  0  0  0  0  0  0  0  0  0
  1  2  1  0  0  0  0
  1  3  2  0  0  0  0
  1  4  1  0  0  0  0
  4  5  1  0  0  0  0
  4  6  1  0  0  0  0
  4  7  1  0  0  0  0
  7  8  1  0  0  0  0
  7  9  1  0  0  0  0
  7 10  1  0  0  0  0
 10 11  1  0  0  0  0
 10 12  1  0  0  0  0
 10 13  1  0  0  0  0
 13 14  1  0  0  0  0
 13 15  1  0  0  0  0
 13 16  1  0  0  0  0
 16 17  1  0  0  0  0
 16 18  1  0  0  0  0
 16 19  1  0  0  0  0
 19 20  1  0  0  0  0
 19 21  1  0  0  0  0
 19 22  1  0  0  0  0
 22 23  1  0  0  0  0
 22 24  1  0  0  0  0
 22 25  1  0  0  0  0
M  END
> <VM2 Rank>
133

> <Conf_Id>
477

> <Probability>
0.00

> <Sum Probability>
99.93

> <Delta G>
5.037

> <G>
-2.925

> <E>
-28.428

> <-TS>
25.503

> <U+W>
-48.996

> <U>
12.037

> <W>
-61.033

> <W(PB)>
-63.382

> <W(SA)>
2.349

> <Valence>
9.200

> <Coulomb>
2.437

> <VdW>
0.400

> <VdW6>
-11.697

> <VdW12>
12.097

> <Bond>
0.260

> <Angle>
3.325

> <Pdih>
5.612

> <Idih>
0.002

> <Tether>
0.000

$$$$
VeraChem MOL file


 25 24  0  0  0  0  0  0  0  0999 V2000     
   19.6948   19.3422   27.0834 C   0  0  0  0  0  0  0  0  0  0  0  0
   20.3798   18.8021   27.9295 O   0  5  0  0  0  0  0  0  0  0  0  0
   18.4797   19.3407   27.0991 O   0  0  0  0  0  0  0  0  0  0  0  0
   20.3992   20.0462   25.9291 C   0  0  0  0  0  0  0  0  0  0  0  0
   21.3378   20.4673   26.3087 H   0  0  0  0  0  0  0  0  0  0  0  0
   19.7719   20.8868   25.6090 H   0  0  0  0  0  0  0  0  0  0  0  0
   20.6800   19.1048   24.7322 C   0  0  0  0  0  0  0  0  0  0  0  0
   21.3011   18.2634   25.0691 H   0  0  0  0  0  0  0  0  0  0  0  0
   19.7298   18.6793   24.3845 H   0  0  0  0  0  0  0  0  0  0  0  0
   21.3901   19.8451   23.5750 C   0  0  0  0  0  0  0  0  0  0  0  0
   22.3196   20.2885   23.9571 H   0  0  0  0  0  0  0  0  0  0  0  0
   20.7768   20.6857   23.2275 H   0  0  0  0  0  0  0  0  0  0  0  0
   21.7456   18.9244   22.3828 C   0  0  0  0  0  0  0  0  0  0  0  0
   22.3244   19.5047   21.6515 H   0  0  0  0  0  0  0  0  0  0  0  0
   22.4207   18.1347   22.7396 H   0  0  0  0  0  0  0  0  0  0  0  0
   20.5480   18.2585   21.6544 C   0  0  0  0  0  0  0  0  0  0  0  0
   19.9950   17.5997   22.3364 H   0  0  0  0  0  0  0  0  0  0  0  0
   20.9662   17.5953   20.8850 H   0  0  0  0  0  0  0  0  0  0  0  0
   19.5824   19.2464   20.9520 C   0  0  0  0  0  0  0  0  0  0  0  0
   20.1223   20.1518   20.6424 H   0  0  0  0  0  0  0  0  0  0  0  0
   19.2175   18.7781   20.0275 H   0  0  0  0  0  0  0  0  0  0  0  0
   18.3533   19.6236   21.8086 C   0  0  0  0  0  0  0  0  0  0  0  0
   18.6399   20.1501   22.7255 H   0  0  0  0  0  0  0  0  0  0  0  0
   17.6803   20.2817   21.2440 H   0  0  0  0  0  0  0  0  0  0  0  0
   17.7858   18.7285   22.0942 H   0  0  0  0  0  0  0  0  0  0  0  0
  1  2  1  0  0  0  0
  1  3  2  0  0  0  0
  1  4  1  0  0  0  0
  4  5  1  0  0  0  0
  4  6  1  0  0  0  0
  4  7  1  0  0  0  0
  7  8  1  0  0  0  0
  7  9  1  0  0  0  0
  7 10  1  0  0  0  0
 10 11  1  0  0  0  0
 10 12  1  0  0  0  0
 10 13  1  0  0  0  0
 13 14  1  0  0  0  0
 13 15  1  0  0  0  0
 13 16  1  0  0  0  0
 16 17  1  0  0  0  0
 16 18  1  0  0  0  0
 16 19  1  0  0  0  0
 19 20  1  0  0  0  0
 19 21  1  0  0  0  0
 19 22  1  0  0  0  0
 22 23  1  0  0  0  0
 22 24  1  0  0  0  0
 22 25  1  0  0  0  0
M  END
> <VM2 Rank>
134

> <Conf_Id>
1275

> <Probability>
0.00

> <Sum Probability>
99.93

> <Delta G>
5.084

> <G>
-2.878

> <E>
-28.089

> <-TS>
25.210

> <U+W>
-48.657

> <U>
11.357

> <W>
-60.013

> <W(PB)>
-62.398

> <W(SA)>
2.385

> <Valence>
11.109

> <Coulomb>
-0.409

> <VdW>
0.657

> <VdW6>
-10.516

> <VdW12>
11.173

> <Bond>
0.235

> <Angle>
3.588

> <Pdih>
7.286

> <Idih>
0.000

> <Tether>
0.000

$$$$
VeraChem MOL file


 25 24  0  0  0  0  0  0  0  0999 V2000     
   19.6518   19.7253   26.7158 C   0  0  0  0  0  0  0  0  0  0  0  0
   20.1253   19.6612   27.8332 O   0  5  0  0  0  0  0  0  0  0  0  0
   18.8697   20.5864   26.3641 O   0  0  0  0  0  0  0  0  0  0  0  0
   20.0782   18.6789   25.6929 C   0  0  0  0  0  0  0  0  0  0  0  0
   19.2301   18.5037   25.0222 H   0  0  0  0  0  0  0  0  0  0  0  0
   20.2690   17.7394   26.2250 H   0  0  0  0  0  0  0  0  0  0  0  0
   21.3362   19.1029   24.8908 C   0  0  0  0  0  0  0  0  0  0  0  0
   21.1502   20.0513   24.3712 H   0  0  0  0  0  0  0  0  0  0  0  0
   22.1504   19.3048   25.6004 H   0  0  0  0  0  0  0  0  0  0  0  0
   21.8158   18.0294   23.8845 C   0  0  0  0  0  0  0  0  0  0  0  0
   22.0678   17.1158   24.4399 H   0  0  0  0  0  0  0  0  0  0  0  0
   22.7548   18.3704   23.4276 H   0  0  0  0  0  0  0  0  0  0  0  0
   20.8168   17.6620   22.7555 C   0  0  0  0  0  0  0  0  0  0  0  0
   21.2731   16.8508   22.1720 H   0  0  0  0  0  0  0  0  0  0  0  0
   19.8956   17.2359   23.1737 H   0  0  0  0  0  0  0  0  0  0  0  0
   20.4862   18.8188   21.7776 C   0  0  0  0  0  0  0  0  0  0  0  0
   20.3642   18.3946   20.7716 H   0  0  0  0  0  0  0  0  0  0  0  0
   21.3343   19.5140   21.7145 H   0  0  0  0  0  0  0  0  0  0  0  0
   19.1906   19.5843   22.1335 C   0  0  0  0  0  0  0  0  0  0  0  0
   18.3473   18.8817   22.1776 H   0  0  0  0  0  0  0  0  0  0  0  0
   19.2716   20.0417   23.1268 H   0  0  0  0  0  0  0  0  0  0  0  0
   18.8824   20.6847   21.0981 C   0  0  0  0  0  0  0  0  0  0  0  0
   17.9593   21.2166   21.3628 H   0  0  0  0  0  0  0  0  0  0  0  0
   19.6963   21.4201   21.0538 H   0  0  0  0  0  0  0  0  0  0  0  0
   18.7515   20.2565   20.0958 H   0  0  0  0  0  0  0  0  0  0  0  0
  1  2  1  0  0  0  0
  1  3  2  0  0  0  0
  1  4  1  0  0  0  0
  4  5  1  0  0  0  0
  4  6  1  0  0  0  0
  4  7  1  0  0  0  0
  7  8  1  0  0  0  0
  7  9  1  0  0  0  0
  7 10  1  0  0  0  0
 10 11  1  0  0  0  0
 10 12  1  0  0  0  0
 10 13  1  0  0  0  0
 13 14  1  0  0  0  0
 13 15  1  0  0  0  0
 13 16  1  0  0  0  0
 16 17  1  0  0  0  0
 16 18  1  0  0  0  0
 16 19  1  0  0  0  0
 19 20  1  0  0  0  0
 19 21  1  0  0  0  0
 19 22  1  0  0  0  0
 22 23  1  0  0  0  0
 22 24  1  0  0  0  0
 22 25  1  0  0  0  0
M  END
> <VM2 Rank>
135

> <Conf_Id>
246

> <Probability>
0.00

> <Sum Probability>
99.93

> <Delta G>
5.125

> <G>
-2.837

> <E>
-28.118

> <-TS>
25.281

> <U+W>
-48.685

> <U>
11.615

> <W>
-60.301

> <W(PB)>
-62.668

> <W(SA)>
2.368

> <Valence>
11.123

> <Coulomb>
-0.039

> <VdW>
0.532

> <VdW6>
-10.780

> <VdW12>
11.312

> <Bond>
0.247

> <Angle>
3.570

> <Pdih>
7.306

> <Idih>
0.001

> <Tether>
0.000

$$$$
VeraChem MOL file


 25 24  0  0  0  0  0  0  0  0999 V2000     
   20.5906   19.7848   26.7049 C   0  0  0  0  0  0  0  0  0  0  0  0
   21.2494   20.7371   26.3365 O   0  5  0  0  0  0  0  0  0  0  0  0
   20.1548   19.6632   27.8328 O   0  0  0  0  0  0  0  0  0  0  0  0
   20.2761   18.6913   25.6906 C   0  0  0  0  0  0  0  0  0  0  0  0
   20.2177   17.7361   26.2257 H   0  0  0  0  0  0  0  0  0  0  0  0
   21.1239   18.6235   25.0004 H   0  0  0  0  0  0  0  0  0  0  0  0
   18.9566   18.9521   24.9183 C   0  0  0  0  0  0  0  0  0  0  0  0
   18.1400   19.0506   25.6467 H   0  0  0  0  0  0  0  0  0  0  0  0
   19.0095   19.9156   24.3959 H   0  0  0  0  0  0  0  0  0  0  0  0
   18.5933   17.8252   23.9216 C   0  0  0  0  0  0  0  0  0  0  0  0
   17.6085   18.0443   23.4869 H   0  0  0  0  0  0  0  0  0  0  0  0
   18.4715   16.8879   24.4814 H   0  0  0  0  0  0  0  0  0  0  0  0
   19.6045   17.5852   22.7695 C   0  0  0  0  0  0  0  0  0  0  0  0
   20.5815   17.2794   23.1658 H   0  0  0  0  0  0  0  0  0  0  0  0
   19.2410   16.7221   22.1954 H   0  0  0  0  0  0  0  0  0  0  0  0
   19.7639   18.7731   21.7859 C   0  0  0  0  0  0  0  0  0  0  0  0
   18.8336   19.3557   21.7435 H   0  0  0  0  0  0  0  0  0  0  0  0
   19.9152   18.3663   20.7768 H   0  0  0  0  0  0  0  0  0  0  0  0
   20.9604   19.6965   22.1131 C   0  0  0  0  0  0  0  0  0  0  0  0
   20.8453   20.1414   23.1087 H   0  0  0  0  0  0  0  0  0  0  0  0
   21.8865   19.1060   22.1367 H   0  0  0  0  0  0  0  0  0  0  0  0
   21.1033   20.8256   21.0726 C   0  0  0  0  0  0  0  0  0  0  0  0
   20.2023   21.4523   21.0482 H   0  0  0  0  0  0  0  0  0  0  0  0
   21.9577   21.4701   21.3168 H   0  0  0  0  0  0  0  0  0  0  0  0
   21.2640   20.4160   20.0668 H   0  0  0  0  0  0  0  0  0  0  0  0
  1  2  1  0  0  0  0
  1  3  2  0  0  0  0
  1  4  1  0  0  0  0
  4  5  1  0  0  0  0
  4  6  1  0  0  0  0
  4  7  1  0  0  0  0
  7  8  1  0  0  0  0
  7  9  1  0  0  0  0
  7 10  1  0  0  0  0
 10 11  1  0  0  0  0
 10 12  1  0  0  0  0
 10 13  1  0  0  0  0
 13 14  1  0  0  0  0
 13 15  1  0  0  0  0
 13 16  1  0  0  0  0
 16 17  1  0  0  0  0
 16 18  1  0  0  0  0
 16 19  1  0  0  0  0
 19 20  1  0  0  0  0
 19 21  1  0  0  0  0
 19 22  1  0  0  0  0
 22 23  1  0  0  0  0
 22 24  1  0  0  0  0
 22 25  1  0  0  0  0
M  END
> <VM2 Rank>
136

> <Conf_Id>
1299

> <Probability>
0.00

> <Sum Probability>
99.94

> <Delta G>
5.141

> <G>
-2.822

> <E>
-28.103

> <-TS>
25.281

> <U+W>
-48.670

> <U>
11.616

> <W>
-60.286

> <W(PB)>
-62.670

> <W(SA)>
2.384

> <Valence>
11.123

> <Coulomb>
-0.039

> <VdW>
0.532

> <VdW6>
-10.780

> <VdW12>
11.312

> <Bond>
0.247

> <Angle>
3.569

> <Pdih>
7.306

> <Idih>
0.001

> <Tether>
0.000

$$$$
VeraChem MOL file


 25 24  0  0  0  0  0  0  0  0999 V2000     
   19.6220   18.9982   26.4905 C   0  0  0  0  0  0  0  0  0  0  0  0
   20.0795   18.1565   27.2389 O   0  5  0  0  0  0  0  0  0  0  0  0
   18.5183   18.9226   25.9875 O   0  0  0  0  0  0  0  0  0  0  0  0
   20.4669   20.2354   26.1982 C   0  0  0  0  0  0  0  0  0  0  0  0
   20.7651   20.6609   27.1634 H   0  0  0  0  0  0  0  0  0  0  0  0
   19.8336   20.9854   25.7109 H   0  0  0  0  0  0  0  0  0  0  0  0
   21.7353   19.9534   25.3470 C   0  0  0  0  0  0  0  0  0  0  0  0
   22.3086   20.8836   25.2356 H   0  0  0  0  0  0  0  0  0  0  0  0
   22.3826   19.2571   25.8979 H   0  0  0  0  0  0  0  0  0  0  0  0
   21.4453   19.3616   23.9459 C   0  0  0  0  0  0  0  0  0  0  0  0
   20.9231   18.4022   24.0585 H   0  0  0  0  0  0  0  0  0  0  0  0
   22.4022   19.1396   23.4547 H   0  0  0  0  0  0  0  0  0  0  0  0
   20.6189   20.3063   23.0400 C   0  0  0  0  0  0  0  0  0  0  0  0
   19.6120   20.4389   23.4561 H   0  0  0  0  0  0  0  0  0  0  0  0
   21.0848   21.3009   23.0392 H   0  0  0  0  0  0  0  0  0  0  0  0
   20.5115   19.8143   21.5746 C   0  0  0  0  0  0  0  0  0  0  0  0
   21.5171   19.7879   21.1332 H   0  0  0  0  0  0  0  0  0  0  0  0
   19.9454   20.5559   20.9948 H   0  0  0  0  0  0  0  0  0  0  0  0
   19.8504   18.4256   21.3919 C   0  0  0  0  0  0  0  0  0  0  0  0
   19.8399   18.1809   20.3209 H   0  0  0  0  0  0  0  0  0  0  0  0
   20.4599   17.6502   21.8746 H   0  0  0  0  0  0  0  0  0  0  0  0
   18.4050   18.3601   21.9315 C   0  0  0  0  0  0  0  0  0  0  0  0
   17.9501   17.3895   21.6961 H   0  0  0  0  0  0  0  0  0  0  0  0
   18.3811   18.4821   23.0226 H   0  0  0  0  0  0  0  0  0  0  0  0
   17.7818   19.1446   21.4833 H   0  0  0  0  0  0  0  0  0  0  0  0
  1  2  1  0  0  0  0
  1  3  2  0  0  0  0
  1  4  1  0  0  0  0
  4  5  1  0  0  0  0
  4  6  1  0  0  0  0
  4  7  1  0  0  0  0
  7  8  1  0  0  0  0
  7  9  1  0  0  0  0
  7 10  1  0  0  0  0
 10 11  1  0  0  0  0
 10 12  1  0  0  0  0
 10 13  1  0  0  0  0
 13 14  1  0  0  0  0
 13 15  1  0  0  0  0
 13 16  1  0  0  0  0
 16 17  1  0  0  0  0
 16 18  1  0  0  0  0
 16 19  1  0  0  0  0
 19 20  1  0  0  0  0
 19 21  1  0  0  0  0
 19 22  1  0  0  0  0
 22 23  1  0  0  0  0
 22 24  1  0  0  0  0
 22 25  1  0  0  0  0
M  END
> <VM2 Rank>
137

> <Conf_Id>
1356

> <Probability>
0.00

> <Sum Probability>
99.94

> <Delta G>
5.149

> <G>
-2.813

> <E>
-28.317

> <-TS>
25.504

> <U+W>
-48.885

> <U>
12.037

> <W>
-60.922

> <W(PB)>
-63.260

> <W(SA)>
2.339

> <Valence>
9.200

> <Coulomb>
2.437

> <VdW>
0.400

> <VdW6>
-11.698

> <VdW12>
12.098

> <Bond>
0.260

> <Angle>
3.326

> <Pdih>
5.612

> <Idih>
0.002

> <Tether>
0.000

$$$$
VeraChem MOL file


 25 24  0  0  0  0  0  0  0  0999 V2000     
   20.2839   19.5361   27.1917 C   0  0  0  0  0  0  0  0  0  0  0  0
   21.3407   19.0103   27.4812 O   0  5  0  0  0  0  0  0  0  0  0  0
   19.2726   19.4241   27.8566 O   0  0  0  0  0  0  0  0  0  0  0  0
   20.2255   20.3987   25.9342 C   0  0  0  0  0  0  0  0  0  0  0  0
   21.2482   20.6785   25.6538 H   0  0  0  0  0  0  0  0  0  0  0  0
   19.7035   21.3262   26.1969 H   0  0  0  0  0  0  0  0  0  0  0  0
   19.5088   19.7221   24.7369 C   0  0  0  0  0  0  0  0  0  0  0  0
   18.4964   19.4241   25.0427 H   0  0  0  0  0  0  0  0  0  0  0  0
   19.3859   20.4616   23.9370 H   0  0  0  0  0  0  0  0  0  0  0  0
   20.2765   18.4866   24.2066 C   0  0  0  0  0  0  0  0  0  0  0  0
   20.3283   17.7403   25.0114 H   0  0  0  0  0  0  0  0  0  0  0  0
   21.3161   18.7532   23.9722 H   0  0  0  0  0  0  0  0  0  0  0  0
   19.6040   17.8307   22.9740 C   0  0  0  0  0  0  0  0  0  0  0  0
   19.7258   16.7421   23.0574 H   0  0  0  0  0  0  0  0  0  0  0  0
   18.5204   18.0113   22.9897 H   0  0  0  0  0  0  0  0  0  0  0  0
   20.1957   18.2622   21.6084 C   0  0  0  0  0  0  0  0  0  0  0  0
   19.7007   17.6799   20.8192 H   0  0  0  0  0  0  0  0  0  0  0  0
   21.2594   17.9906   21.5698 H   0  0  0  0  0  0  0  0  0  0  0  0
   20.0391   19.7660   21.2941 C   0  0  0  0  0  0  0  0  0  0  0  0
   18.9882   20.0632   21.4138 H   0  0  0  0  0  0  0  0  0  0  0  0
   20.6284   20.3586   22.0060 H   0  0  0  0  0  0  0  0  0  0  0  0
   20.5063   20.0973   19.8623 C   0  0  0  0  0  0  0  0  0  0  0  0
   19.9140   19.5486   19.1184 H   0  0  0  0  0  0  0  0  0  0  0  0
   20.3960   21.1702   19.6583 H   0  0  0  0  0  0  0  0  0  0  0  0
   21.5626   19.8325   19.7231 H   0  0  0  0  0  0  0  0  0  0  0  0
  1  2  1  0  0  0  0
  1  3  2  0  0  0  0
  1  4  1  0  0  0  0
  4  5  1  0  0  0  0
  4  6  1  0  0  0  0
  4  7  1  0  0  0  0
  7  8  1  0  0  0  0
  7  9  1  0  0  0  0
  7 10  1  0  0  0  0
 10 11  1  0  0  0  0
 10 12  1  0  0  0  0
 10 13  1  0  0  0  0
 13 14  1  0  0  0  0
 13 15  1  0  0  0  0
 13 16  1  0  0  0  0
 16 17  1  0  0  0  0
 16 18  1  0  0  0  0
 16 19  1  0  0  0  0
 19 20  1  0  0  0  0
 19 21  1  0  0  0  0
 19 22  1  0  0  0  0
 22 23  1  0  0  0  0
 22 24  1  0  0  0  0
 22 25  1  0  0  0  0
M  END
> <VM2 Rank>
138

> <Conf_Id>
1334

> <Probability>
0.00

> <Sum Probability>
99.95

> <Delta G>
5.262

> <G>
-2.700

> <E>
-27.780

> <-TS>
25.080

> <U+W>
-48.348

> <U>
11.345

> <W>
-59.693

> <W(PB)>
-62.127

> <W(SA)>
2.434

> <Valence>
10.839

> <Coulomb>
-0.332

> <VdW>
0.838

> <VdW6>
-10.154

> <VdW12>
10.992

> <Bond>
0.219

> <Angle>
3.144

> <Pdih>
7.476

> <Idih>
0.000

> <Tether>
0.000

$$$$
VeraChem MOL file


 25 24  0  0  0  0  0  0  0  0999 V2000     
   20.3817   19.2643   27.1782 C   0  0  0  0  0  0  0  0  0  0  0  0
   21.3257   19.9830   27.4417 O   0  5  0  0  0  0  0  0  0  0  0  0
   19.3245   19.2962   27.7769 O   0  0  0  0  0  0  0  0  0  0  0  0
   20.5418   18.2530   26.0465 C   0  0  0  0  0  0  0  0  0  0  0  0
   19.7731   17.4785   26.1566 H   0  0  0  0  0  0  0  0  0  0  0  0
   21.5113   17.7598   26.1839 H   0  0  0  0  0  0  0  0  0  0  0  0
   20.4751   18.8759   24.6277 C   0  0  0  0  0  0  0  0  0  0  0  0
   21.2188   19.6808   24.5473 H   0  0  0  0  0  0  0  0  0  0  0  0
   20.7546   18.1049   23.8985 H   0  0  0  0  0  0  0  0  0  0  0  0
   19.0698   19.4213   24.2827 C   0  0  0  0  0  0  0  0  0  0  0  0
   18.7470   20.1134   25.0724 H   0  0  0  0  0  0  0  0  0  0  0  0
   18.3468   18.5942   24.2860 H   0  0  0  0  0  0  0  0  0  0  0  0
   18.9921   20.1673   22.9270 C   0  0  0  0  0  0  0  0  0  0  0  0
   17.9678   20.5496   22.8190 H   0  0  0  0  0  0  0  0  0  0  0  0
   19.6402   21.0541   22.9477 H   0  0  0  0  0  0  0  0  0  0  0  0
   19.3140   19.2943   21.6874 C   0  0  0  0  0  0  0  0  0  0  0  0
   18.6504   19.5975   20.8659 H   0  0  0  0  0  0  0  0  0  0  0  0
   19.0799   18.2415   21.8961 H   0  0  0  0  0  0  0  0  0  0  0  0
   20.7753   19.4357   21.2020 C   0  0  0  0  0  0  0  0  0  0  0  0
   20.9754   20.4838   20.9401 H   0  0  0  0  0  0  0  0  0  0  0  0
   21.4754   19.1743   22.0046 H   0  0  0  0  0  0  0  0  0  0  0  0
   21.0531   18.5429   19.9759 C   0  0  0  0  0  0  0  0  0  0  0  0
   20.3936   18.8078   19.1391 H   0  0  0  0  0  0  0  0  0  0  0  0
   22.0914   18.6599   19.6395 H   0  0  0  0  0  0  0  0  0  0  0  0
   20.8924   17.4841   20.2175 H   0  0  0  0  0  0  0  0  0  0  0  0
  1  2  1  0  0  0  0
  1  3  2  0  0  0  0
  1  4  1  0  0  0  0
  4  5  1  0  0  0  0
  4  6  1  0  0  0  0
  4  7  1  0  0  0  0
  7  8  1  0  0  0  0
  7  9  1  0  0  0  0
  7 10  1  0  0  0  0
 10 11  1  0  0  0  0
 10 12  1  0  0  0  0
 10 13  1  0  0  0  0
 13 14  1  0  0  0  0
 13 15  1  0  0  0  0
 13 16  1  0  0  0  0
 16 17  1  0  0  0  0
 16 18  1  0  0  0  0
 16 19  1  0  0  0  0
 19 20  1  0  0  0  0
 19 21  1  0  0  0  0
 19 22  1  0  0  0  0
 22 23  1  0  0  0  0
 22 24  1  0  0  0  0
 22 25  1  0  0  0  0
M  END
> <VM2 Rank>
139

> <Conf_Id>
860

> <Probability>
0.00

> <Sum Probability>
99.95

> <Delta G>
5.291

> <G>
-2.671

> <E>
-27.782

> <-TS>
25.110

> <U+W>
-48.349

> <U>
11.468

> <W>
-59.817

> <W(PB)>
-62.229

> <W(SA)>
2.412

> <Valence>
10.870

> <Coulomb>
-0.266

> <VdW>
0.864

> <VdW6>
-10.146

> <VdW12>
11.010

> <Bond>
0.218

> <Angle>
3.178

> <Pdih>
7.473

> <Idih>
0.001

> <Tether>
0.000

$$$$
VeraChem MOL file


 25 24  0  0  0  0  0  0  0  0999 V2000     
   19.8196   19.3181   27.1055 C   0  0  0  0  0  0  0  0  0  0  0  0
   20.6074   19.9063   27.8200 O   0  5  0  0  0  0  0  0  0  0  0  0
   18.6448   19.6152   27.0122 O   0  0  0  0  0  0  0  0  0  0  0  0
   20.3315   18.1290   26.2974 C   0  0  0  0  0  0  0  0  0  0  0  0
   19.4734   17.5182   25.9916 H   0  0  0  0  0  0  0  0  0  0  0  0
   20.9370   17.5113   26.9709 H   0  0  0  0  0  0  0  0  0  0  0  0
   21.1756   18.5251   25.0582 C   0  0  0  0  0  0  0  0  0  0  0  0
   22.0151   19.1586   25.3768 H   0  0  0  0  0  0  0  0  0  0  0  0
   21.6125   17.6176   24.6200 H   0  0  0  0  0  0  0  0  0  0  0  0
   20.3439   19.2593   23.9825 C   0  0  0  0  0  0  0  0  0  0  0  0
   19.9197   20.1786   24.4094 H   0  0  0  0  0  0  0  0  0  0  0  0
   19.4950   18.6305   23.6891 H   0  0  0  0  0  0  0  0  0  0  0  0
   21.2006   19.6193   22.7459 C   0  0  0  0  0  0  0  0  0  0  0  0
   22.0187   20.2739   23.0761 H   0  0  0  0  0  0  0  0  0  0  0  0
   21.6761   18.7187   22.3341 H   0  0  0  0  0  0  0  0  0  0  0  0
   20.4022   20.3521   21.6377 C   0  0  0  0  0  0  0  0  0  0  0  0
   21.0646   21.0966   21.1753 H   0  0  0  0  0  0  0  0  0  0  0  0
   19.5740   20.9232   22.0792 H   0  0  0  0  0  0  0  0  0  0  0  0
   19.8727   19.4345   20.5079 C   0  0  0  0  0  0  0  0  0  0  0  0
   19.3975   20.0631   19.7423 H   0  0  0  0  0  0  0  0  0  0  0  0
   20.7171   18.9343   20.0138 H   0  0  0  0  0  0  0  0  0  0  0  0
   18.8548   18.3750   20.9787 C   0  0  0  0  0  0  0  0  0  0  0  0
   18.0309   18.8400   21.5355 H   0  0  0  0  0  0  0  0  0  0  0  0
   18.4260   17.8455   20.1182 H   0  0  0  0  0  0  0  0  0  0  0  0
   19.3327   17.6262   21.6225 H   0  0  0  0  0  0  0  0  0  0  0  0
  1  2  1  0  0  0  0
  1  3  2  0  0  0  0
  1  4  1  0  0  0  0
  4  5  1  0  0  0  0
  4  6  1  0  0  0  0
  4  7  1  0  0  0  0
  7  8  1  0  0  0  0
  7  9  1  0  0  0  0
  7 10  1  0  0  0  0
 10 11  1  0  0  0  0
 10 12  1  0  0  0  0
 10 13  1  0  0  0  0
 13 14  1  0  0  0  0
 13 15  1  0  0  0  0
 13 16  1  0  0  0  0
 16 17  1  0  0  0  0
 16 18  1  0  0  0  0
 16 19  1  0  0  0  0
 19 20  1  0  0  0  0
 19 21  1  0  0  0  0
 19 22  1  0  0  0  0
 22 23  1  0  0  0  0
 22 24  1  0  0  0  0
 22 25  1  0  0  0  0
M  END
> <VM2 Rank>
140

> <Conf_Id>
135

> <Probability>
0.00

> <Sum Probability>
99.95

> <Delta G>
5.301

> <G>
-2.662

> <E>
-27.708

> <-TS>
25.046

> <U+W>
-48.276

> <U>
11.935

> <W>
-60.211

> <W(PB)>
-62.649

> <W(SA)>
2.438

> <Valence>
10.764

> <Coulomb>
0.351

> <VdW>
0.820

> <VdW6>
-10.096

> <VdW12>
10.916

> <Bond>
0.214

> <Angle>
3.143

> <Pdih>
7.405

> <Idih>
0.001

> <Tether>
0.000

$$$$
VeraChem MOL file


 25 24  0  0  0  0  0  0  0  0999 V2000     
   20.2189   19.0929   27.2038 C   0  0  0  0  0  0  0  0  0  0  0  0
   21.3847   19.3069   27.4727 O   0  5  0  0  0  0  0  0  0  0  0  0
   19.2882   19.5268   27.8539 O   0  0  0  0  0  0  0  0  0  0  0  0
   19.9045   18.2171   25.9943 C   0  0  0  0  0  0  0  0  0  0  0  0
   19.1397   17.4946   26.3027 H   0  0  0  0  0  0  0  0  0  0  0  0
   20.8010   17.6400   25.7373 H   0  0  0  0  0  0  0  0  0  0  0  0
   19.4030   19.0056   24.7567 C   0  0  0  0  0  0  0  0  0  0  0  0
   19.0661   18.2907   23.9970 H   0  0  0  0  0  0  0  0  0  0  0  0
   18.5216   19.5983   25.0381 H   0  0  0  0  0  0  0  0  0  0  0  0
   20.4893   19.9377   24.1665 C   0  0  0  0  0  0  0  0  0  0  0  0
   21.4065   19.3710   23.9552 H   0  0  0  0  0  0  0  0  0  0  0  0
   20.7599   20.6799   24.9301 H   0  0  0  0  0  0  0  0  0  0  0  0
   20.0240   20.6914   22.8949 C   0  0  0  0  0  0  0  0  0  0  0  0
   18.9345   20.8310   22.9115 H   0  0  0  0  0  0  0  0  0  0  0  0
   20.4542   21.7020   22.9202 H   0  0  0  0  0  0  0  0  0  0  0  0
   20.4561   20.0349   21.5595 C   0  0  0  0  0  0  0  0  0  0  0  0
   21.5527   19.9868   21.5148 H   0  0  0  0  0  0  0  0  0  0  0  0
   20.1432   20.6912   20.7359 H   0  0  0  0  0  0  0  0  0  0  0  0
   19.8715   18.6248   21.3258 C   0  0  0  0  0  0  0  0  0  0  0  0
   20.2711   17.9273   22.0735 H   0  0  0  0  0  0  0  0  0  0  0  0
   18.7805   18.6490   21.4527 H   0  0  0  0  0  0  0  0  0  0  0  0
   20.2128   18.0961   19.9179 C   0  0  0  0  0  0  0  0  0  0  0  0
   19.7976   18.7506   19.1405 H   0  0  0  0  0  0  0  0  0  0  0  0
   21.2996   18.0381   19.7733 H   0  0  0  0  0  0  0  0  0  0  0  0
   19.7972   17.0906   19.7714 H   0  0  0  0  0  0  0  0  0  0  0  0
  1  2  1  0  0  0  0
  1  3  2  0  0  0  0
  1  4  1  0  0  0  0
  4  5  1  0  0  0  0
  4  6  1  0  0  0  0
  4  7  1  0  0  0  0
  7  8  1  0  0  0  0
  7  9  1  0  0  0  0
  7 10  1  0  0  0  0
 10 11  1  0  0  0  0
 10 12  1  0  0  0  0
 10 13  1  0  0  0  0
 13 14  1  0  0  0  0
 13 15  1  0  0  0  0
 13 16  1  0  0  0  0
 16 17  1  0  0  0  0
 16 18  1  0  0  0  0
 16 19  1  0  0  0  0
 19 20  1  0  0  0  0
 19 21  1  0  0  0  0
 19 22  1  0  0  0  0
 22 23  1  0  0  0  0
 22 24  1  0  0  0  0
 22 25  1  0  0  0  0
M  END
> <VM2 Rank>
141

> <Conf_Id>
1206

> <Probability>
0.00

> <Sum Probability>
99.96

> <Delta G>
5.318

> <G>
-2.644

> <E>
-27.725

> <-TS>
25.080

> <U+W>
-48.292

> <U>
11.345

> <W>
-59.637

> <W(PB)>
-62.099

> <W(SA)>
2.462

> <Valence>
10.839

> <Coulomb>
-0.332

> <VdW>
0.838

> <VdW6>
-10.154

> <VdW12>
10.992

> <Bond>
0.219

> <Angle>
3.144

> <Pdih>
7.477

> <Idih>
0.000

> <Tether>
0.000

$$$$
VeraChem MOL file


 25 24  0  0  0  0  0  0  0  0999 V2000     
   20.5585   19.2516   26.9631 C   0  0  0  0  0  0  0  0  0  0  0  0
   21.7678   19.1412   26.9128 O   0  5  0  0  0  0  0  0  0  0  0  0
   19.8422   18.5154   27.6128 O   0  0  0  0  0  0  0  0  0  0  0  0
   19.9076   20.3911   26.1841 C   0  0  0  0  0  0  0  0  0  0  0  0
   20.5058   21.2929   26.3598 H   0  0  0  0  0  0  0  0  0  0  0  0
   18.9141   20.5818   26.6075 H   0  0  0  0  0  0  0  0  0  0  0  0
   19.8002   20.1298   24.6593 C   0  0  0  0  0  0  0  0  0  0  0  0
   19.4414   21.0422   24.1643 H   0  0  0  0  0  0  0  0  0  0  0  0
   20.8035   19.9214   24.2647 H   0  0  0  0  0  0  0  0  0  0  0  0
   18.8492   18.9575   24.3246 C   0  0  0  0  0  0  0  0  0  0  0  0
   17.8908   19.1183   24.8369 H   0  0  0  0  0  0  0  0  0  0  0  0
   19.2607   18.0233   24.7309 H   0  0  0  0  0  0  0  0  0  0  0  0
   18.5687   18.7778   22.8115 C   0  0  0  0  0  0  0  0  0  0  0  0
   17.8448   17.9584   22.7054 H   0  0  0  0  0  0  0  0  0  0  0  0
   18.0689   19.6706   22.4115 H   0  0  0  0  0  0  0  0  0  0  0  0
   19.8163   18.4320   21.9592 C   0  0  0  0  0  0  0  0  0  0  0  0
   19.5167   17.7230   21.1753 H   0  0  0  0  0  0  0  0  0  0  0  0
   20.5609   17.9096   22.5754 H   0  0  0  0  0  0  0  0  0  0  0  0
   20.4524   19.6643   21.2755 C   0  0  0  0  0  0  0  0  0  0  0  0
   19.7120   20.1443   20.6207 H   0  0  0  0  0  0  0  0  0  0  0  0
   20.7426   20.4129   22.0225 H   0  0  0  0  0  0  0  0  0  0  0  0
   21.6901   19.2733   20.4432 C   0  0  0  0  0  0  0  0  0  0  0  0
   21.4246   18.5532   19.6581 H   0  0  0  0  0  0  0  0  0  0  0  0
   22.1258   20.1570   19.9593 H   0  0  0  0  0  0  0  0  0  0  0  0
   22.4621   18.8194   21.0783 H   0  0  0  0  0  0  0  0  0  0  0  0
  1  2  1  0  0  0  0
  1  3  2  0  0  0  0
  1  4  1  0  0  0  0
  4  5  1  0  0  0  0
  4  6  1  0  0  0  0
  4  7  1  0  0  0  0
  7  8  1  0  0  0  0
  7  9  1  0  0  0  0
  7 10  1  0  0  0  0
 10 11  1  0  0  0  0
 10 12  1  0  0  0  0
 10 13  1  0  0  0  0
 13 14  1  0  0  0  0
 13 15  1  0  0  0  0
 13 16  1  0  0  0  0
 16 17  1  0  0  0  0
 16 18  1  0  0  0  0
 16 19  1  0  0  0  0
 19 20  1  0  0  0  0
 19 21  1  0  0  0  0
 19 22  1  0  0  0  0
 22 23  1  0  0  0  0
 22 24  1  0  0  0  0
 22 25  1  0  0  0  0
M  END
> <VM2 Rank>
142

> <Conf_Id>
729

> <Probability>
0.00

> <Sum Probability>
99.96

> <Delta G>
5.327

> <G>
-2.635

> <E>
-27.713

> <-TS>
25.078

> <U+W>
-48.281

> <U>
12.004

> <W>
-60.284

> <W(PB)>
-62.707

> <W(SA)>
2.423

> <Valence>
10.797

> <Coulomb>
0.449

> <VdW>
0.758

> <VdW6>
-10.233

> <VdW12>
10.991

> <Bond>
0.215

> <Angle>
3.136

> <Pdih>
7.446

> <Idih>
0.001

> <Tether>
0.000

$$$$
VeraChem MOL file


 25 24  0  0  0  0  0  0  0  0999 V2000     
   19.9355   19.2359   27.1833 C   0  0  0  0  0  0  0  0  0  0  0  0
   20.9934   19.4030   27.7577 O   0  5  0  0  0  0  0  0  0  0  0  0
   18.9140   19.8292   27.4693 O   0  0  0  0  0  0  0  0  0  0  0  0
   19.8795   18.2106   26.0542 C   0  0  0  0  0  0  0  0  0  0  0  0
   18.9841   17.5984   26.2132 H   0  0  0  0  0  0  0  0  0  0  0  0
   20.7428   17.5405   26.1457 H   0  0  0  0  0  0  0  0  0  0  0  0
   19.8339   18.8347   24.6351 C   0  0  0  0  0  0  0  0  0  0  0  0
   19.6380   18.0333   23.9115 H   0  0  0  0  0  0  0  0  0  0  0  0
   18.9923   19.5384   24.5730 H   0  0  0  0  0  0  0  0  0  0  0  0
   21.1502   19.5537   24.2586 C   0  0  0  0  0  0  0  0  0  0  0  0
   21.9723   18.8251   24.2440 H   0  0  0  0  0  0  0  0  0  0  0  0
   21.4006   20.2823   25.0418 H   0  0  0  0  0  0  0  0  0  0  0  0
   21.1012   20.3017   22.9026 C   0  0  0  0  0  0  0  0  0  0  0  0
   20.3464   21.0991   22.9397 H   0  0  0  0  0  0  0  0  0  0  0  0
   22.0658   20.8108   22.7716 H   0  0  0  0  0  0  0  0  0  0  0  0
   20.8641   19.3932   21.6694 C   0  0  0  0  0  0  0  0  0  0  0  0
   21.2348   18.3789   21.8709 H   0  0  0  0  0  0  0  0  0  0  0  0
   21.4645   19.7771   20.8333 H   0  0  0  0  0  0  0  0  0  0  0  0
   19.3858   19.3471   21.2183 C   0  0  0  0  0  0  0  0  0  0  0  0
   18.7434   18.9997   22.0364 H   0  0  0  0  0  0  0  0  0  0  0  0
   19.0480   20.3610   20.9629 H   0  0  0  0  0  0  0  0  0  0  0  0
   19.1954   18.4248   19.9974 C   0  0  0  0  0  0  0  0  0  0  0  0
   18.1431   18.4085   19.6853 H   0  0  0  0  0  0  0  0  0  0  0  0
   19.7962   18.7704   19.1460 H   0  0  0  0  0  0  0  0  0  0  0  0
   19.4949   17.3952   20.2333 H   0  0  0  0  0  0  0  0  0  0  0  0
  1  2  1  0  0  0  0
  1  3  2  0  0  0  0
  1  4  1  0  0  0  0
  4  5  1  0  0  0  0
  4  6  1  0  0  0  0
  4  7  1  0  0  0  0
  7  8  1  0  0  0  0
  7  9  1  0  0  0  0
  7 10  1  0  0  0  0
 10 11  1  0  0  0  0
 10 12  1  0  0  0  0
 10 13  1  0  0  0  0
 13 14  1  0  0  0  0
 13 15  1  0  0  0  0
 13 16  1  0  0  0  0
 16 17  1  0  0  0  0
 16 18  1  0  0  0  0
 16 19  1  0  0  0  0
 19 20  1  0  0  0  0
 19 21  1  0  0  0  0
 19 22  1  0  0  0  0
 22 23  1  0  0  0  0
 22 24  1  0  0  0  0
 22 25  1  0  0  0  0
M  END
> <VM2 Rank>
143

> <Conf_Id>
855

> <Probability>
0.00

> <Sum Probability>
99.96

> <Delta G>
5.352

> <G>
-2.610

> <E>
-27.721

> <-TS>
25.111

> <U+W>
-48.289

> <U>
11.468

> <W>
-59.757

> <W(PB)>
-62.183

> <W(SA)>
2.426

> <Valence>
10.870

> <Coulomb>
-0.266

> <VdW>
0.864

> <VdW6>
-10.146

> <VdW12>
11.010

> <Bond>
0.218

> <Angle>
3.178

> <Pdih>
7.473

> <Idih>
0.001

> <Tether>
0.000

$$$$
VeraChem MOL file


 25 24  0  0  0  0  0  0  0  0999 V2000     
   20.0190   19.3379   26.9633 C   0  0  0  0  0  0  0  0  0  0  0  0
   20.8423   18.9224   27.7553 O   0  5  0  0  0  0  0  0  0  0  0  0
   18.8320   19.0868   27.0342 O   0  0  0  0  0  0  0  0  0  0  0  0
   20.5008   20.2484   25.8373 C   0  0  0  0  0  0  0  0  0  0  0  0
   21.1194   21.0306   26.2922 H   0  0  0  0  0  0  0  0  0  0  0  0
   19.6328   20.7541   25.3991 H   0  0  0  0  0  0  0  0  0  0  0  0
   21.3205   19.5185   24.7385 C   0  0  0  0  0  0  0  0  0  0  0  0
   21.6908   20.2555   24.0143 H   0  0  0  0  0  0  0  0  0  0  0  0
   22.2129   19.0750   25.2010 H   0  0  0  0  0  0  0  0  0  0  0  0
   20.5412   18.4037   23.9942 C   0  0  0  0  0  0  0  0  0  0  0  0
   20.2728   17.6157   24.7110 H   0  0  0  0  0  0  0  0  0  0  0  0
   21.2112   17.9261   23.2674 H   0  0  0  0  0  0  0  0  0  0  0  0
   19.2519   18.8721   23.2702 C   0  0  0  0  0  0  0  0  0  0  0  0
   18.7887   18.0060   22.7800 H   0  0  0  0  0  0  0  0  0  0  0  0
   18.5203   19.2065   24.0178 H   0  0  0  0  0  0  0  0  0  0  0  0
   19.4541   20.0024   22.2268 C   0  0  0  0  0  0  0  0  0  0  0  0
   19.7821   20.9154   22.7406 H   0  0  0  0  0  0  0  0  0  0  0  0
   18.4803   20.2458   21.7809 H   0  0  0  0  0  0  0  0  0  0  0  0
   20.4559   19.6778   21.0913 C   0  0  0  0  0  0  0  0  0  0  0  0
   20.5429   20.5576   20.4391 H   0  0  0  0  0  0  0  0  0  0  0  0
   21.4574   19.5078   21.5080 H   0  0  0  0  0  0  0  0  0  0  0  0
   20.0354   18.4639   20.2348 C   0  0  0  0  0  0  0  0  0  0  0  0
   20.0406   17.5389   20.8250 H   0  0  0  0  0  0  0  0  0  0  0  0
   19.0278   18.6042   19.8225 H   0  0  0  0  0  0  0  0  0  0  0  0
   20.7290   18.3271   19.3953 H   0  0  0  0  0  0  0  0  0  0  0  0
  1  2  1  0  0  0  0
  1  3  2  0  0  0  0
  1  4  1  0  0  0  0
  4  5  1  0  0  0  0
  4  6  1  0  0  0  0
  4  7  1  0  0  0  0
  7  8  1  0  0  0  0
  7  9  1  0  0  0  0
  7 10  1  0  0  0  0
 10 11  1  0  0  0  0
 10 12  1  0  0  0  0
 10 13  1  0  0  0  0
 13 14  1  0  0  0  0
 13 15  1  0  0  0  0
 13 16  1  0  0  0  0
 16 17  1  0  0  0  0
 16 18  1  0  0  0  0
 16 19  1  0  0  0  0
 19 20  1  0  0  0  0
 19 21  1  0  0  0  0
 19 22  1  0  0  0  0
 22 23  1  0  0  0  0
 22 24  1  0  0  0  0
 22 25  1  0  0  0  0
M  END
> <VM2 Rank>
144

> <Conf_Id>
224

> <Probability>
0.00

> <Sum Probability>
99.96

> <Delta G>
5.392

> <G>
-2.570

> <E>
-28.402

> <-TS>
25.832

> <U+W>
-48.970

> <U>
11.079

> <W>
-60.049

> <W(PB)>
-62.388

> <W(SA)>
2.339

> <Valence>
9.623

> <Coulomb>
0.950

> <VdW>
0.506

> <VdW6>
-12.338

> <VdW12>
12.844

> <Bond>
0.307

> <Angle>
3.790

> <Pdih>
5.524

> <Idih>
0.001

> <Tether>
0.000

$$$$
VeraChem MOL file


 25 24  0  0  0  0  0  0  0  0999 V2000     
   20.4845   19.3606   27.0978 C   0  0  0  0  0  0  0  0  0  0  0  0
   21.6095   19.8045   26.9779 O   0  5  0  0  0  0  0  0  0  0  0  0
   19.6449   19.8449   27.8311 O   0  0  0  0  0  0  0  0  0  0  0  0
   20.1095   18.1148   26.3000 C   0  0  0  0  0  0  0  0  0  0  0  0
   19.6032   17.4261   26.9864 H   0  0  0  0  0  0  0  0  0  0  0  0
   21.0310   17.6177   25.9736 H   0  0  0  0  0  0  0  0  0  0  0  0
   19.1936   18.3985   25.0811 C   0  0  0  0  0  0  0  0  0  0  0  0
   18.8657   17.4421   24.6518 H   0  0  0  0  0  0  0  0  0  0  0  0
   18.2878   18.9204   25.4199 H   0  0  0  0  0  0  0  0  0  0  0  0
   19.9001   19.2310   23.9877 C   0  0  0  0  0  0  0  0  0  0  0  0
   20.8151   18.7149   23.6739 H   0  0  0  0  0  0  0  0  0  0  0  0
   20.2135   20.1974   24.4060 H   0  0  0  0  0  0  0  0  0  0  0  0
   18.9763   19.4771   22.7716 C   0  0  0  0  0  0  0  0  0  0  0  0
   18.6100   18.5227   22.3695 H   0  0  0  0  0  0  0  0  0  0  0  0
   18.0893   20.0226   23.1215 H   0  0  0  0  0  0  0  0  0  0  0  0
   19.6492   20.3040   21.6465 C   0  0  0  0  0  0  0  0  0  0  0  0
   20.4079   20.9765   22.0696 H   0  0  0  0  0  0  0  0  0  0  0  0
   18.8870   20.9574   21.2005 H   0  0  0  0  0  0  0  0  0  0  0  0
   20.2651   19.4596   20.5034 C   0  0  0  0  0  0  0  0  0  0  0  0
   19.4801   18.8552   20.0282 H   0  0  0  0  0  0  0  0  0  0  0  0
   20.6386   20.1425   19.7280 H   0  0  0  0  0  0  0  0  0  0  0  0
   21.4202   18.5390   20.9491 C   0  0  0  0  0  0  0  0  0  0  0  0
   21.0565   17.7364   21.6027 H   0  0  0  0  0  0  0  0  0  0  0  0
   21.8929   18.0671   20.0781 H   0  0  0  0  0  0  0  0  0  0  0  0
   22.1908   19.1059   21.4874 H   0  0  0  0  0  0  0  0  0  0  0  0
  1  2  1  0  0  0  0
  1  3  2  0  0  0  0
  1  4  1  0  0  0  0
  4  5  1  0  0  0  0
  4  6  1  0  0  0  0
  4  7  1  0  0  0  0
  7  8  1  0  0  0  0
  7  9  1  0  0  0  0
  7 10  1  0  0  0  0
 10 11  1  0  0  0  0
 10 12  1  0  0  0  0
 10 13  1  0  0  0  0
 13 14  1  0  0  0  0
 13 15  1  0  0  0  0
 13 16  1  0  0  0  0
 16 17  1  0  0  0  0
 16 18  1  0  0  0  0
 16 19  1  0  0  0  0
 19 20  1  0  0  0  0
 19 21  1  0  0  0  0
 19 22  1  0  0  0  0
 22 23  1  0  0  0  0
 22 24  1  0  0  0  0
 22 25  1  0  0  0  0
M  END
> <VM2 Rank>
145

> <Conf_Id>
1230

> <Probability>
0.00

> <Sum Probability>
99.97

> <Delta G>
5.409

> <G>
-2.553

> <E>
-27.600

> <-TS>
25.047

> <U+W>
-48.168

> <U>
11.935

> <W>
-60.103

> <W(PB)>
-62.535

> <W(SA)>
2.432

> <Valence>
10.764

> <Coulomb>
0.351

> <VdW>
0.820

> <VdW6>
-10.096

> <VdW12>
10.916

> <Bond>
0.214

> <Angle>
3.143

> <Pdih>
7.406

> <Idih>
0.001

> <Tether>
0.000

$$$$
VeraChem MOL file


 25 24  0  0  0  0  0  0  0  0999 V2000     
   20.5399   19.0002   26.9320 C   0  0  0  0  0  0  0  0  0  0  0  0
   21.6100   18.4879   26.6685 O   0  5  0  0  0  0  0  0  0  0  0  0
   19.7057   18.4844   27.6499 O   0  0  0  0  0  0  0  0  0  0  0  0
   20.2334   20.3763   26.3478 C   0  0  0  0  0  0  0  0  0  0  0  0
   21.1747   20.8364   26.0238 H   0  0  0  0  0  0  0  0  0  0  0  0
   19.8395   20.9975   27.1608 H   0  0  0  0  0  0  0  0  0  0  0  0
   19.2182   20.3519   25.1757 C   0  0  0  0  0  0  0  0  0  0  0  0
   18.2899   19.8673   25.5086 H   0  0  0  0  0  0  0  0  0  0  0  0
   18.9576   21.3848   24.9078 H   0  0  0  0  0  0  0  0  0  0  0  0
   19.7700   19.6261   23.9280 C   0  0  0  0  0  0  0  0  0  0  0  0
   20.0086   18.5838   24.1804 H   0  0  0  0  0  0  0  0  0  0  0  0
   20.7069   20.1078   23.6201 H   0  0  0  0  0  0  0  0  0  0  0  0
   18.7625   19.6554   22.7573 C   0  0  0  0  0  0  0  0  0  0  0  0
   17.7910   19.2868   23.1141 H   0  0  0  0  0  0  0  0  0  0  0  0
   18.6005   20.6948   22.4410 H   0  0  0  0  0  0  0  0  0  0  0  0
   19.1838   18.8045   21.5327 C   0  0  0  0  0  0  0  0  0  0  0  0
   18.3704   18.8606   20.7964 H   0  0  0  0  0  0  0  0  0  0  0  0
   19.2563   17.7458   21.8167 H   0  0  0  0  0  0  0  0  0  0  0  0
   20.4917   19.2651   20.8417 C   0  0  0  0  0  0  0  0  0  0  0  0
   20.3873   19.1166   19.7581 H   0  0  0  0  0  0  0  0  0  0  0  0
   20.6411   20.3436   20.9891 H   0  0  0  0  0  0  0  0  0  0  0  0
   21.7379   18.4822   21.3125 C   0  0  0  0  0  0  0  0  0  0  0  0
   22.6344   18.8358   20.7872 H   0  0  0  0  0  0  0  0  0  0  0  0
   21.9123   18.5997   22.3881 H   0  0  0  0  0  0  0  0  0  0  0  0
   21.6272   17.4103   21.1032 H   0  0  0  0  0  0  0  0  0  0  0  0
  1  2  1  0  0  0  0
  1  3  2  0  0  0  0
  1  4  1  0  0  0  0
  4  5  1  0  0  0  0
  4  6  1  0  0  0  0
  4  7  1  0  0  0  0
  7  8  1  0  0  0  0
  7  9  1  0  0  0  0
  7 10  1  0  0  0  0
 10 11  1  0  0  0  0
 10 12  1  0  0  0  0
 10 13  1  0  0  0  0
 13 14  1  0  0  0  0
 13 15  1  0  0  0  0
 13 16  1  0  0  0  0
 16 17  1  0  0  0  0
 16 18  1  0  0  0  0
 16 19  1  0  0  0  0
 19 20  1  0  0  0  0
 19 21  1  0  0  0  0
 19 22  1  0  0  0  0
 22 23  1  0  0  0  0
 22 24  1  0  0  0  0
 22 25  1  0  0  0  0
M  END
> <VM2 Rank>
146

> <Conf_Id>
1338

> <Probability>
0.00

> <Sum Probability>
99.97

> <Delta G>
5.458

> <G>
-2.505

> <E>
-27.559

> <-TS>
25.054

> <U+W>
-48.126

> <U>
12.392

> <W>
-60.518

> <W(PB)>
-62.940

> <W(SA)>
2.423

> <Valence>
10.774

> <Coulomb>
0.821

> <VdW>
0.796

> <VdW6>
-10.157

> <VdW12>
10.953

> <Bond>
0.213

> <Angle>
3.162

> <Pdih>
7.399

> <Idih>
0.001

> <Tether>
0.000

$$$$
VeraChem MOL file


 25 24  0  0  0  0  0  0  0  0999 V2000     
   20.4127   18.7790   26.8461 C   0  0  0  0  0  0  0  0  0  0  0  0
   21.5829   18.9203   27.1427 O   0  5  0  0  0  0  0  0  0  0  0  0
   19.8620   17.6979   26.7765 O   0  0  0  0  0  0  0  0  0  0  0  0
   19.5853   20.0312   26.5692 C   0  0  0  0  0  0  0  0  0  0  0  0
   19.8021   20.7504   27.3677 H   0  0  0  0  0  0  0  0  0  0  0  0
   18.5224   19.7742   26.6530 H   0  0  0  0  0  0  0  0  0  0  0  0
   19.8714   20.6841   25.1919 C   0  0  0  0  0  0  0  0  0  0  0  0
   19.3416   21.6446   25.1354 H   0  0  0  0  0  0  0  0  0  0  0  0
   20.9441   20.9091   25.1120 H   0  0  0  0  0  0  0  0  0  0  0  0
   19.4357   19.7908   24.0088 C   0  0  0  0  0  0  0  0  0  0  0  0
   18.3654   19.5608   24.0999 H   0  0  0  0  0  0  0  0  0  0  0  0
   19.9665   18.8326   24.0595 H   0  0  0  0  0  0  0  0  0  0  0  0
   19.6994   20.4773   22.6479 C   0  0  0  0  0  0  0  0  0  0  0  0
   19.1232   21.4122   22.6189 H   0  0  0  0  0  0  0  0  0  0  0  0
   20.7560   20.7660   22.5640 H   0  0  0  0  0  0  0  0  0  0  0  0
   19.2881   19.6087   21.4319 C   0  0  0  0  0  0  0  0  0  0  0  0
   18.8863   20.2751   20.6565 H   0  0  0  0  0  0  0  0  0  0  0  0
   18.4627   18.9372   21.7052 H   0  0  0  0  0  0  0  0  0  0  0  0
   20.4446   18.7983   20.7959 C   0  0  0  0  0  0  0  0  0  0  0  0
   20.0618   18.2878   19.9014 H   0  0  0  0  0  0  0  0  0  0  0  0
   21.2268   19.4859   20.4458 H   0  0  0  0  0  0  0  0  0  0  0  0
   21.0709   17.7465   21.7350 C   0  0  0  0  0  0  0  0  0  0  0  0
   21.7929   17.1256   21.1892 H   0  0  0  0  0  0  0  0  0  0  0  0
   21.6073   18.2254   22.5638 H   0  0  0  0  0  0  0  0  0  0  0  0
   20.3021   17.0841   22.1537 H   0  0  0  0  0  0  0  0  0  0  0  0
  1  2  1  0  0  0  0
  1  3  2  0  0  0  0
  1  4  1  0  0  0  0
  4  5  1  0  0  0  0
  4  6  1  0  0  0  0
  4  7  1  0  0  0  0
  7  8  1  0  0  0  0
  7  9  1  0  0  0  0
  7 10  1  0  0  0  0
 10 11  1  0  0  0  0
 10 12  1  0  0  0  0
 10 13  1  0  0  0  0
 13 14  1  0  0  0  0
 13 15  1  0  0  0  0
 13 16  1  0  0  0  0
 16 17  1  0  0  0  0
 16 18  1  0  0  0  0
 16 19  1  0  0  0  0
 19 20  1  0  0  0  0
 19 21  1  0  0  0  0
 19 22  1  0  0  0  0
 22 23  1  0  0  0  0
 22 24  1  0  0  0  0
 22 25  1  0  0  0  0
M  END
> <VM2 Rank>
147

> <Conf_Id>
551

> <Probability>
0.00

> <Sum Probability>
99.97

> <Delta G>
5.486

> <G>
-2.477

> <E>
-27.537

> <-TS>
25.061

> <U+W>
-48.105

> <U>
12.641

> <W>
-60.746

> <W(PB)>
-63.149

> <W(SA)>
2.403

> <Valence>
10.756

> <Coulomb>
1.147

> <VdW>
0.738

> <VdW6>
-10.212

> <VdW12>
10.950

> <Bond>
0.214

> <Angle>
3.128

> <Pdih>
7.413

> <Idih>
0.001

> <Tether>
0.000

$$$$
VeraChem MOL file


 25 24  0  0  0  0  0  0  0  0999 V2000     
   19.7740   19.6962   26.8285 C   0  0  0  0  0  0  0  0  0  0  0  0
   20.5732   20.4495   27.3493 O   0  5  0  0  0  0  0  0  0  0  0  0
   18.6248   20.0024   26.5787 O   0  0  0  0  0  0  0  0  0  0  0  0
   20.2350   18.2809   26.4916 C   0  0  0  0  0  0  0  0  0  0  0  0
   19.3499   17.6482   26.3532 H   0  0  0  0  0  0  0  0  0  0  0  0
   20.7690   17.8929   27.3670 H   0  0  0  0  0  0  0  0  0  0  0  0
   21.1534   18.1964   25.2449 C   0  0  0  0  0  0  0  0  0  0  0  0
   22.0218   18.8546   25.3867 H   0  0  0  0  0  0  0  0  0  0  0  0
   21.5428   17.1730   25.1583 H   0  0  0  0  0  0  0  0  0  0  0  0
   20.4181   18.5751   23.9396 C   0  0  0  0  0  0  0  0  0  0  0  0
   20.0441   19.6037   24.0232 H   0  0  0  0  0  0  0  0  0  0  0  0
   19.5451   17.9220   23.8060 H   0  0  0  0  0  0  0  0  0  0  0  0
   21.3437   18.4621   22.7079 C   0  0  0  0  0  0  0  0  0  0  0  0
   22.1641   19.1868   22.8008 H   0  0  0  0  0  0  0  0  0  0  0  0
   21.8104   17.4676   22.7023 H   0  0  0  0  0  0  0  0  0  0  0  0
   20.6259   18.6680   21.3502 C   0  0  0  0  0  0  0  0  0  0  0  0
   19.8632   17.8906   21.2055 H   0  0  0  0  0  0  0  0  0  0  0  0
   21.3688   18.5080   20.5569 H   0  0  0  0  0  0  0  0  0  0  0  0
   20.0040   20.0729   21.1511 C   0  0  0  0  0  0  0  0  0  0  0  0
   20.5606   20.8216   21.7316 H   0  0  0  0  0  0  0  0  0  0  0  0
   20.1157   20.3596   20.0963 H   0  0  0  0  0  0  0  0  0  0  0  0
   18.5009   20.1305   21.5042 C   0  0  0  0  0  0  0  0  0  0  0  0
   18.3176   19.8770   22.5546 H   0  0  0  0  0  0  0  0  0  0  0  0
   18.1042   21.1390   21.3298 H   0  0  0  0  0  0  0  0  0  0  0  0
   17.9266   19.4319   20.8820 H   0  0  0  0  0  0  0  0  0  0  0  0
  1  2  1  0  0  0  0
  1  3  2  0  0  0  0
  1  4  1  0  0  0  0
  4  5  1  0  0  0  0
  4  6  1  0  0  0  0
  4  7  1  0  0  0  0
  7  8  1  0  0  0  0
  7  9  1  0  0  0  0
  7 10  1  0  0  0  0
 10 11  1  0  0  0  0
 10 12  1  0  0  0  0
 10 13  1  0  0  0  0
 13 14  1  0  0  0  0
 13 15  1  0  0  0  0
 13 16  1  0  0  0  0
 16 17  1  0  0  0  0
 16 18  1  0  0  0  0
 16 19  1  0  0  0  0
 19 20  1  0  0  0  0
 19 21  1  0  0  0  0
 19 22  1  0  0  0  0
 22 23  1  0  0  0  0
 22 24  1  0  0  0  0
 22 25  1  0  0  0  0
M  END
> <VM2 Rank>
148

> <Conf_Id>
1246

> <Probability>
0.00

> <Sum Probability>
99.97

> <Delta G>
5.493

> <G>
-2.469

> <E>
-27.528

> <-TS>
25.059

> <U+W>
-48.096

> <U>
12.669

> <W>
-60.765

> <W(PB)>
-63.199

> <W(SA)>
2.434

> <Valence>
10.772

> <Coulomb>
1.133

> <VdW>
0.765

> <VdW6>
-10.207

> <VdW12>
10.972

> <Bond>
0.213

> <Angle>
3.169

> <Pdih>
7.388

> <Idih>
0.001

> <Tether>
0.000

$$$$
VeraChem MOL file


 25 24  0  0  0  0  0  0  0  0999 V2000     
   19.9550   19.7954   26.8431 C   0  0  0  0  0  0  0  0  0  0  0  0
   20.8359   20.5789   27.1385 O   0  5  0  0  0  0  0  0  0  0  0  0
   18.7808   20.0996   26.7692 O   0  0  0  0  0  0  0  0  0  0  0  0
   20.3444   18.3445   26.5740 C   0  0  0  0  0  0  0  0  0  0  0  0
   19.4471   17.7196   26.6587 H   0  0  0  0  0  0  0  0  0  0  0  0
   21.0247   18.0337   27.3756 H   0  0  0  0  0  0  0  0  0  0  0  0
   21.0262   18.1192   25.1995 C   0  0  0  0  0  0  0  0  0  0  0  0
   21.9060   18.7727   25.1185 H   0  0  0  0  0  0  0  0  0  0  0  0
   21.3942   17.0855   25.1488 H   0  0  0  0  0  0  0  0  0  0  0  0
   20.0713   18.3795   24.0128 C   0  0  0  0  0  0  0  0  0  0  0  0
   19.7056   19.4123   24.0578 H   0  0  0  0  0  0  0  0  0  0  0  0
   19.1895   17.7310   24.1050 H   0  0  0  0  0  0  0  0  0  0  0  0
   20.7634   18.1153   22.6548 C   0  0  0  0  0  0  0  0  0  0  0  0
   21.6800   18.7148   22.5700 H   0  0  0  0  0  0  0  0  0  0  0  0
   21.0817   17.0641   22.6317 H   0  0  0  0  0  0  0  0  0  0  0  0
   19.8431   18.3770   21.4354 C   0  0  0  0  0  0  0  0  0  0  0  0
   18.7926   18.2050   21.7070 H   0  0  0  0  0  0  0  0  0  0  0  0
   20.0779   17.6308   20.6641 H   0  0  0  0  0  0  0  0  0  0  0  0
   20.0040   19.7771   20.7930 C   0  0  0  0  0  0  0  0  0  0  0  0
   21.0381   19.9057   20.4448 H   0  0  0  0  0  0  0  0  0  0  0  0
   19.3701   19.8243   19.8968 H   0  0  0  0  0  0  0  0  0  0  0  0
   19.6288   20.9476   21.7256 C   0  0  0  0  0  0  0  0  0  0  0  0
   20.3410   21.0362   22.5556 H   0  0  0  0  0  0  0  0  0  0  0  0
   19.6432   21.8971   21.1752 H   0  0  0  0  0  0  0  0  0  0  0  0
   18.6224   20.8125   22.1426 H   0  0  0  0  0  0  0  0  0  0  0  0
  1  2  1  0  0  0  0
  1  3  2  0  0  0  0
  1  4  1  0  0  0  0
  4  5  1  0  0  0  0
  4  6  1  0  0  0  0
  4  7  1  0  0  0  0
  7  8  1  0  0  0  0
  7  9  1  0  0  0  0
  7 10  1  0  0  0  0
 10 11  1  0  0  0  0
 10 12  1  0  0  0  0
 10 13  1  0  0  0  0
 13 14  1  0  0  0  0
 13 15  1  0  0  0  0
 13 16  1  0  0  0  0
 16 17  1  0  0  0  0
 16 18  1  0  0  0  0
 16 19  1  0  0  0  0
 19 20  1  0  0  0  0
 19 21  1  0  0  0  0
 19 22  1  0  0  0  0
 22 23  1  0  0  0  0
 22 24  1  0  0  0  0
 22 25  1  0  0  0  0
M  END
> <VM2 Rank>
149

> <Conf_Id>
249

> <Probability>
0.00

> <Sum Probability>
99.98

> <Delta G>
5.502

> <G>
-2.461

> <E>
-27.521

> <-TS>
25.061

> <U+W>
-48.089

> <U>
12.640

> <W>
-60.729

> <W(PB)>
-63.138

> <W(SA)>
2.409

> <Valence>
10.756

> <Coulomb>
1.146

> <VdW>
0.738

> <VdW6>
-10.212

> <VdW12>
10.950

> <Bond>
0.214

> <Angle>
3.129

> <Pdih>
7.412

> <Idih>
0.001

> <Tether>
0.000

$$$$
VeraChem MOL file


 25 24  0  0  0  0  0  0  0  0999 V2000     
   19.6765   18.9648   26.6979 C   0  0  0  0  0  0  0  0  0  0  0  0
   20.3176   18.0133   27.0990 O   0  5  0  0  0  0  0  0  0  0  0  0
   18.4711   18.9474   26.5437 O   0  0  0  0  0  0  0  0  0  0  0  0
   20.4215   20.2615   26.3930 C   0  0  0  0  0  0  0  0  0  0  0  0
   21.3997   20.2292   26.8878 H   0  0  0  0  0  0  0  0  0  0  0  0
   19.8577   21.0797   26.8562 H   0  0  0  0  0  0  0  0  0  0  0  0
   20.5948   20.5443   24.8784 C   0  0  0  0  0  0  0  0  0  0  0  0
   19.6083   20.5432   24.3990 H   0  0  0  0  0  0  0  0  0  0  0  0
   21.0015   21.5564   24.7500 H   0  0  0  0  0  0  0  0  0  0  0  0
   21.5391   19.5286   24.1901 C   0  0  0  0  0  0  0  0  0  0  0  0
   21.1901   18.5004   24.3586 H   0  0  0  0  0  0  0  0  0  0  0  0
   22.5246   19.5976   24.6706 H   0  0  0  0  0  0  0  0  0  0  0  0
   21.7109   19.7855   22.6715 C   0  0  0  0  0  0  0  0  0  0  0  0
   21.5693   20.8514   22.4465 H   0  0  0  0  0  0  0  0  0  0  0  0
   22.7514   19.5593   22.4016 H   0  0  0  0  0  0  0  0  0  0  0  0
   20.7961   18.9246   21.7643 C   0  0  0  0  0  0  0  0  0  0  0  0
   21.0200   17.8612   21.9256 H   0  0  0  0  0  0  0  0  0  0  0  0
   21.0506   19.1374   20.7170 H   0  0  0  0  0  0  0  0  0  0  0  0
   19.2850   19.1661   21.9724 C   0  0  0  0  0  0  0  0  0  0  0  0
   18.9910   18.8429   22.9801 H   0  0  0  0  0  0  0  0  0  0  0  0
   19.0665   20.2402   21.8983 H   0  0  0  0  0  0  0  0  0  0  0  0
   18.4404   18.3978   20.9358 C   0  0  0  0  0  0  0  0  0  0  0  0
   18.6214   17.3172   21.0058 H   0  0  0  0  0  0  0  0  0  0  0  0
   17.3698   18.5737   21.1030 H   0  0  0  0  0  0  0  0  0  0  0  0
   18.6813   18.7209   19.9146 H   0  0  0  0  0  0  0  0  0  0  0  0
  1  2  1  0  0  0  0
  1  3  2  0  0  0  0
  1  4  1  0  0  0  0
  4  5  1  0  0  0  0
  4  6  1  0  0  0  0
  4  7  1  0  0  0  0
  7  8  1  0  0  0  0
  7  9  1  0  0  0  0
  7 10  1  0  0  0  0
 10 11  1  0  0  0  0
 10 12  1  0  0  0  0
 10 13  1  0  0  0  0
 13 14  1  0  0  0  0
 13 15  1  0  0  0  0
 13 16  1  0  0  0  0
 16 17  1  0  0  0  0
 16 18  1  0  0  0  0
 16 19  1  0  0  0  0
 19 20  1  0  0  0  0
 19 21  1  0  0  0  0
 19 22  1  0  0  0  0
 22 23  1  0  0  0  0
 22 24  1  0  0  0  0
 22 25  1  0  0  0  0
M  END
> <VM2 Rank>
150

> <Conf_Id>
554

> <Probability>
0.00

> <Sum Probability>
99.98

> <Delta G>
5.581

> <G>
-2.381

> <E>
-27.507

> <-TS>
25.126

> <U+W>
-48.075

> <U>
12.689

> <W>
-60.763

> <W(PB)>
-63.197

> <W(SA)>
2.433

> <Valence>
10.791

> <Coulomb>
1.261

> <VdW>
0.637

> <VdW6>
-10.463

> <VdW12>
11.100

> <Bond>
0.216

> <Angle>
3.125

> <Pdih>
7.450

> <Idih>
0.001

> <Tether>
0.000

$$$$
VeraChem MOL file


 25 24  0  0  0  0  0  0  0  0999 V2000     
   19.9290   19.5216   27.1335 C   0  0  0  0  0  0  0  0  0  0  0  0
   20.7573   19.5098   28.0227 O   0  5  0  0  0  0  0  0  0  0  0  0
   18.8961   20.1598   27.1845 O   0  0  0  0  0  0  0  0  0  0  0  0
   20.2115   18.7070   25.8763 C   0  0  0  0  0  0  0  0  0  0  0  0
   19.2506   18.3516   25.4871 H   0  0  0  0  0  0  0  0  0  0  0  0
   20.7942   17.8244   26.1653 H   0  0  0  0  0  0  0  0  0  0  0  0
   20.9694   19.5182   24.7937 C   0  0  0  0  0  0  0  0  0  0  0  0
   20.3590   20.3760   24.4831 H   0  0  0  0  0  0  0  0  0  0  0  0
   21.8765   19.9441   25.2441 H   0  0  0  0  0  0  0  0  0  0  0  0
   21.3842   18.6776   23.5589 C   0  0  0  0  0  0  0  0  0  0  0  0
   22.1183   17.9269   23.8815 H   0  0  0  0  0  0  0  0  0  0  0  0
   21.9194   19.3281   22.8585 H   0  0  0  0  0  0  0  0  0  0  0  0
   20.2301   17.9410   22.8244 C   0  0  0  0  0  0  0  0  0  0  0  0
   20.6484   17.3447   22.0024 H   0  0  0  0  0  0  0  0  0  0  0  0
   19.7928   17.2093   23.5160 H   0  0  0  0  0  0  0  0  0  0  0  0
   19.0890   18.8391   22.2740 C   0  0  0  0  0  0  0  0  0  0  0  0
   18.8895   19.6813   22.9470 H   0  0  0  0  0  0  0  0  0  0  0  0
   18.1668   18.2423   22.2769 H   0  0  0  0  0  0  0  0  0  0  0  0
   19.2934   19.3532   20.8270 C   0  0  0  0  0  0  0  0  0  0  0  0
   19.4004   18.5006   20.1424 H   0  0  0  0  0  0  0  0  0  0  0  0
   18.3808   19.8811   20.5179 H   0  0  0  0  0  0  0  0  0  0  0  0
   20.4930   20.3066   20.6511 C   0  0  0  0  0  0  0  0  0  0  0  0
   21.4426   19.7636   20.7245 H   0  0  0  0  0  0  0  0  0  0  0  0
   20.4633   20.7811   19.6618 H   0  0  0  0  0  0  0  0  0  0  0  0
   20.4818   21.1006   21.4092 H   0  0  0  0  0  0  0  0  0  0  0  0
  1  2  1  0  0  0  0
  1  3  2  0  0  0  0
  1  4  1  0  0  0  0
  4  5  1  0  0  0  0
  4  6  1  0  0  0  0
  4  7  1  0  0  0  0
  7  8  1  0  0  0  0
  7  9  1  0  0  0  0
  7 10  1  0  0  0  0
 10 11  1  0  0  0  0
 10 12  1  0  0  0  0
 10 13  1  0  0  0  0
 13 14  1  0  0  0  0
 13 15  1  0  0  0  0
 13 16  1  0  0  0  0
 16 17  1  0  0  0  0
 16 18  1  0  0  0  0
 16 19  1  0  0  0  0
 19 20  1  0  0  0  0
 19 21  1  0  0  0  0
 19 22  1  0  0  0  0
 22 23  1  0  0  0  0
 22 24  1  0  0  0  0
 22 25  1  0  0  0  0
M  END
> <VM2 Rank>
151

> <Conf_Id>
1296

> <Probability>
0.00

> <Sum Probability>
99.98

> <Delta G>
5.642

> <G>
-2.320

> <E>
-26.924

> <-TS>
24.604

> <U+W>
-47.492

> <U>
12.173

> <W>
-59.665

> <W(PB)>
-62.043

> <W(SA)>
2.378

> <Valence>
11.759

> <Coulomb>
-0.600

> <VdW>
1.015

> <VdW6>
-10.890

> <VdW12>
11.905

> <Bond>
0.319

> <Angle>
4.233

> <Pdih>
7.206

> <Idih>
0.001

> <Tether>
0.000

$$$$
VeraChem MOL file


 25 24  0  0  0  0  0  0  0  0999 V2000     
   20.1424   18.8998   26.7865 C   0  0  0  0  0  0  0  0  0  0  0  0
   21.1975   18.3204   26.9551 O   0  5  0  0  0  0  0  0  0  0  0  0
   19.0572   18.3825   26.9665 O   0  0  0  0  0  0  0  0  0  0  0  0
   20.1862   20.3751   26.3928 C   0  0  0  0  0  0  0  0  0  0  0  0
   21.2328   20.6959   26.3261 H   0  0  0  0  0  0  0  0  0  0  0  0
   19.7412   20.9289   27.2275 H   0  0  0  0  0  0  0  0  0  0  0  0
   19.4269   20.7362   25.0849 C   0  0  0  0  0  0  0  0  0  0  0  0
   18.4571   20.2201   25.0589 H   0  0  0  0  0  0  0  0  0  0  0  0
   19.1961   21.8096   25.1140 H   0  0  0  0  0  0  0  0  0  0  0  0
   20.2107   20.4597   23.7777 C   0  0  0  0  0  0  0  0  0  0  0  0
   21.1791   20.9771   23.8099 H   0  0  0  0  0  0  0  0  0  0  0  0
   19.6462   20.9096   22.9513 H   0  0  0  0  0  0  0  0  0  0  0  0
   20.4325   18.9568   23.4815 C   0  0  0  0  0  0  0  0  0  0  0  0
   21.0407   18.5164   24.2806 H   0  0  0  0  0  0  0  0  0  0  0  0
   19.4715   18.4265   23.5020 H   0  0  0  0  0  0  0  0  0  0  0  0
   21.1598   18.6890   22.1390 C   0  0  0  0  0  0  0  0  0  0  0  0
   21.3413   17.6093   22.0499 H   0  0  0  0  0  0  0  0  0  0  0  0
   22.1515   19.1603   22.1720 H   0  0  0  0  0  0  0  0  0  0  0  0
   20.4188   19.1736   20.8678 C   0  0  0  0  0  0  0  0  0  0  0  0
   20.3322   20.2679   20.8716 H   0  0  0  0  0  0  0  0  0  0  0  0
   21.0309   18.9228   19.9906 H   0  0  0  0  0  0  0  0  0  0  0  0
   19.0211   18.5409   20.6943 C   0  0  0  0  0  0  0  0  0  0  0  0
   18.3371   18.8622   21.4899 H   0  0  0  0  0  0  0  0  0  0  0  0
   18.5797   18.8408   19.7351 H   0  0  0  0  0  0  0  0  0  0  0  0
   19.0809   17.4450   20.7120 H   0  0  0  0  0  0  0  0  0  0  0  0
  1  2  1  0  0  0  0
  1  3  2  0  0  0  0
  1  4  1  0  0  0  0
  4  5  1  0  0  0  0
  4  6  1  0  0  0  0
  4  7  1  0  0  0  0
  7  8  1  0  0  0  0
  7  9  1  0  0  0  0
  7 10  1  0  0  0  0
 10 11  1  0  0  0  0
 10 12  1  0  0  0  0
 10 13  1  0  0  0  0
 13 14  1  0  0  0  0
 13 15  1  0  0  0  0
 13 16  1  0  0  0  0
 16 17  1  0  0  0  0
 16 18  1  0  0  0  0
 16 19  1  0  0  0  0
 19 20  1  0  0  0  0
 19 21  1  0  0  0  0
 19 22  1  0  0  0  0
 22 23  1  0  0  0  0
 22 24  1  0  0  0  0
 22 25  1  0  0  0  0
M  END
> <VM2 Rank>
152

> <Conf_Id>
837

> <Probability>
0.00

> <Sum Probability>
99.98

> <Delta G>
5.677

> <G>
-2.286

> <E>
-27.600

> <-TS>
25.314

> <U+W>
-48.168

> <U>
12.473

> <W>
-60.640

> <W(PB)>
-63.031

> <W(SA)>
2.391

> <Valence>
10.551

> <Coulomb>
1.040

> <VdW>
0.881

> <VdW6>
-11.389

> <VdW12>
12.271

> <Bond>
0.286

> <Angle>
3.973

> <Pdih>
6.285

> <Idih>
0.006

> <Tether>
0.000

$$$$
VeraChem MOL file


 25 24  0  0  0  0  0  0  0  0999 V2000     
   20.3510   19.5487   27.1281 C   0  0  0  0  0  0  0  0  0  0  0  0
   21.2956   20.3126   27.1558 O   0  5  0  0  0  0  0  0  0  0  0  0
   19.5518   19.4334   28.0363 O   0  0  0  0  0  0  0  0  0  0  0  0
   20.1449   18.7028   25.8767 C   0  0  0  0  0  0  0  0  0  0  0  0
   19.6855   17.7539   26.1780 H   0  0  0  0  0  0  0  0  0  0  0  0
   21.1338   18.4712   25.4648 H   0  0  0  0  0  0  0  0  0  0  0  0
   19.2655   19.4097   24.8130 C   0  0  0  0  0  0  0  0  0  0  0  0
   18.3224   19.7180   25.2849 H   0  0  0  0  0  0  0  0  0  0  0  0
   19.7549   20.3373   24.4894 H   0  0  0  0  0  0  0  0  0  0  0  0
   18.9319   18.5212   23.5871 C   0  0  0  0  0  0  0  0  0  0  0  0
   18.3027   19.0975   22.9001 H   0  0  0  0  0  0  0  0  0  0  0  0
   18.3064   17.6842   23.9256 H   0  0  0  0  0  0  0  0  0  0  0  0
   20.1527   17.9354   22.8252 C   0  0  0  0  0  0  0  0  0  0  0  0
   20.6945   17.2656   23.5054 H   0  0  0  0  0  0  0  0  0  0  0  0
   19.7944   17.2900   22.0120 H   0  0  0  0  0  0  0  0  0  0  0  0
   21.1585   18.9696   22.2504 C   0  0  0  0  0  0  0  0  0  0  0  0
   22.1482   18.4937   22.2306 H   0  0  0  0  0  0  0  0  0  0  0  0
   21.2660   19.8307   22.9205 H   0  0  0  0  0  0  0  0  0  0  0  0
   20.8574   19.4528   20.8097 C   0  0  0  0  0  0  0  0  0  0  0  0
   21.6890   20.0910   20.4806 H   0  0  0  0  0  0  0  0  0  0  0  0
   20.8424   18.5930   20.1259 H   0  0  0  0  0  0  0  0  0  0  0  0
   19.5437   20.2478   20.6637 C   0  0  0  0  0  0  0  0  0  0  0  0
   19.4907   20.7218   19.6752 H   0  0  0  0  0  0  0  0  0  0  0  0
   18.6719   19.5896   20.7575 H   0  0  0  0  0  0  0  0  0  0  0  0
   19.4725   21.0371   21.4233 H   0  0  0  0  0  0  0  0  0  0  0  0
  1  2  1  0  0  0  0
  1  3  2  0  0  0  0
  1  4  1  0  0  0  0
  4  5  1  0  0  0  0
  4  6  1  0  0  0  0
  4  7  1  0  0  0  0
  7  8  1  0  0  0  0
  7  9  1  0  0  0  0
  7 10  1  0  0  0  0
 10 11  1  0  0  0  0
 10 12  1  0  0  0  0
 10 13  1  0  0  0  0
 13 14  1  0  0  0  0
 13 15  1  0  0  0  0
 13 16  1  0  0  0  0
 16 17  1  0  0  0  0
 16 18  1  0  0  0  0
 16 19  1  0  0  0  0
 19 20  1  0  0  0  0
 19 21  1  0  0  0  0
 19 22  1  0  0  0  0
 22 23  1  0  0  0  0
 22 24  1  0  0  0  0
 22 25  1  0  0  0  0
M  END
> <VM2 Rank>
153

> <Conf_Id>
1364

> <Probability>
0.00

> <Sum Probability>
99.98

> <Delta G>
5.686

> <G>
-2.277

> <E>
-26.879

> <-TS>
24.602

> <U+W>
-47.446

> <U>
12.175

> <W>
-59.621

> <W(PB)>
-62.021

> <W(SA)>
2.400

> <Valence>
11.759

> <Coulomb>
-0.598

> <VdW>
1.014

> <VdW6>
-10.892

> <VdW12>
11.906

> <Bond>
0.319

> <Angle>
4.235

> <Pdih>
7.204

> <Idih>
0.001

> <Tether>
0.000

$$$$
VeraChem MOL file


 25 24  0  0  0  0  0  0  0  0999 V2000     
   20.1363   19.6902   26.7729 C   0  0  0  0  0  0  0  0  0  0  0  0
   21.1823   20.2910   26.9218 O   0  5  0  0  0  0  0  0  0  0  0  0
   19.0433   20.1966   26.9358 O   0  0  0  0  0  0  0  0  0  0  0  0
   20.2027   18.2033   26.4293 C   0  0  0  0  0  0  0  0  0  0  0  0
   19.7661   17.6713   27.2823 H   0  0  0  0  0  0  0  0  0  0  0  0
   21.2541   17.8964   26.3732 H   0  0  0  0  0  0  0  0  0  0  0  0
   19.4493   17.7867   25.1346 C   0  0  0  0  0  0  0  0  0  0  0  0
   19.2348   16.7115   25.2000 H   0  0  0  0  0  0  0  0  0  0  0  0
   18.4718   18.2869   25.0914 H   0  0  0  0  0  0  0  0  0  0  0  0
   20.2292   18.0306   23.8185 C   0  0  0  0  0  0  0  0  0  0  0  0
   19.6714   17.5450   23.0079 H   0  0  0  0  0  0  0  0  0  0  0  0
   21.2050   17.5289   23.8677 H   0  0  0  0  0  0  0  0  0  0  0  0
   20.4290   19.5259   23.4720 C   0  0  0  0  0  0  0  0  0  0  0  0
   19.4604   20.0425   23.4754 H   0  0  0  0  0  0  0  0  0  0  0  0
   21.0309   20.0015   24.2555 H   0  0  0  0  0  0  0  0  0  0  0  0
   21.1521   19.7591   22.1208 C   0  0  0  0  0  0  0  0  0  0  0  0
   22.1504   19.3034   22.1687 H   0  0  0  0  0  0  0  0  0  0  0  0
   21.3181   20.8377   21.9956 H   0  0  0  0  0  0  0  0  0  0  0  0
   20.4177   19.2219   20.8670 C   0  0  0  0  0  0  0  0  0  0  0  0
   21.0260   19.4520   19.9815 H   0  0  0  0  0  0  0  0  0  0  0  0
   20.3467   18.1272   20.9074 H   0  0  0  0  0  0  0  0  0  0  0  0
   19.0111   19.8286   20.6735 C   0  0  0  0  0  0  0  0  0  0  0  0
   19.0553   20.9252   20.6548 H   0  0  0  0  0  0  0  0  0  0  0  0
   18.5739   19.4907   19.7251 H   0  0  0  0  0  0  0  0  0  0  0  0
   18.3319   19.5242   21.4798 H   0  0  0  0  0  0  0  0  0  0  0  0
  1  2  1  0  0  0  0
  1  3  2  0  0  0  0
  1  4  1  0  0  0  0
  4  5  1  0  0  0  0
  4  6  1  0  0  0  0
  4  7  1  0  0  0  0
  7  8  1  0  0  0  0
  7  9  1  0  0  0  0
  7 10  1  0  0  0  0
 10 11  1  0  0  0  0
 10 12  1  0  0  0  0
 10 13  1  0  0  0  0
 13 14  1  0  0  0  0
 13 15  1  0  0  0  0
 13 16  1  0  0  0  0
 16 17  1  0  0  0  0
 16 18  1  0  0  0  0
 16 19  1  0  0  0  0
 19 20  1  0  0  0  0
 19 21  1  0  0  0  0
 19 22  1  0  0  0  0
 22 23  1  0  0  0  0
 22 24  1  0  0  0  0
 22 25  1  0  0  0  0
M  END
> <VM2 Rank>
154

> <Conf_Id>
1353

> <Probability>
0.00

> <Sum Probability>
99.99

> <Delta G>
5.721

> <G>
-2.241

> <E>
-27.556

> <-TS>
25.314

> <U+W>
-48.123

> <U>
12.472

> <W>
-60.595

> <W(PB)>
-62.983

> <W(SA)>
2.387

> <Valence>
10.551

> <Coulomb>
1.040

> <VdW>
0.882

> <VdW6>
-11.390

> <VdW12>
12.271

> <Bond>
0.286

> <Angle>
3.973

> <Pdih>
6.285

> <Idih>
0.006

> <Tether>
0.000

$$$$
VeraChem MOL file


 25 24  0  0  0  0  0  0  0  0999 V2000     
   19.7346   19.6496   26.5338 C   0  0  0  0  0  0  0  0  0  0  0  0
   20.6294   20.2195   27.1274 O   0  5  0  0  0  0  0  0  0  0  0  0
   18.6789   20.1778   26.2447 O   0  0  0  0  0  0  0  0  0  0  0  0
   19.9165   18.1714   26.1945 C   0  0  0  0  0  0  0  0  0  0  0  0
   19.0050   17.8034   25.7081 H   0  0  0  0  0  0  0  0  0  0  0  0
   19.9971   17.6428   27.1513 H   0  0  0  0  0  0  0  0  0  0  0  0
   21.1617   17.8381   25.3254 C   0  0  0  0  0  0  0  0  0  0  0  0
   22.0411   18.3738   25.7089 H   0  0  0  0  0  0  0  0  0  0  0  0
   21.3830   16.7690   25.4458 H   0  0  0  0  0  0  0  0  0  0  0  0
   20.9874   18.1163   23.8118 C   0  0  0  0  0  0  0  0  0  0  0  0
   20.1076   17.5732   23.4422 H   0  0  0  0  0  0  0  0  0  0  0  0
   21.8551   17.6993   23.2828 H   0  0  0  0  0  0  0  0  0  0  0  0
   20.8653   19.6181   23.4588 C   0  0  0  0  0  0  0  0  0  0  0  0
   19.9210   20.0206   23.8447 H   0  0  0  0  0  0  0  0  0  0  0  0
   21.6653   20.1729   23.9676 H   0  0  0  0  0  0  0  0  0  0  0  0
   20.9610   19.9006   21.9382 C   0  0  0  0  0  0  0  0  0  0  0  0
   21.9519   19.5902   21.5802 H   0  0  0  0  0  0  0  0  0  0  0  0
   20.9069   20.9859   21.7774 H   0  0  0  0  0  0  0  0  0  0  0  0
   19.8787   19.2110   21.0709 C   0  0  0  0  0  0  0  0  0  0  0  0
   20.0612   19.4634   20.0174 H   0  0  0  0  0  0  0  0  0  0  0  0
   19.9751   18.1196   21.1428 H   0  0  0  0  0  0  0  0  0  0  0  0
   18.4397   19.6316   21.4406 C   0  0  0  0  0  0  0  0  0  0  0  0
   18.1748   19.2998   22.4526 H   0  0  0  0  0  0  0  0  0  0  0  0
   18.3254   20.7224   21.3952 H   0  0  0  0  0  0  0  0  0  0  0  0
   17.7177   19.1859   20.7443 H   0  0  0  0  0  0  0  0  0  0  0  0
  1  2  1  0  0  0  0
  1  3  2  0  0  0  0
  1  4  1  0  0  0  0
  4  5  1  0  0  0  0
  4  6  1  0  0  0  0
  4  7  1  0  0  0  0
  7  8  1  0  0  0  0
  7  9  1  0  0  0  0
  7 10  1  0  0  0  0
 10 11  1  0  0  0  0
 10 12  1  0  0  0  0
 10 13  1  0  0  0  0
 13 14  1  0  0  0  0
 13 15  1  0  0  0  0
 13 16  1  0  0  0  0
 16 17  1  0  0  0  0
 16 18  1  0  0  0  0
 16 19  1  0  0  0  0
 19 20  1  0  0  0  0
 19 21  1  0  0  0  0
 19 22  1  0  0  0  0
 22 23  1  0  0  0  0
 22 24  1  0  0  0  0
 22 25  1  0  0  0  0
M  END
> <VM2 Rank>
155

> <Conf_Id>
570

> <Probability>
0.00

> <Sum Probability>
99.99

> <Delta G>
5.805

> <G>
-2.158

> <E>
-27.601

> <-TS>
25.443

> <U+W>
-48.168

> <U>
12.721

> <W>
-60.889

> <W(PB)>
-63.243

> <W(SA)>
2.355

> <Valence>
10.325

> <Coulomb>
1.749

> <VdW>
0.646

> <VdW6>
-11.745

> <VdW12>
12.390

> <Bond>
0.275

> <Angle>
3.728

> <Pdih>
6.316

> <Idih>
0.007

> <Tether>
0.000

$$$$
VeraChem MOL file


 25 24  0  0  0  0  0  0  0  0999 V2000     
   19.6674   19.0480   26.5469 C   0  0  0  0  0  0  0  0  0  0  0  0
   20.4175   18.3207   27.1683 O   0  5  0  0  0  0  0  0  0  0  0  0
   18.5200   18.7535   26.2754 O   0  0  0  0  0  0  0  0  0  0  0  0
   20.1689   20.4339   26.1457 C   0  0  0  0  0  0  0  0  0  0  0  0
   20.3686   20.9721   27.0794 H   0  0  0  0  0  0  0  0  0  0  0  0
   19.3587   20.9726   25.6397 H   0  0  0  0  0  0  0  0  0  0  0  0
   21.4529   20.4472   25.2691 C   0  0  0  0  0  0  0  0  0  0  0  0
   21.9050   21.4454   25.3449 H   0  0  0  0  0  0  0  0  0  0  0  0
   22.1944   19.7477   25.6793 H   0  0  0  0  0  0  0  0  0  0  0  0
   21.2144   20.1500   23.7679 C   0  0  0  0  0  0  0  0  0  0  0  0
   22.1502   20.3425   23.2259 H   0  0  0  0  0  0  0  0  0  0  0  0
   20.4744   20.8575   23.3713 H   0  0  0  0  0  0  0  0  0  0  0  0
   20.7625   18.6985   23.4787 C   0  0  0  0  0  0  0  0  0  0  0  0
   21.4228   18.0032   24.0145 H   0  0  0  0  0  0  0  0  0  0  0  0
   19.7545   18.5310   23.8768 H   0  0  0  0  0  0  0  0  0  0  0  0
   20.7864   18.3373   21.9720 C   0  0  0  0  0  0  0  0  0  0  0  0
   20.4935   17.2848   21.8573 H   0  0  0  0  0  0  0  0  0  0  0  0
   21.8197   18.4059   21.6059 H   0  0  0  0  0  0  0  0  0  0  0  0
   19.8788   19.2109   21.0709 C   0  0  0  0  0  0  0  0  0  0  0  0
   20.2138   20.2563   21.0967 H   0  0  0  0  0  0  0  0  0  0  0  0
   19.9962   18.8798   20.0300 H   0  0  0  0  0  0  0  0  0  0  0  0
   18.3842   19.1341   21.4511 C   0  0  0  0  0  0  0  0  0  0  0  0
   17.7751   19.6980   20.7330 H   0  0  0  0  0  0  0  0  0  0  0  0
   18.0320   18.0944   21.4517 H   0  0  0  0  0  0  0  0  0  0  0  0
   18.2037   19.5590   22.4468 H   0  0  0  0  0  0  0  0  0  0  0  0
  1  2  1  0  0  0  0
  1  3  2  0  0  0  0
  1  4  1  0  0  0  0
  4  5  1  0  0  0  0
  4  6  1  0  0  0  0
  4  7  1  0  0  0  0
  7  8  1  0  0  0  0
  7  9  1  0  0  0  0
  7 10  1  0  0  0  0
 10 11  1  0  0  0  0
 10 12  1  0  0  0  0
 10 13  1  0  0  0  0
 13 14  1  0  0  0  0
 13 15  1  0  0  0  0
 13 16  1  0  0  0  0
 16 17  1  0  0  0  0
 16 18  1  0  0  0  0
 16 19  1  0  0  0  0
 19 20  1  0  0  0  0
 19 21  1  0  0  0  0
 19 22  1  0  0  0  0
 22 23  1  0  0  0  0
 22 24  1  0  0  0  0
 22 25  1  0  0  0  0
M  END
> <VM2 Rank>
156

> <Conf_Id>
1111

> <Probability>
0.00

> <Sum Probability>
99.99

> <Delta G>
5.811

> <G>
-2.151

> <E>
-27.594

> <-TS>
25.443

> <U+W>
-48.162

> <U>
12.721

> <W>
-60.883

> <W(PB)>
-63.248

> <W(SA)>
2.365

> <Valence>
10.325

> <Coulomb>
1.750

> <VdW>
0.646

> <VdW6>
-11.745

> <VdW12>
12.391

> <Bond>
0.275

> <Angle>
3.728

> <Pdih>
6.316

> <Idih>
0.007

> <Tether>
0.000

$$$$
VeraChem MOL file


 25 24  0  0  0  0  0  0  0  0999 V2000     
   19.8997   19.6228   26.9829 C   0  0  0  0  0  0  0  0  0  0  0  0
   20.7199   19.7576   27.8694 O   0  5  0  0  0  0  0  0  0  0  0  0
   18.8343   20.2069   26.9573 O   0  0  0  0  0  0  0  0  0  0  0  0
   20.2339   18.6826   25.8304 C   0  0  0  0  0  0  0  0  0  0  0  0
   19.2947   18.2443   25.4744 H   0  0  0  0  0  0  0  0  0  0  0  0
   20.8475   17.8641   26.2251 H   0  0  0  0  0  0  0  0  0  0  0  0
   20.9748   19.3961   24.6702 C   0  0  0  0  0  0  0  0  0  0  0  0
   20.3358   20.1910   24.2647 H   0  0  0  0  0  0  0  0  0  0  0  0
   21.8646   19.8976   25.0749 H   0  0  0  0  0  0  0  0  0  0  0  0
   21.4211   18.4359   23.5384 C   0  0  0  0  0  0  0  0  0  0  0  0
   22.1206   17.7002   23.9579 H   0  0  0  0  0  0  0  0  0  0  0  0
   21.9983   18.9954   22.7921 H   0  0  0  0  0  0  0  0  0  0  0  0
   20.2726   17.6728   22.8306 C   0  0  0  0  0  0  0  0  0  0  0  0
   20.7077   17.0204   22.0616 H   0  0  0  0  0  0  0  0  0  0  0  0
   19.7980   16.9953   23.5522 H   0  0  0  0  0  0  0  0  0  0  0  0
   19.1712   18.5487   22.1766 C   0  0  0  0  0  0  0  0  0  0  0  0
   18.6867   19.1893   22.9251 H   0  0  0  0  0  0  0  0  0  0  0  0
   18.3851   17.8669   21.8248 H   0  0  0  0  0  0  0  0  0  0  0  0
   19.6401   19.3889   20.9616 C   0  0  0  0  0  0  0  0  0  0  0  0
   20.4444   18.8671   20.4252 H   0  0  0  0  0  0  0  0  0  0  0  0
   18.8038   19.4688   20.2534 H   0  0  0  0  0  0  0  0  0  0  0  0
   20.0853   20.8217   21.3286 C   0  0  0  0  0  0  0  0  0  0  0  0
   20.3318   21.3896   20.4222 H   0  0  0  0  0  0  0  0  0  0  0  0
   19.2846   21.3584   21.8537 H   0  0  0  0  0  0  0  0  0  0  0  0
   20.9731   20.8219   21.9699 H   0  0  0  0  0  0  0  0  0  0  0  0
  1  2  1  0  0  0  0
  1  3  2  0  0  0  0
  1  4  1  0  0  0  0
  4  5  1  0  0  0  0
  4  6  1  0  0  0  0
  4  7  1  0  0  0  0
  7  8  1  0  0  0  0
  7  9  1  0  0  0  0
  7 10  1  0  0  0  0
 10 11  1  0  0  0  0
 10 12  1  0  0  0  0
 10 13  1  0  0  0  0
 13 14  1  0  0  0  0
 13 15  1  0  0  0  0
 13 16  1  0  0  0  0
 16 17  1  0  0  0  0
 16 18  1  0  0  0  0
 16 19  1  0  0  0  0
 19 20  1  0  0  0  0
 19 21  1  0  0  0  0
 19 22  1  0  0  0  0
 22 23  1  0  0  0  0
 22 24  1  0  0  0  0
 22 25  1  0  0  0  0
M  END
> <VM2 Rank>
157

> <Conf_Id>
840

> <Probability>
0.00

> <Sum Probability>
99.99

> <Delta G>
5.988

> <G>
-1.975

> <E>
-27.400

> <-TS>
25.426

> <U+W>
-47.968

> <U>
12.079

> <W>
-60.047

> <W(PB)>
-62.432

> <W(SA)>
2.386

> <Valence>
11.557

> <Coulomb>
-0.145

> <VdW>
0.667

> <VdW6>
-11.343

> <VdW12>
12.010

> <Bond>
0.285

> <Angle>
4.008

> <Pdih>
7.263

> <Idih>
0.001

> <Tether>
0.000

$$$$
VeraChem MOL file


 25 24  0  0  0  0  0  0  0  0999 V2000     
   19.9924   19.9588   26.1670 C   0  0  0  0  0  0  0  0  0  0  0  0
   20.9488   20.7089   26.1826 O   0  5  0  0  0  0  0  0  0  0  0  0
   18.8505   20.3303   25.9781 O   0  0  0  0  0  0  0  0  0  0  0  0
   20.2237   18.4895   26.5150 C   0  0  0  0  0  0  0  0  0  0  0  0
   19.6365   18.2918   27.4193 H   0  0  0  0  0  0  0  0  0  0  0  0
   21.2764   18.3483   26.7878 H   0  0  0  0  0  0  0  0  0  0  0  0
   19.8097   17.4744   25.4126 C   0  0  0  0  0  0  0  0  0  0  0  0
   19.6375   16.5039   25.8970 H   0  0  0  0  0  0  0  0  0  0  0  0
   18.8433   17.7627   24.9784 H   0  0  0  0  0  0  0  0  0  0  0  0
   20.8687   17.2575   24.3002 C   0  0  0  0  0  0  0  0  0  0  0  0
   20.5332   16.4345   23.6546 H   0  0  0  0  0  0  0  0  0  0  0  0
   21.8040   16.9137   24.7626 H   0  0  0  0  0  0  0  0  0  0  0  0
   21.1768   18.4864   23.4100 C   0  0  0  0  0  0  0  0  0  0  0  0
   21.5988   19.2962   24.0182 H   0  0  0  0  0  0  0  0  0  0  0  0
   21.9624   18.2051   22.6957 H   0  0  0  0  0  0  0  0  0  0  0  0
   19.9497   19.0027   22.6237 C   0  0  0  0  0  0  0  0  0  0  0  0
   19.1797   19.3553   23.3226 H   0  0  0  0  0  0  0  0  0  0  0  0
   19.5084   18.1784   22.0474 H   0  0  0  0  0  0  0  0  0  0  0  0
   20.3283   20.1557   21.6706 C   0  0  0  0  0  0  0  0  0  0  0  0
   20.7652   20.9820   22.2487 H   0  0  0  0  0  0  0  0  0  0  0  0
   21.0987   19.8164   20.9645 H   0  0  0  0  0  0  0  0  0  0  0  0
   19.1044   20.6699   20.8861 C   0  0  0  0  0  0  0  0  0  0  0  0
   18.3309   21.0450   21.5691 H   0  0  0  0  0  0  0  0  0  0  0  0
   19.3912   21.4900   20.2152 H   0  0  0  0  0  0  0  0  0  0  0  0
   18.6647   19.8701   20.2759 H   0  0  0  0  0  0  0  0  0  0  0  0
  1  2  1  0  0  0  0
  1  3  2  0  0  0  0
  1  4  1  0  0  0  0
  4  5  1  0  0  0  0
  4  6  1  0  0  0  0
  4  7  1  0  0  0  0
  7  8  1  0  0  0  0
  7  9  1  0  0  0  0
  7 10  1  0  0  0  0
 10 11  1  0  0  0  0
 10 12  1  0  0  0  0
 10 13  1  0  0  0  0
 13 14  1  0  0  0  0
 13 15  1  0  0  0  0
 13 16  1  0  0  0  0
 16 17  1  0  0  0  0
 16 18  1  0  0  0  0
 16 19  1  0  0  0  0
 19 20  1  0  0  0  0
 19 21  1  0  0  0  0
 19 22  1  0  0  0  0
 22 23  1  0  0  0  0
 22 24  1  0  0  0  0
 22 25  1  0  0  0  0
M  END
> <VM2 Rank>
158

> <Conf_Id>
1118

> <Probability>
0.00

> <Sum Probability>
99.99

> <Delta G>
6.001

> <G>
-1.961

> <E>
-27.678

> <-TS>
25.716

> <U+W>
-48.245

> <U>
13.046

> <W>
-61.291

> <W(PB)>
-63.664

> <W(SA)>
2.373

> <Valence>
10.098

> <Coulomb>
2.795

> <VdW>
0.153

> <VdW6>
-11.571

> <VdW12>
11.724

> <Bond>
0.240

> <Angle>
3.695

> <Pdih>
6.145

> <Idih>
0.017

> <Tether>
0.000

$$$$
VeraChem MOL file


 25 24  0  0  0  0  0  0  0  0999 V2000     
   20.7813   18.9335   26.1624 C   0  0  0  0  0  0  0  0  0  0  0  0
   21.7516   19.6656   26.1774 O   0  5  0  0  0  0  0  0  0  0  0  0
   20.8468   17.7356   25.9662 O   0  0  0  0  0  0  0  0  0  0  0  0
   19.4220   19.5317   26.5198 C   0  0  0  0  0  0  0  0  0  0  0  0
   19.5566   20.5839   26.7979 H   0  0  0  0  0  0  0  0  0  0  0  0
   19.0844   19.0098   27.4227 H   0  0  0  0  0  0  0  0  0  0  0  0
   18.3298   19.3979   25.4215 C   0  0  0  0  0  0  0  0  0  0  0  0
   18.3588   18.3923   24.9814 H   0  0  0  0  0  0  0  0  0  0  0  0
   17.3497   19.4773   25.9108 H   0  0  0  0  0  0  0  0  0  0  0  0
   18.3863   20.4834   24.3150 C   0  0  0  0  0  0  0  0  0  0  0  0
   18.2957   21.4729   24.7835 H   0  0  0  0  0  0  0  0  0  0  0  0
   17.5020   20.3735   23.6727 H   0  0  0  0  0  0  0  0  0  0  0  0
   19.6492   20.4715   23.4191 C   0  0  0  0  0  0  0  0  0  0  0  0
   19.5753   21.3070   22.7099 H   0  0  0  0  0  0  0  0  0  0  0  0
   20.5428   20.6685   24.0244 H   0  0  0  0  0  0  0  0  0  0  0  0
   19.8305   19.1576   22.6245 C   0  0  0  0  0  0  0  0  0  0  0  0
   18.9181   18.9455   22.0508 H   0  0  0  0  0  0  0  0  0  0  0  0
   19.9771   18.3190   23.3179 H   0  0  0  0  0  0  0  0  0  0  0  0
   21.0378   19.2337   21.6665 C   0  0  0  0  0  0  0  0  0  0  0  0
   20.9042   20.0694   20.9658 H   0  0  0  0  0  0  0  0  0  0  0  0
   21.9510   19.4409   22.2418 H   0  0  0  0  0  0  0  0  0  0  0  0
   21.2178   17.9235   20.8736 C   0  0  0  0  0  0  0  0  0  0  0  0
   21.3852   17.0757   21.5509 H   0  0  0  0  0  0  0  0  0  0  0  0
   20.3294   17.7069   20.2660 H   0  0  0  0  0  0  0  0  0  0  0  0
   22.0811   17.9945   20.1994 H   0  0  0  0  0  0  0  0  0  0  0  0
  1  2  1  0  0  0  0
  1  3  2  0  0  0  0
  1  4  1  0  0  0  0
  4  5  1  0  0  0  0
  4  6  1  0  0  0  0
  4  7  1  0  0  0  0
  7  8  1  0  0  0  0
  7  9  1  0  0  0  0
  7 10  1  0  0  0  0
 10 11  1  0  0  0  0
 10 12  1  0  0  0  0
 10 13  1  0  0  0  0
 13 14  1  0  0  0  0
 13 15  1  0  0  0  0
 13 16  1  0  0  0  0
 16 17  1  0  0  0  0
 16 18  1  0  0  0  0
 16 19  1  0  0  0  0
 19 20  1  0  0  0  0
 19 21  1  0  0  0  0
 19 22  1  0  0  0  0
 22 23  1  0  0  0  0
 22 24  1  0  0  0  0
 22 25  1  0  0  0  0
M  END
> <VM2 Rank>
159

> <Conf_Id>
1325

> <Probability>
0.00

> <Sum Probability>
99.99

> <Delta G>
6.028

> <G>
-1.934

> <E>
-27.651

> <-TS>
25.716

> <U+W>
-48.218

> <U>
13.047

> <W>
-61.265

> <W(PB)>
-63.654

> <W(SA)>
2.389

> <Valence>
10.098

> <Coulomb>
2.796

> <VdW>
0.153

> <VdW6>
-11.571

> <VdW12>
11.724

> <Bond>
0.240

> <Angle>
3.695

> <Pdih>
6.146

> <Idih>
0.018

> <Tether>
0.000

$$$$
VeraChem MOL file


 25 24  0  0  0  0  0  0  0  0999 V2000     
   19.5969   19.6346   26.4361 C   0  0  0  0  0  0  0  0  0  0  0  0
   20.1595   20.0127   27.4454 O   0  5  0  0  0  0  0  0  0  0  0  0
   18.7630   20.2938   25.8476 O   0  0  0  0  0  0  0  0  0  0  0  0
   19.9181   18.2362   25.9126 C   0  0  0  0  0  0  0  0  0  0  0  0
   19.2679   18.0132   25.0598 H   0  0  0  0  0  0  0  0  0  0  0  0
   19.6425   17.5289   26.7032 H   0  0  0  0  0  0  0  0  0  0  0  0
   21.4082   18.0209   25.5343 C   0  0  0  0  0  0  0  0  0  0  0  0
   22.0240   18.2108   26.4244 H   0  0  0  0  0  0  0  0  0  0  0  0
   21.5651   16.9646   25.2778 H   0  0  0  0  0  0  0  0  0  0  0  0
   21.9280   18.9088   24.3748 C   0  0  0  0  0  0  0  0  0  0  0  0
   23.0134   18.7541   24.3051 H   0  0  0  0  0  0  0  0  0  0  0  0
   21.7954   19.9721   24.6176 H   0  0  0  0  0  0  0  0  0  0  0  0
   21.3114   18.5852   22.9899 C   0  0  0  0  0  0  0  0  0  0  0  0
   22.0995   18.6766   22.2299 H   0  0  0  0  0  0  0  0  0  0  0  0
   20.9777   17.5391   22.9587 H   0  0  0  0  0  0  0  0  0  0  0  0
   20.1524   19.5296   22.5948 C   0  0  0  0  0  0  0  0  0  0  0  0
   20.5110   20.5679   22.5948 H   0  0  0  0  0  0  0  0  0  0  0  0
   19.3476   19.4770   23.3374 H   0  0  0  0  0  0  0  0  0  0  0  0
   19.5836   19.1830   21.2026 C   0  0  0  0  0  0  0  0  0  0  0  0
   20.3815   19.2448   20.4498 H   0  0  0  0  0  0  0  0  0  0  0  0
   19.2208   18.1458   21.1994 H   0  0  0  0  0  0  0  0  0  0  0  0
   18.4320   20.1294   20.8078 C   0  0  0  0  0  0  0  0  0  0  0  0
   18.7754   21.1715   20.7715 H   0  0  0  0  0  0  0  0  0  0  0  0
   18.0375   19.8673   19.8175 H   0  0  0  0  0  0  0  0  0  0  0  0
   17.6071   20.0657   21.5296 H   0  0  0  0  0  0  0  0  0  0  0  0
  1  2  1  0  0  0  0
  1  3  2  0  0  0  0
  1  4  1  0  0  0  0
  4  5  1  0  0  0  0
  4  6  1  0  0  0  0
  4  7  1  0  0  0  0
  7  8  1  0  0  0  0
  7  9  1  0  0  0  0
  7 10  1  0  0  0  0
 10 11  1  0  0  0  0
 10 12  1  0  0  0  0
 10 13  1  0  0  0  0
 13 14  1  0  0  0  0
 13 15  1  0  0  0  0
 13 16  1  0  0  0  0
 16 17  1  0  0  0  0
 16 18  1  0  0  0  0
 16 19  1  0  0  0  0
 19 20  1  0  0  0  0
 19 21  1  0  0  0  0
 19 22  1  0  0  0  0
 22 23  1  0  0  0  0
 22 24  1  0  0  0  0
 22 25  1  0  0  0  0
M  END
> <VM2 Rank>
160

> <Conf_Id>
744

> <Probability>
0.00

> <Sum Probability>
99.99

> <Delta G>
6.077

> <G>
-1.886

> <E>
-27.013

> <-TS>
25.127

> <U+W>
-47.580

> <U>
13.358

> <W>
-60.938

> <W(PB)>
-63.303

> <W(SA)>
2.365

> <Valence>
11.157

> <Coulomb>
1.807

> <VdW>
0.394

> <VdW6>
-10.846

> <VdW12>
11.240

> <Bond>
0.228

> <Angle>
3.384

> <Pdih>
7.541

> <Idih>
0.004

> <Tether>
0.000

$$$$
VeraChem MOL file


 25 24  0  0  0  0  0  0  0  0999 V2000     
   19.5292   19.4316   26.6733 C   0  0  0  0  0  0  0  0  0  0  0  0
   19.9348   19.2344   27.8018 O   0  5  0  0  0  0  0  0  0  0  0  0
   18.6415   20.2167   26.4045 O   0  0  0  0  0  0  0  0  0  0  0  0
   20.1864   18.6679   25.5295 C   0  0  0  0  0  0  0  0  0  0  0  0
   19.4155   18.4662   24.7779 H   0  0  0  0  0  0  0  0  0  0  0  0
   20.5236   17.6985   25.9150 H   0  0  0  0  0  0  0  0  0  0  0  0
   21.3784   19.4372   24.9026 C   0  0  0  0  0  0  0  0  0  0  0  0
   21.0412   20.4106   24.5246 H   0  0  0  0  0  0  0  0  0  0  0  0
   22.1062   19.6589   25.6951 H   0  0  0  0  0  0  0  0  0  0  0  0
   22.0976   18.6507   23.7803 C   0  0  0  0  0  0  0  0  0  0  0  0
   22.4955   17.7190   24.2051 H   0  0  0  0  0  0  0  0  0  0  0  0
   22.9728   19.2273   23.4516 H   0  0  0  0  0  0  0  0  0  0  0  0
   21.2358   18.2988   22.5389 C   0  0  0  0  0  0  0  0  0  0  0  0
   21.8644   17.6930   21.8723 H   0  0  0  0  0  0  0  0  0  0  0  0
   20.4039   17.6438   22.8220 H   0  0  0  0  0  0  0  0  0  0  0  0
   20.7356   19.5240   21.7266 C   0  0  0  0  0  0  0  0  0  0  0  0
   20.7388   19.2621   20.6598 H   0  0  0  0  0  0  0  0  0  0  0  0
   21.4548   20.3477   21.8303 H   0  0  0  0  0  0  0  0  0  0  0  0
   19.3171   20.0306   22.0906 C   0  0  0  0  0  0  0  0  0  0  0  0
   19.2468   20.2596   23.1605 H   0  0  0  0  0  0  0  0  0  0  0  0
   19.1422   20.9794   21.5654 H   0  0  0  0  0  0  0  0  0  0  0  0
   18.1968   19.0421   21.6978 C   0  0  0  0  0  0  0  0  0  0  0  0
   18.2618   18.1093   22.2707 H   0  0  0  0  0  0  0  0  0  0  0  0
   17.2113   19.4834   21.8950 H   0  0  0  0  0  0  0  0  0  0  0  0
   18.2477   18.7943   20.6297 H   0  0  0  0  0  0  0  0  0  0  0  0
  1  2  1  0  0  0  0
  1  3  2  0  0  0  0
  1  4  1  0  0  0  0
  4  5  1  0  0  0  0
  4  6  1  0  0  0  0
  4  7  1  0  0  0  0
  7  8  1  0  0  0  0
  7  9  1  0  0  0  0
  7 10  1  0  0  0  0
 10 11  1  0  0  0  0
 10 12  1  0  0  0  0
 10 13  1  0  0  0  0
 13 14  1  0  0  0  0
 13 15  1  0  0  0  0
 13 16  1  0  0  0  0
 16 17  1  0  0  0  0
 16 18  1  0  0  0  0
 16 19  1  0  0  0  0
 19 20  1  0  0  0  0
 19 21  1  0  0  0  0
 19 22  1  0  0  0  0
 22 23  1  0  0  0  0
 22 24  1  0  0  0  0
 22 25  1  0  0  0  0
M  END
> <VM2 Rank>
161

> <Conf_Id>
977

> <Probability>
0.00

> <Sum Probability>
99.99

> <Delta G>
6.256

> <G>
-1.707

> <E>
-27.165

> <-TS>
25.459

> <U+W>
-47.733

> <U>
12.724

> <W>
-60.457

> <W(PB)>
-62.797

> <W(SA)>
2.340

> <Valence>
11.802

> <Coulomb>
0.382

> <VdW>
0.540

> <VdW6>
-11.531

> <VdW12>
12.070

> <Bond>
0.296

> <Angle>
3.953

> <Pdih>
7.552

> <Idih>
0.001

> <Tether>
0.000

$$$$
VeraChem MOL file


 25 24  0  0  0  0  0  0  0  0999 V2000     
   19.7397   19.6564   26.8712 C   0  0  0  0  0  0  0  0  0  0  0  0
   19.9698   19.0421   27.8943 O   0  5  0  0  0  0  0  0  0  0  0  0
   18.7450   20.3336   26.7019 O   0  0  0  0  0  0  0  0  0  0  0  0
   20.7465   19.5572   25.7308 C   0  0  0  0  0  0  0  0  0  0  0  0
   21.7475   19.4662   26.1689 H   0  0  0  0  0  0  0  0  0  0  0  0
   20.7185   20.5036   25.1802 H   0  0  0  0  0  0  0  0  0  0  0  0
   20.4646   18.3594   24.7861 C   0  0  0  0  0  0  0  0  0  0  0  0
   20.4361   17.4418   25.3896 H   0  0  0  0  0  0  0  0  0  0  0  0
   19.4648   18.4667   24.3504 H   0  0  0  0  0  0  0  0  0  0  0  0
   21.5323   18.1830   23.6762 C   0  0  0  0  0  0  0  0  0  0  0  0
   21.3926   17.2093   23.1875 H   0  0  0  0  0  0  0  0  0  0  0  0
   22.5183   18.1328   24.1579 H   0  0  0  0  0  0  0  0  0  0  0  0
   21.5636   19.2994   22.5974 C   0  0  0  0  0  0  0  0  0  0  0  0
   21.2787   20.2700   23.0191 H   0  0  0  0  0  0  0  0  0  0  0  0
   22.6070   19.4204   22.2763 H   0  0  0  0  0  0  0  0  0  0  0  0
   20.7295   18.9973   21.3243 C   0  0  0  0  0  0  0  0  0  0  0  0
   21.0890   18.0599   20.8788 H   0  0  0  0  0  0  0  0  0  0  0  0
   20.9339   19.7794   20.5805 H   0  0  0  0  0  0  0  0  0  0  0  0
   19.1984   18.8981   21.5230 C   0  0  0  0  0  0  0  0  0  0  0  0
   18.7382   18.6441   20.5583 H   0  0  0  0  0  0  0  0  0  0  0  0
   18.9578   18.0667   22.1973 H   0  0  0  0  0  0  0  0  0  0  0  0
   18.5636   20.2074   22.0410 C   0  0  0  0  0  0  0  0  0  0  0  0
   18.7941   21.0463   21.3718 H   0  0  0  0  0  0  0  0  0  0  0  0
   17.4719   20.1091   22.0971 H   0  0  0  0  0  0  0  0  0  0  0  0
   18.9264   20.4604   23.0450 H   0  0  0  0  0  0  0  0  0  0  0  0
  1  2  1  0  0  0  0
  1  3  2  0  0  0  0
  1  4  1  0  0  0  0
  4  5  1  0  0  0  0
  4  6  1  0  0  0  0
  4  7  1  0  0  0  0
  7  8  1  0  0  0  0
  7  9  1  0  0  0  0
  7 10  1  0  0  0  0
 10 11  1  0  0  0  0
 10 12  1  0  0  0  0
 10 13  1  0  0  0  0
 13 14  1  0  0  0  0
 13 15  1  0  0  0  0
 13 16  1  0  0  0  0
 16 17  1  0  0  0  0
 16 18  1  0  0  0  0
 16 19  1  0  0  0  0
 19 20  1  0  0  0  0
 19 21  1  0  0  0  0
 19 22  1  0  0  0  0
 22 23  1  0  0  0  0
 22 24  1  0  0  0  0
 22 25  1  0  0  0  0
M  END
> <VM2 Rank>
162

> <Conf_Id>
137

> <Probability>
0.00

> <Sum Probability>
99.99

> <Delta G>
6.278

> <G>
-1.685

> <E>
-27.070

> <-TS>
25.385

> <U+W>
-47.637

> <U>
12.577

> <W>
-60.214

> <W(PB)>
-62.543

> <W(SA)>
2.329

> <Valence>
11.827

> <Coulomb>
0.089

> <VdW>
0.661

> <VdW6>
-11.301

> <VdW12>
11.961

> <Bond>
0.300

> <Angle>
3.988

> <Pdih>
7.539

> <Idih>
0.000

> <Tether>
0.000

$$$$
VeraChem MOL file


 25 24  0  0  0  0  0  0  0  0999 V2000     
   20.3747   19.4409   27.0510 C   0  0  0  0  0  0  0  0  0  0  0  0
   21.3014   20.2222   27.1401 O   0  5  0  0  0  0  0  0  0  0  0  0
   19.3196   19.5789   27.6384 O   0  0  0  0  0  0  0  0  0  0  0  0
   20.5559   18.2083   26.1697 C   0  0  0  0  0  0  0  0  0  0  0  0
   19.8205   17.4521   26.4700 H   0  0  0  0  0  0  0  0  0  0  0  0
   21.5463   17.7916   26.3873 H   0  0  0  0  0  0  0  0  0  0  0  0
   20.4381   18.4981   24.6509 C   0  0  0  0  0  0  0  0  0  0  0  0
   21.1688   19.2717   24.3803 H   0  0  0  0  0  0  0  0  0  0  0  0
   20.7061   17.5917   24.0916 H   0  0  0  0  0  0  0  0  0  0  0  0
   19.0171   18.9500   24.2421 C   0  0  0  0  0  0  0  0  0  0  0  0
   18.7836   19.9102   24.7225 H   0  0  0  0  0  0  0  0  0  0  0  0
   18.2871   18.2272   24.6315 H   0  0  0  0  0  0  0  0  0  0  0  0
   18.8085   19.0775   22.7122 C   0  0  0  0  0  0  0  0  0  0  0  0
   18.9474   18.0992   22.2358 H   0  0  0  0  0  0  0  0  0  0  0  0
   17.7559   19.3426   22.5437 H   0  0  0  0  0  0  0  0  0  0  0  0
   19.6911   20.1564   22.0297 C   0  0  0  0  0  0  0  0  0  0  0  0
   19.9343   20.9425   22.7576 H   0  0  0  0  0  0  0  0  0  0  0  0
   19.1034   20.6518   21.2449 H   0  0  0  0  0  0  0  0  0  0  0  0
   20.9972   19.6198   21.3928 C   0  0  0  0  0  0  0  0  0  0  0  0
   21.6349   20.4746   21.1290 H   0  0  0  0  0  0  0  0  0  0  0  0
   21.5654   19.0251   22.1183 H   0  0  0  0  0  0  0  0  0  0  0  0
   20.7496   18.7818   20.1190 C   0  0  0  0  0  0  0  0  0  0  0  0
   20.1899   19.3592   19.3718 H   0  0  0  0  0  0  0  0  0  0  0  0
   21.7034   18.4811   19.6666 H   0  0  0  0  0  0  0  0  0  0  0  0
   20.1840   17.8684   20.3398 H   0  0  0  0  0  0  0  0  0  0  0  0
  1  2  1  0  0  0  0
  1  3  2  0  0  0  0
  1  4  1  0  0  0  0
  4  5  1  0  0  0  0
  4  6  1  0  0  0  0
  4  7  1  0  0  0  0
  7  8  1  0  0  0  0
  7  9  1  0  0  0  0
  7 10  1  0  0  0  0
 10 11  1  0  0  0  0
 10 12  1  0  0  0  0
 10 13  1  0  0  0  0
 13 14  1  0  0  0  0
 13 15  1  0  0  0  0
 13 16  1  0  0  0  0
 16 17  1  0  0  0  0
 16 18  1  0  0  0  0
 16 19  1  0  0  0  0
 19 20  1  0  0  0  0
 19 21  1  0  0  0  0
 19 22  1  0  0  0  0
 22 23  1  0  0  0  0
 22 24  1  0  0  0  0
 22 25  1  0  0  0  0
M  END
> <VM2 Rank>
163

> <Conf_Id>
707

> <Probability>
0.00

> <Sum Probability>
99.99

> <Delta G>
6.290

> <G>
-1.672

> <E>
-26.816

> <-TS>
25.143

> <U+W>
-47.383

> <U>
12.751

> <W>
-60.134

> <W(PB)>
-62.534

> <W(SA)>
2.401

> <Valence>
11.503

> <Coulomb>
0.344

> <VdW>
0.904

> <VdW6>
-10.720

> <VdW12>
11.623

> <Bond>
0.257

> <Angle>
3.380

> <Pdih>
7.866

> <Idih>
0.001

> <Tether>
0.000

$$$$
VeraChem MOL file


 25 24  0  0  0  0  0  0  0  0999 V2000     
   19.9172   19.4121   27.0562 C   0  0  0  0  0  0  0  0  0  0  0  0
   20.9595   19.6840   27.6190 O   0  5  0  0  0  0  0  0  0  0  0  0
   18.9011   20.0695   27.1677 O   0  0  0  0  0  0  0  0  0  0  0  0
   19.8736   18.1649   26.1779 C   0  0  0  0  0  0  0  0  0  0  0  0
   18.9493   17.6263   26.4177 H   0  0  0  0  0  0  0  0  0  0  0  0
   20.7057   17.5086   26.4603 H   0  0  0  0  0  0  0  0  0  0  0  0
   19.9187   18.4646   24.6571 C   0  0  0  0  0  0  0  0  0  0  0  0
   19.7548   17.5306   24.1030 H   0  0  0  0  0  0  0  0  0  0  0  0
   19.0899   19.1390   24.4044 H   0  0  0  0  0  0  0  0  0  0  0  0
   21.2613   19.0921   24.2162 C   0  0  0  0  0  0  0  0  0  0  0  0
   22.0856   18.4679   24.5874 H   0  0  0  0  0  0  0  0  0  0  0  0
   21.3825   20.0747   24.6925 H   0  0  0  0  0  0  0  0  0  0  0  0
   21.4165   19.2427   22.6821 C   0  0  0  0  0  0  0  0  0  0  0  0
   22.4230   19.6385   22.4896 H   0  0  0  0  0  0  0  0  0  0  0  0
   21.3912   18.2541   22.2075 H   0  0  0  0  0  0  0  0  0  0  0  0
   20.3891   20.2006   22.0220 C   0  0  0  0  0  0  0  0  0  0  0  0
   20.8911   20.7655   21.2247 H   0  0  0  0  0  0  0  0  0  0  0  0
   20.0651   20.9504   22.7567 H   0  0  0  0  0  0  0  0  0  0  0  0
   19.1470   19.5023   21.4143 C   0  0  0  0  0  0  0  0  0  0  0  0
   18.6757   18.8411   22.1516 H   0  0  0  0  0  0  0  0  0  0  0  0
   18.4002   20.2692   21.1670 H   0  0  0  0  0  0  0  0  0  0  0  0
   19.4692   18.7012   20.1334 C   0  0  0  0  0  0  0  0  0  0  0  0
   20.1510   17.8672   20.3392 H   0  0  0  0  0  0  0  0  0  0  0  0
   18.5510   18.2815   19.7027 H   0  0  0  0  0  0  0  0  0  0  0  0
   19.9337   19.3443   19.3746 H   0  0  0  0  0  0  0  0  0  0  0  0
  1  2  1  0  0  0  0
  1  3  2  0  0  0  0
  1  4  1  0  0  0  0
  4  5  1  0  0  0  0
  4  6  1  0  0  0  0
  4  7  1  0  0  0  0
  7  8  1  0  0  0  0
  7  9  1  0  0  0  0
  7 10  1  0  0  0  0
 10 11  1  0  0  0  0
 10 12  1  0  0  0  0
 10 13  1  0  0  0  0
 13 14  1  0  0  0  0
 13 15  1  0  0  0  0
 13 16  1  0  0  0  0
 16 17  1  0  0  0  0
 16 18  1  0  0  0  0
 16 19  1  0  0  0  0
 19 20  1  0  0  0  0
 19 21  1  0  0  0  0
 19 22  1  0  0  0  0
 22 23  1  0  0  0  0
 22 24  1  0  0  0  0
 22 25  1  0  0  0  0
M  END
> <VM2 Rank>
164

> <Conf_Id>
422

> <Probability>
0.00

> <Sum Probability>
99.99

> <Delta G>
6.311

> <G>
-1.652

> <E>
-26.796

> <-TS>
25.144

> <U+W>
-47.364

> <U>
12.751

> <W>
-60.114

> <W(PB)>
-62.501

> <W(SA)>
2.387

> <Valence>
11.503

> <Coulomb>
0.344

> <VdW>
0.904

> <VdW6>
-10.719

> <VdW12>
11.623

> <Bond>
0.257

> <Angle>
3.378

> <Pdih>
7.868

> <Idih>
0.001

> <Tether>
0.000

$$$$
VeraChem MOL file


 25 24  0  0  0  0  0  0  0  0999 V2000     
   20.5158   19.7054   26.8623 C   0  0  0  0  0  0  0  0  0  0  0  0
   21.4130   20.5024   26.6713 O   0  5  0  0  0  0  0  0  0  0  0  0
   20.3886   19.0683   27.8894 O   0  0  0  0  0  0  0  0  0  0  0  0
   19.5035   19.4786   25.7452 C   0  0  0  0  0  0  0  0  0  0  0  0
   19.3994   20.4202   25.1956 H   0  0  0  0  0  0  0  0  0  0  0  0
   18.5324   19.2628   26.2062 H   0  0  0  0  0  0  0  0  0  0  0  0
   19.9122   18.3246   24.7924 C   0  0  0  0  0  0  0  0  0  0  0  0
   20.8803   18.5564   24.3340 H   0  0  0  0  0  0  0  0  0  0  0  0
   20.0700   17.4187   25.3937 H   0  0  0  0  0  0  0  0  0  0  0  0
   18.8500   18.0135   23.7072 C   0  0  0  0  0  0  0  0  0  0  0  0
   17.8895   17.8402   24.2113 H   0  0  0  0  0  0  0  0  0  0  0  0
   19.0999   17.0644   23.2140 H   0  0  0  0  0  0  0  0  0  0  0  0
   18.6535   19.1156   22.6310 C   0  0  0  0  0  0  0  0  0  0  0  0
   17.5960   19.1038   22.3342 H   0  0  0  0  0  0  0  0  0  0  0  0
   18.8237   20.1149   23.0475 H   0  0  0  0  0  0  0  0  0  0  0  0
   19.4895   18.9191   21.3386 C   0  0  0  0  0  0  0  0  0  0  0  0
   19.1711   19.6682   20.6009 H   0  0  0  0  0  0  0  0  0  0  0  0
   19.2405   17.9432   20.9001 H   0  0  0  0  0  0  0  0  0  0  0  0
   21.0250   19.0135   21.5018 C   0  0  0  0  0  0  0  0  0  0  0  0
   21.3837   18.2200   22.1692 H   0  0  0  0  0  0  0  0  0  0  0  0
   21.4911   18.8180   20.5264 H   0  0  0  0  0  0  0  0  0  0  0  0
   21.5018   20.3931   22.0069 C   0  0  0  0  0  0  0  0  0  0  0  0
   21.1333   20.5999   23.0194 H   0  0  0  0  0  0  0  0  0  0  0  0
   22.5982   20.4330   22.0377 H   0  0  0  0  0  0  0  0  0  0  0  0
   21.1523   21.1953   21.3444 H   0  0  0  0  0  0  0  0  0  0  0  0
  1  2  1  0  0  0  0
  1  3  2  0  0  0  0
  1  4  1  0  0  0  0
  4  5  1  0  0  0  0
  4  6  1  0  0  0  0
  4  7  1  0  0  0  0
  7  8  1  0  0  0  0
  7  9  1  0  0  0  0
  7 10  1  0  0  0  0
 10 11  1  0  0  0  0
 10 12  1  0  0  0  0
 10 13  1  0  0  0  0
 13 14  1  0  0  0  0
 13 15  1  0  0  0  0
 13 16  1  0  0  0  0
 16 17  1  0  0  0  0
 16 18  1  0  0  0  0
 16 19  1  0  0  0  0
 19 20  1  0  0  0  0
 19 21  1  0  0  0  0
 19 22  1  0  0  0  0
 22 23  1  0  0  0  0
 22 24  1  0  0  0  0
 22 25  1  0  0  0  0
M  END
> <VM2 Rank>
165

> <Conf_Id>
701

> <Probability>
0.00

> <Sum Probability>
99.99

> <Delta G>
6.324

> <G>
-1.638

> <E>
-27.023

> <-TS>
25.385

> <U+W>
-47.591

> <U>
12.576

> <W>
-60.167

> <W(PB)>
-62.530

> <W(SA)>
2.363

> <Valence>
11.827

> <Coulomb>
0.088

> <VdW>
0.661

> <VdW6>
-11.300

> <VdW12>
11.961

> <Bond>
0.300

> <Angle>
3.988

> <Pdih>
7.540

> <Idih>
0.000

> <Tether>
0.000

$$$$
VeraChem MOL file


 25 24  0  0  0  0  0  0  0  0999 V2000     
   20.7481   19.5094   26.6593 C   0  0  0  0  0  0  0  0  0  0  0  0
   21.5227   20.4003   26.3713 O   0  5  0  0  0  0  0  0  0  0  0  0
   20.3966   19.2643   27.7966 O   0  0  0  0  0  0  0  0  0  0  0  0
   20.1671   18.6667   25.5299 C   0  0  0  0  0  0  0  0  0  0  0  0
   19.9647   17.6629   25.9217 H   0  0  0  0  0  0  0  0  0  0  0  0
   20.9400   18.5633   24.7605 H   0  0  0  0  0  0  0  0  0  0  0  0
   18.8730   19.2772   24.9316 C   0  0  0  0  0  0  0  0  0  0  0  0
   18.1412   19.4059   25.7409 H   0  0  0  0  0  0  0  0  0  0  0  0
   19.0750   20.2850   24.5473 H   0  0  0  0  0  0  0  0  0  0  0  0
   18.2339   18.4040   23.8251 C   0  0  0  0  0  0  0  0  0  0  0  0
   17.2851   18.8641   23.5175 H   0  0  0  0  0  0  0  0  0  0  0  0
   17.9677   17.4299   24.2576 H   0  0  0  0  0  0  0  0  0  0  0  0
   19.1046   18.1628   22.5636 C   0  0  0  0  0  0  0  0  0  0  0  0
   20.0194   17.6194   22.8264 H   0  0  0  0  0  0  0  0  0  0  0  0
   18.5430   17.4810   21.9107 H   0  0  0  0  0  0  0  0  0  0  0  0
   19.4261   19.4406   21.7419 C   0  0  0  0  0  0  0  0  0  0  0  0
   18.6106   20.1663   21.8637 H   0  0  0  0  0  0  0  0  0  0  0  0
   19.4312   19.1789   20.6750 H   0  0  0  0  0  0  0  0  0  0  0  0
   20.7768   20.1236   22.0736 C   0  0  0  0  0  0  0  0  0  0  0  0
   20.8173   21.0865   21.5462 H   0  0  0  0  0  0  0  0  0  0  0  0
   20.8424   20.3610   23.1420 H   0  0  0  0  0  0  0  0  0  0  0  0
   22.0041   19.2852   21.6529 C   0  0  0  0  0  0  0  0  0  0  0  0
   21.9601   19.0317   20.5858 H   0  0  0  0  0  0  0  0  0  0  0  0
   22.9299   19.8483   21.8279 H   0  0  0  0  0  0  0  0  0  0  0  0
   22.0715   18.3522   22.2253 H   0  0  0  0  0  0  0  0  0  0  0  0
  1  2  1  0  0  0  0
  1  3  2  0  0  0  0
  1  4  1  0  0  0  0
  4  5  1  0  0  0  0
  4  6  1  0  0  0  0
  4  7  1  0  0  0  0
  7  8  1  0  0  0  0
  7  9  1  0  0  0  0
  7 10  1  0  0  0  0
 10 11  1  0  0  0  0
 10 12  1  0  0  0  0
 10 13  1  0  0  0  0
 13 14  1  0  0  0  0
 13 15  1  0  0  0  0
 13 16  1  0  0  0  0
 16 17  1  0  0  0  0
 16 18  1  0  0  0  0
 16 19  1  0  0  0  0
 19 20  1  0  0  0  0
 19 21  1  0  0  0  0
 19 22  1  0  0  0  0
 22 23  1  0  0  0  0
 22 24  1  0  0  0  0
 22 25  1  0  0  0  0
M  END
> <VM2 Rank>
166

> <Conf_Id>
976

> <Probability>
0.00

> <Sum Probability>
100.00

> <Delta G>
6.332

> <G>
-1.631

> <E>
-27.088

> <-TS>
25.457

> <U+W>
-47.656

> <U>
12.724

> <W>
-60.379

> <W(PB)>
-62.750

> <W(SA)>
2.371

> <Valence>
11.803

> <Coulomb>
0.381

> <VdW>
0.540

> <VdW6>
-11.529

> <VdW12>
12.069

> <Bond>
0.296

> <Angle>
3.952

> <Pdih>
7.554

> <Idih>
0.001

> <Tether>
0.000

$$$$
VeraChem MOL file


 25 24  0  0  0  0  0  0  0  0999 V2000     
   19.8750   19.2343   27.1492 C   0  0  0  0  0  0  0  0  0  0  0  0
   20.7307   19.7225   27.8610 O   0  5  0  0  0  0  0  0  0  0  0  0
   18.6961   19.5207   27.2217 O   0  0  0  0  0  0  0  0  0  0  0  0
   20.3040   18.1899   26.1224 C   0  0  0  0  0  0  0  0  0  0  0  0
   19.4210   17.6154   25.8172 H   0  0  0  0  0  0  0  0  0  0  0  0
   20.9783   17.4900   26.6296 H   0  0  0  0  0  0  0  0  0  0  0  0
   21.0137   18.7822   24.8770 C   0  0  0  0  0  0  0  0  0  0  0  0
   21.8754   19.3818   25.2015 H   0  0  0  0  0  0  0  0  0  0  0  0
   21.4142   17.9553   24.2775 H   0  0  0  0  0  0  0  0  0  0  0  0
   20.0676   19.6502   24.0119 C   0  0  0  0  0  0  0  0  0  0  0  0
   19.6721   20.4678   24.6298 H   0  0  0  0  0  0  0  0  0  0  0  0
   19.2012   19.0541   23.7013 H   0  0  0  0  0  0  0  0  0  0  0  0
   20.7682   20.2700   22.7764 C   0  0  0  0  0  0  0  0  0  0  0  0
   20.1470   21.0812   22.3731 H   0  0  0  0  0  0  0  0  0  0  0  0
   21.6986   20.7488   23.1109 H   0  0  0  0  0  0  0  0  0  0  0  0
   21.0988   19.2635   21.6420 C   0  0  0  0  0  0  0  0  0  0  0  0
   21.2683   18.2581   22.0465 H   0  0  0  0  0  0  0  0  0  0  0  0
   22.0518   19.5652   21.1866 H   0  0  0  0  0  0  0  0  0  0  0  0
   20.0419   19.2002   20.5116 C   0  0  0  0  0  0  0  0  0  0  0  0
   19.9371   20.1911   20.0486 H   0  0  0  0  0  0  0  0  0  0  0  0
   20.4133   18.5307   19.7237 H   0  0  0  0  0  0  0  0  0  0  0  0
   18.6569   18.7004   20.9728 C   0  0  0  0  0  0  0  0  0  0  0  0
   17.9911   18.5641   20.1109 H   0  0  0  0  0  0  0  0  0  0  0  0
   18.7393   17.7375   21.4934 H   0  0  0  0  0  0  0  0  0  0  0  0
   18.1806   19.4220   21.6480 H   0  0  0  0  0  0  0  0  0  0  0  0
  1  2  1  0  0  0  0
  1  3  2  0  0  0  0
  1  4  1  0  0  0  0
  4  5  1  0  0  0  0
  4  6  1  0  0  0  0
  4  7  1  0  0  0  0
  7  8  1  0  0  0  0
  7  9  1  0  0  0  0
  7 10  1  0  0  0  0
 10 11  1  0  0  0  0
 10 12  1  0  0  0  0
 10 13  1  0  0  0  0
 13 14  1  0  0  0  0
 13 15  1  0  0  0  0
 13 16  1  0  0  0  0
 16 17  1  0  0  0  0
 16 18  1  0  0  0  0
 16 19  1  0  0  0  0
 19 20  1  0  0  0  0
 19 21  1  0  0  0  0
 19 22  1  0  0  0  0
 22 23  1  0  0  0  0
 22 24  1  0  0  0  0
 22 25  1  0  0  0  0
M  END
> <VM2 Rank>
167

> <Conf_Id>
384

> <Probability>
0.00

> <Sum Probability>
100.00

> <Delta G>
6.389

> <G>
-1.574

> <E>
-26.710

> <-TS>
25.136

> <U+W>
-47.278

> <U>
12.718

> <W>
-59.995

> <W(PB)>
-62.409

> <W(SA)>
2.414

> <Valence>
11.548

> <Coulomb>
0.194

> <VdW>
0.975

> <VdW6>
-10.625

> <VdW12>
11.600

> <Bond>
0.265

> <Angle>
3.381

> <Pdih>
7.902

> <Idih>
0.000

> <Tether>
0.000

$$$$
VeraChem MOL file


 25 24  0  0  0  0  0  0  0  0999 V2000     
   19.8667   19.2982   27.1482 C   0  0  0  0  0  0  0  0  0  0  0  0
   20.8148   19.0635   27.8714 O   0  5  0  0  0  0  0  0  0  0  0  0
   18.7976   18.7265   27.2341 O   0  0  0  0  0  0  0  0  0  0  0  0
   20.0232   20.3841   26.0873 C   0  0  0  0  0  0  0  0  0  0  0  0
   20.4974   21.2469   26.5697 H   0  0  0  0  0  0  0  0  0  0  0  0
   19.0253   20.7079   25.7676 H   0  0  0  0  0  0  0  0  0  0  0  0
   20.8643   19.9508   24.8584 C   0  0  0  0  0  0  0  0  0  0  0  0
   21.0461   20.8326   24.2317 H   0  0  0  0  0  0  0  0  0  0  0  0
   21.8479   19.5981   25.1983 H   0  0  0  0  0  0  0  0  0  0  0  0
   20.1710   18.8456   24.0249 C   0  0  0  0  0  0  0  0  0  0  0  0
   19.1836   19.1941   23.6992 H   0  0  0  0  0  0  0  0  0  0  0  0
   19.9918   17.9745   24.6698 H   0  0  0  0  0  0  0  0  0  0  0  0
   21.0101   18.3839   22.8066 C   0  0  0  0  0  0  0  0  0  0  0  0
   22.0299   18.1661   23.1521 H   0  0  0  0  0  0  0  0  0  0  0  0
   20.6151   17.4301   22.4316 H   0  0  0  0  0  0  0  0  0  0  0  0
   21.0805   19.4051   21.6397 C   0  0  0  0  0  0  0  0  0  0  0  0
   22.0806   19.3395   21.1902 H   0  0  0  0  0  0  0  0  0  0  0  0
   20.9892   20.4329   22.0117 H   0  0  0  0  0  0  0  0  0  0  0  0
   20.0464   19.1640   20.5123 C   0  0  0  0  0  0  0  0  0  0  0  0
   20.2400   19.8804   19.7021 H   0  0  0  0  0  0  0  0  0  0  0  0
   20.1968   18.1646   20.0811 H   0  0  0  0  0  0  0  0  0  0  0  0
   18.5783   19.3124   20.9631 C   0  0  0  0  0  0  0  0  0  0  0  0
   18.4129   20.2809   21.4527 H   0  0  0  0  0  0  0  0  0  0  0  0
   17.9031   19.2490   20.1001 H   0  0  0  0  0  0  0  0  0  0  0  0
   18.2968   18.5157   21.6628 H   0  0  0  0  0  0  0  0  0  0  0  0
  1  2  1  0  0  0  0
  1  3  2  0  0  0  0
  1  4  1  0  0  0  0
  4  5  1  0  0  0  0
  4  6  1  0  0  0  0
  4  7  1  0  0  0  0
  7  8  1  0  0  0  0
  7  9  1  0  0  0  0
  7 10  1  0  0  0  0
 10 11  1  0  0  0  0
 10 12  1  0  0  0  0
 10 13  1  0  0  0  0
 13 14  1  0  0  0  0
 13 15  1  0  0  0  0
 13 16  1  0  0  0  0
 16 17  1  0  0  0  0
 16 18  1  0  0  0  0
 16 19  1  0  0  0  0
 19 20  1  0  0  0  0
 19 21  1  0  0  0  0
 19 22  1  0  0  0  0
 22 23  1  0  0  0  0
 22 24  1  0  0  0  0
 22 25  1  0  0  0  0
M  END
> <VM2 Rank>
168

> <Conf_Id>
366

> <Probability>
0.00

> <Sum Probability>
100.00

> <Delta G>
6.405

> <G>
-1.557

> <E>
-26.694

> <-TS>
25.137

> <U+W>
-47.262

> <U>
12.718

> <W>
-59.980

> <W(PB)>
-62.377

> <W(SA)>
2.397

> <Valence>
11.548

> <Coulomb>
0.195

> <VdW>
0.975

> <VdW6>
-10.625

> <VdW12>
11.600

> <Bond>
0.265

> <Angle>
3.380

> <Pdih>
7.902

> <Idih>
0.001

> <Tether>
0.000

$$$$
VeraChem MOL file


 25 24  0  0  0  0  0  0  0  0999 V2000     
   20.2903   19.8122   26.3970 C   0  0  0  0  0  0  0  0  0  0  0  0
   21.2927   20.4531   26.1478 O   0  5  0  0  0  0  0  0  0  0  0  0
   19.2508   20.3138   26.7784 O   0  0  0  0  0  0  0  0  0  0  0  0
   20.3751   18.2887   26.3332 C   0  0  0  0  0  0  0  0  0  0  0  0
   19.4510   17.8627   26.7419 H   0  0  0  0  0  0  0  0  0  0  0  0
   21.1826   17.9964   27.0145 H   0  0  0  0  0  0  0  0  0  0  0  0
   20.6655   17.6989   24.9244 C   0  0  0  0  0  0  0  0  0  0  0  0
   21.4581   18.2756   24.4294 H   0  0  0  0  0  0  0  0  0  0  0  0
   21.0757   16.6894   25.0615 H   0  0  0  0  0  0  0  0  0  0  0  0
   19.4220   17.5752   24.0058 C   0  0  0  0  0  0  0  0  0  0  0  0
   18.6584   16.9770   24.5212 H   0  0  0  0  0  0  0  0  0  0  0  0
   19.6984   16.9935   23.1168 H   0  0  0  0  0  0  0  0  0  0  0  0
   18.7810   18.9125   23.5526 C   0  0  0  0  0  0  0  0  0  0  0  0
   17.9213   18.6857   22.9078 H   0  0  0  0  0  0  0  0  0  0  0  0
   18.3644   19.4311   24.4253 H   0  0  0  0  0  0  0  0  0  0  0  0
   19.7267   19.8787   22.7955 C   0  0  0  0  0  0  0  0  0  0  0  0
   20.5461   20.1952   23.4541 H   0  0  0  0  0  0  0  0  0  0  0  0
   19.1651   20.7908   22.5525 H   0  0  0  0  0  0  0  0  0  0  0  0
   20.3047   19.2821   21.4924 C   0  0  0  0  0  0  0  0  0  0  0  0
   20.9348   18.4133   21.7242 H   0  0  0  0  0  0  0  0  0  0  0  0
   19.4858   18.9242   20.8534 H   0  0  0  0  0  0  0  0  0  0  0  0
   21.1442   20.3187   20.7188 C   0  0  0  0  0  0  0  0  0  0  0  0
   21.9863   20.6734   21.3275 H   0  0  0  0  0  0  0  0  0  0  0  0
   21.5517   19.8784   19.7996 H   0  0  0  0  0  0  0  0  0  0  0  0
   20.5346   21.1873   20.4375 H   0  0  0  0  0  0  0  0  0  0  0  0
  1  2  1  0  0  0  0
  1  3  2  0  0  0  0
  1  4  1  0  0  0  0
  4  5  1  0  0  0  0
  4  6  1  0  0  0  0
  4  7  1  0  0  0  0
  7  8  1  0  0  0  0
  7  9  1  0  0  0  0
  7 10  1  0  0  0  0
 10 11  1  0  0  0  0
 10 12  1  0  0  0  0
 10 13  1  0  0  0  0
 13 14  1  0  0  0  0
 13 15  1  0  0  0  0
 13 16  1  0  0  0  0
 16 17  1  0  0  0  0
 16 18  1  0  0  0  0
 16 19  1  0  0  0  0
 19 20  1  0  0  0  0
 19 21  1  0  0  0  0
 19 22  1  0  0  0  0
 22 23  1  0  0  0  0
 22 24  1  0  0  0  0
 22 25  1  0  0  0  0
M  END
> <VM2 Rank>
169

> <Conf_Id>
1368

> <Probability>
0.00

> <Sum Probability>
100.00

> <Delta G>
6.407

> <G>
-1.555

> <E>
-27.544

> <-TS>
25.989

> <U+W>
-48.112

> <U>
13.027

> <W>
-61.139

> <W(PB)>
-63.503

> <W(SA)>
2.364

> <Valence>
10.559

> <Coulomb>
2.239

> <VdW>
0.229

> <VdW6>
-12.344

> <VdW12>
12.573

> <Bond>
0.282

> <Angle>
4.052

> <Pdih>
6.209

> <Idih>
0.016

> <Tether>
0.000

$$$$
VeraChem MOL file


 25 24  0  0  0  0  0  0  0  0999 V2000     
   19.9387   19.7897   26.4013 C   0  0  0  0  0  0  0  0  0  0  0  0
   20.9147   20.4192   26.7599 O   0  5  0  0  0  0  0  0  0  0  0  0
   18.8579   20.2983   26.1758 O   0  0  0  0  0  0  0  0  0  0  0  0
   20.0461   18.2676   26.3371 C   0  0  0  0  0  0  0  0  0  0  0  0
   19.2978   17.8763   27.0360 H   0  0  0  0  0  0  0  0  0  0  0  0
   21.0258   17.9626   26.7240 H   0  0  0  0  0  0  0  0  0  0  0  0
   19.8009   17.6440   24.9343 C   0  0  0  0  0  0  0  0  0  0  0  0
   19.5254   16.5907   25.0791 H   0  0  0  0  0  0  0  0  0  0  0  0
   18.9303   18.1146   24.4584 H   0  0  0  0  0  0  0  0  0  0  0  0
   21.0288   17.6780   23.9874 C   0  0  0  0  0  0  0  0  0  0  0  0
   20.8083   17.0644   23.1041 H   0  0  0  0  0  0  0  0  0  0  0  0
   21.8737   17.1825   24.4843 H   0  0  0  0  0  0  0  0  0  0  0  0
   21.4840   19.0852   23.5215 C   0  0  0  0  0  0  0  0  0  0  0  0
   21.8510   19.6540   24.3851 H   0  0  0  0  0  0  0  0  0  0  0  0
   22.3506   18.9685   22.8569 H   0  0  0  0  0  0  0  0  0  0  0  0
   20.4060   19.9222   22.7874 C   0  0  0  0  0  0  0  0  0  0  0  0
   20.8414   20.8979   22.5328 H   0  0  0  0  0  0  0  0  0  0  0  0
   19.5683   20.1330   23.4650 H   0  0  0  0  0  0  0  0  0  0  0  0
   19.8790   19.2548   21.4971 C   0  0  0  0  0  0  0  0  0  0  0  0
   20.7219   19.0029   20.8391 H   0  0  0  0  0  0  0  0  0  0  0  0
   19.3699   18.3133   21.7421 H   0  0  0  0  0  0  0  0  0  0  0  0
   18.8970   20.1750   20.7443 C   0  0  0  0  0  0  0  0  0  0  0  0
   19.3847   21.1136   20.4501 H   0  0  0  0  0  0  0  0  0  0  0  0
   18.5279   19.6850   19.8340 H   0  0  0  0  0  0  0  0  0  0  0  0
   18.0308   20.4208   21.3725 H   0  0  0  0  0  0  0  0  0  0  0  0
  1  2  1  0  0  0  0
  1  3  2  0  0  0  0
  1  4  1  0  0  0  0
  4  5  1  0  0  0  0
  4  6  1  0  0  0  0
  4  7  1  0  0  0  0
  7  8  1  0  0  0  0
  7  9  1  0  0  0  0
  7 10  1  0  0  0  0
 10 11  1  0  0  0  0
 10 12  1  0  0  0  0
 10 13  1  0  0  0  0
 13 14  1  0  0  0  0
 13 15  1  0  0  0  0
 13 16  1  0  0  0  0
 16 17  1  0  0  0  0
 16 18  1  0  0  0  0
 16 19  1  0  0  0  0
 19 20  1  0  0  0  0
 19 21  1  0  0  0  0
 19 22  1  0  0  0  0
 22 23  1  0  0  0  0
 22 24  1  0  0  0  0
 22 25  1  0  0  0  0
M  END
> <VM2 Rank>
170

> <Conf_Id>
1358

> <Probability>
0.00

> <Sum Probability>
100.00

> <Delta G>
6.415

> <G>
-1.547

> <E>
-27.537

> <-TS>
25.990

> <U+W>
-48.104

> <U>
13.027

> <W>
-61.131

> <W(PB)>
-63.487

> <W(SA)>
2.355

> <Valence>
10.559

> <Coulomb>
2.239

> <VdW>
0.229

> <VdW6>
-12.344

> <VdW12>
12.572

> <Bond>
0.282

> <Angle>
4.052

> <Pdih>
6.208

> <Idih>
0.016

> <Tether>
0.000

$$$$
VeraChem MOL file


 25 24  0  0  0  0  0  0  0  0999 V2000     
   20.0812   19.6769   26.8564 C   0  0  0  0  0  0  0  0  0  0  0  0
   21.0425   20.1477   27.4324 O   0  5  0  0  0  0  0  0  0  0  0  0
   19.0393   20.2785   26.6847 O   0  0  0  0  0  0  0  0  0  0  0  0
   20.1795   18.2408   26.3494 C   0  0  0  0  0  0  0  0  0  0  0  0
   19.1713   17.8809   26.1160 H   0  0  0  0  0  0  0  0  0  0  0  0
   20.5413   17.6264   27.1820 H   0  0  0  0  0  0  0  0  0  0  0  0
   21.1258   18.0605   25.1306 C   0  0  0  0  0  0  0  0  0  0  0  0
   22.1410   18.3556   25.4298 H   0  0  0  0  0  0  0  0  0  0  0  0
   21.1802   16.9949   24.8701 H   0  0  0  0  0  0  0  0  0  0  0  0
   20.7236   18.8730   23.8748 C   0  0  0  0  0  0  0  0  0  0  0  0
   21.5174   18.7492   23.1276 H   0  0  0  0  0  0  0  0  0  0  0  0
   20.6858   19.9433   24.1194 H   0  0  0  0  0  0  0  0  0  0  0  0
   19.3755   18.4305   23.2577 C   0  0  0  0  0  0  0  0  0  0  0  0
   19.4322   17.3703   22.9766 H   0  0  0  0  0  0  0  0  0  0  0  0
   18.5851   18.5095   24.0148 H   0  0  0  0  0  0  0  0  0  0  0  0
   18.9350   19.2666   22.0297 C   0  0  0  0  0  0  0  0  0  0  0  0
   18.7842   20.3143   22.3241 H   0  0  0  0  0  0  0  0  0  0  0  0
   17.9474   18.9001   21.7179 H   0  0  0  0  0  0  0  0  0  0  0  0
   19.8874   19.1826   20.8106 C   0  0  0  0  0  0  0  0  0  0  0  0
   20.4443   18.2356   20.8262 H   0  0  0  0  0  0  0  0  0  0  0  0
   19.2837   19.1663   19.8927 H   0  0  0  0  0  0  0  0  0  0  0  0
   20.8632   20.3770   20.7197 C   0  0  0  0  0  0  0  0  0  0  0  0
   21.5150   20.2748   19.8425 H   0  0  0  0  0  0  0  0  0  0  0  0
   20.3139   21.3224   20.6215 H   0  0  0  0  0  0  0  0  0  0  0  0
   21.5031   20.4494   21.6066 H   0  0  0  0  0  0  0  0  0  0  0  0
  1  2  1  0  0  0  0
  1  3  2  0  0  0  0
  1  4  1  0  0  0  0
  4  5  1  0  0  0  0
  4  6  1  0  0  0  0
  4  7  1  0  0  0  0
  7  8  1  0  0  0  0
  7  9  1  0  0  0  0
  7 10  1  0  0  0  0
 10 11  1  0  0  0  0
 10 12  1  0  0  0  0
 10 13  1  0  0  0  0
 13 14  1  0  0  0  0
 13 15  1  0  0  0  0
 13 16  1  0  0  0  0
 16 17  1  0  0  0  0
 16 18  1  0  0  0  0
 16 19  1  0  0  0  0
 19 20  1  0  0  0  0
 19 21  1  0  0  0  0
 19 22  1  0  0  0  0
 22 23  1  0  0  0  0
 22 24  1  0  0  0  0
 22 25  1  0  0  0  0
M  END
> <VM2 Rank>
171

> <Conf_Id>
285

> <Probability>
0.00

> <Sum Probability>
100.00

> <Delta G>
6.577

> <G>
-1.385

> <E>
-26.492

> <-TS>
25.107

> <U+W>
-47.060

> <U>
13.600

> <W>
-60.660

> <W(PB)>
-63.063

> <W(SA)>
2.403

> <Valence>
11.436

> <Coulomb>
1.345

> <VdW>
0.819

> <VdW6>
-10.980

> <VdW12>
11.799

> <Bond>
0.269

> <Angle>
3.573

> <Pdih>
7.592

> <Idih>
0.001

> <Tether>
0.000

$$$$
VeraChem MOL file


 25 24  0  0  0  0  0  0  0  0999 V2000     
   20.3461   18.7444   26.7410 C   0  0  0  0  0  0  0  0  0  0  0  0
   21.5415   18.5461   26.8355 O   0  5  0  0  0  0  0  0  0  0  0  0
   19.5076   17.8731   26.8626 O   0  0  0  0  0  0  0  0  0  0  0  0
   19.8728   20.1725   26.4838 C   0  0  0  0  0  0  0  0  0  0  0  0
   20.4361   20.8307   27.1556 H   0  0  0  0  0  0  0  0  0  0  0  0
   18.8181   20.2495   26.7743 H   0  0  0  0  0  0  0  0  0  0  0  0
   20.0617   20.6436   25.0185 C   0  0  0  0  0  0  0  0  0  0  0  0
   19.8260   21.7145   24.9560 H   0  0  0  0  0  0  0  0  0  0  0  0
   21.1190   20.5370   24.7438 H   0  0  0  0  0  0  0  0  0  0  0  0
   19.1639   19.8648   24.0264 C   0  0  0  0  0  0  0  0  0  0  0  0
   18.1190   19.9556   24.3526 H   0  0  0  0  0  0  0  0  0  0  0  0
   19.4058   18.7959   24.0677 H   0  0  0  0  0  0  0  0  0  0  0  0
   19.2695   20.3841   22.5701 C   0  0  0  0  0  0  0  0  0  0  0  0
   18.4333   19.9867   21.9790 H   0  0  0  0  0  0  0  0  0  0  0  0
   19.1322   21.4739   22.5809 H   0  0  0  0  0  0  0  0  0  0  0  0
   20.6071   20.0527   21.8558 C   0  0  0  0  0  0  0  0  0  0  0  0
   21.4300   19.9818   22.5777 H   0  0  0  0  0  0  0  0  0  0  0  0
   20.8600   20.8961   21.1990 H   0  0  0  0  0  0  0  0  0  0  0  0
   20.5694   18.7758   20.9801 C   0  0  0  0  0  0  0  0  0  0  0  0
   19.8029   18.8853   20.2005 H   0  0  0  0  0  0  0  0  0  0  0  0
   21.5304   18.6844   20.4555 H   0  0  0  0  0  0  0  0  0  0  0  0
   20.3135   17.4768   21.7723 C   0  0  0  0  0  0  0  0  0  0  0  0
   19.2963   17.4575   22.1826 H   0  0  0  0  0  0  0  0  0  0  0  0
   20.4241   16.6008   21.1204 H   0  0  0  0  0  0  0  0  0  0  0  0
   21.0254   17.3747   22.6019 H   0  0  0  0  0  0  0  0  0  0  0  0
  1  2  1  0  0  0  0
  1  3  2  0  0  0  0
  1  4  1  0  0  0  0
  4  5  1  0  0  0  0
  4  6  1  0  0  0  0
  4  7  1  0  0  0  0
  7  8  1  0  0  0  0
  7  9  1  0  0  0  0
  7 10  1  0  0  0  0
 10 11  1  0  0  0  0
 10 12  1  0  0  0  0
 10 13  1  0  0  0  0
 13 14  1  0  0  0  0
 13 15  1  0  0  0  0
 13 16  1  0  0  0  0
 16 17  1  0  0  0  0
 16 18  1  0  0  0  0
 16 19  1  0  0  0  0
 19 20  1  0  0  0  0
 19 21  1  0  0  0  0
 19 22  1  0  0  0  0
 22 23  1  0  0  0  0
 22 24  1  0  0  0  0
 22 25  1  0  0  0  0
M  END
> <VM2 Rank>
172

> <Conf_Id>
225

> <Probability>
0.00

> <Sum Probability>
100.00

> <Delta G>
6.674

> <G>
-1.288

> <E>
-26.419

> <-TS>
25.131

> <U+W>
-46.987

> <U>
13.849

> <W>
-60.836

> <W(PB)>
-63.229

> <W(SA)>
2.394

> <Valence>
11.487

> <Coulomb>
1.559

> <VdW>
0.802

> <VdW6>
-10.837

> <VdW12>
11.639

> <Bond>
0.263

> <Angle>
3.375

> <Pdih>
7.848

> <Idih>
0.001

> <Tether>
0.000

$$$$
VeraChem MOL file


 25 24  0  0  0  0  0  0  0  0999 V2000     
   20.0168   19.9118   26.2574 C   0  0  0  0  0  0  0  0  0  0  0  0
   21.0481   20.5555   26.2552 O   0  5  0  0  0  0  0  0  0  0  0  0
   18.9125   20.4133   26.1765 O   0  0  0  0  0  0  0  0  0  0  0  0
   20.1084   18.4042   26.4863 C   0  0  0  0  0  0  0  0  0  0  0  0
   19.0954   17.9950   26.5814 H   0  0  0  0  0  0  0  0  0  0  0  0
   20.5933   18.2703   27.4602 H   0  0  0  0  0  0  0  0  0  0  0  0
   20.9102   17.6180   25.4110 C   0  0  0  0  0  0  0  0  0  0  0  0
   21.8266   18.1637   25.1502 H   0  0  0  0  0  0  0  0  0  0  0  0
   21.2481   16.6767   25.8651 H   0  0  0  0  0  0  0  0  0  0  0  0
   20.1042   17.2555   24.1361 C   0  0  0  0  0  0  0  0  0  0  0  0
   19.2384   16.6455   24.4272 H   0  0  0  0  0  0  0  0  0  0  0  0
   20.7261   16.6098   23.5012 H   0  0  0  0  0  0  0  0  0  0  0  0
   19.6047   18.4487   23.2843 C   0  0  0  0  0  0  0  0  0  0  0  0
   19.0146   18.0430   22.4530 H   0  0  0  0  0  0  0  0  0  0  0  0
   18.9142   19.0673   23.8709 H   0  0  0  0  0  0  0  0  0  0  0  0
   20.7478   19.3264   22.7180 C   0  0  0  0  0  0  0  0  0  0  0  0
   21.4303   18.7078   22.1199 H   0  0  0  0  0  0  0  0  0  0  0  0
   21.3399   19.7327   23.5480 H   0  0  0  0  0  0  0  0  0  0  0  0
   20.2436   20.5157   21.8677 C   0  0  0  0  0  0  0  0  0  0  0  0
   19.5538   21.1291   22.4642 H   0  0  0  0  0  0  0  0  0  0  0  0
   21.0991   21.1605   21.6238 H   0  0  0  0  0  0  0  0  0  0  0  0
   19.5565   20.0849   20.5535 C   0  0  0  0  0  0  0  0  0  0  0  0
   18.6251   19.5389   20.7478 H   0  0  0  0  0  0  0  0  0  0  0  0
   19.3047   20.9641   19.9464 H   0  0  0  0  0  0  0  0  0  0  0  0
   20.2164   19.4408   19.9579 H   0  0  0  0  0  0  0  0  0  0  0  0
  1  2  1  0  0  0  0
  1  3  2  0  0  0  0
  1  4  1  0  0  0  0
  4  5  1  0  0  0  0
  4  6  1  0  0  0  0
  4  7  1  0  0  0  0
  7  8  1  0  0  0  0
  7  9  1  0  0  0  0
  7 10  1  0  0  0  0
 10 11  1  0  0  0  0
 10 12  1  0  0  0  0
 10 13  1  0  0  0  0
 13 14  1  0  0  0  0
 13 15  1  0  0  0  0
 13 16  1  0  0  0  0
 16 17  1  0  0  0  0
 16 18  1  0  0  0  0
 16 19  1  0  0  0  0
 19 20  1  0  0  0  0
 19 21  1  0  0  0  0
 19 22  1  0  0  0  0
 22 23  1  0  0  0  0
 22 24  1  0  0  0  0
 22 25  1  0  0  0  0
M  END
> <VM2 Rank>
173

> <Conf_Id>
1357

> <Probability>
0.00

> <Sum Probability>
100.00

> <Delta G>
6.940

> <G>
-1.023

> <E>
-26.833

> <-TS>
25.810

> <U+W>
-47.400

> <U>
13.609

> <W>
-61.009

> <W(PB)>
-63.357

> <W(SA)>
2.348

> <Valence>
10.665

> <Coulomb>
2.594

> <VdW>
0.350

> <VdW6>
-12.152

> <VdW12>
12.502

> <Bond>
0.280

> <Angle>
4.004

> <Pdih>
6.365

> <Idih>
0.017

> <Tether>
0.000

$$$$
VeraChem MOL file


 25 24  0  0  0  0  0  0  0  0999 V2000     
   20.1942   19.9231   26.2552 C   0  0  0  0  0  0  0  0  0  0  0  0
   21.2241   20.5601   26.1497 O   0  5  0  0  0  0  0  0  0  0  0  0
   19.0900   20.4311   26.2778 O   0  0  0  0  0  0  0  0  0  0  0  0
   20.2995   18.4163   26.4840 C   0  0  0  0  0  0  0  0  0  0  0  0
   19.8582   18.2236   27.4687 H   0  0  0  0  0  0  0  0  0  0  0  0
   21.3581   18.1388   26.5551 H   0  0  0  0  0  0  0  0  0  0  0  0
   19.5790   17.5334   25.4265 C   0  0  0  0  0  0  0  0  0  0  0  0
   19.3736   16.5576   25.8868 H   0  0  0  0  0  0  0  0  0  0  0  0
   18.5953   17.9584   25.1876 H   0  0  0  0  0  0  0  0  0  0  0  0
   20.3948   17.2739   24.1327 C   0  0  0  0  0  0  0  0  0  0  0  0
   19.8452   16.5538   23.5114 H   0  0  0  0  0  0  0  0  0  0  0  0
   21.3374   16.7787   24.4029 H   0  0  0  0  0  0  0  0  0  0  0  0
   20.7197   18.5194   23.2714 C   0  0  0  0  0  0  0  0  0  0  0  0
   21.3397   19.2213   23.8429 H   0  0  0  0  0  0  0  0  0  0  0  0
   21.3370   18.1905   22.4262 H   0  0  0  0  0  0  0  0  0  0  0  0
   19.4619   19.2447   22.7328 C   0  0  0  0  0  0  0  0  0  0  0  0
   18.8423   19.5739   23.5769 H   0  0  0  0  0  0  0  0  0  0  0  0
   18.8497   18.5438   22.1496 H   0  0  0  0  0  0  0  0  0  0  0  0
   19.7919   20.4870   21.8731 C   0  0  0  0  0  0  0  0  0  0  0  0
   18.8563   21.0179   21.6497 H   0  0  0  0  0  0  0  0  0  0  0  0
   20.4120   21.1836   22.4545 H   0  0  0  0  0  0  0  0  0  0  0  0
   20.4978   20.1449   20.5427 C   0  0  0  0  0  0  0  0  0  0  0  0
   19.9112   19.4216   19.9615 H   0  0  0  0  0  0  0  0  0  0  0  0
   20.6223   21.0480   19.9315 H   0  0  0  0  0  0  0  0  0  0  0  0
   21.4950   19.7213   20.7148 H   0  0  0  0  0  0  0  0  0  0  0  0
  1  2  1  0  0  0  0
  1  3  2  0  0  0  0
  1  4  1  0  0  0  0
  4  5  1  0  0  0  0
  4  6  1  0  0  0  0
  4  7  1  0  0  0  0
  7  8  1  0  0  0  0
  7  9  1  0  0  0  0
  7 10  1  0  0  0  0
 10 11  1  0  0  0  0
 10 12  1  0  0  0  0
 10 13  1  0  0  0  0
 13 14  1  0  0  0  0
 13 15  1  0  0  0  0
 13 16  1  0  0  0  0
 16 17  1  0  0  0  0
 16 18  1  0  0  0  0
 16 19  1  0  0  0  0
 19 20  1  0  0  0  0
 19 21  1  0  0  0  0
 19 22  1  0  0  0  0
 22 23  1  0  0  0  0
 22 24  1  0  0  0  0
 22 25  1  0  0  0  0
M  END
> <VM2 Rank>
174

> <Conf_Id>
839

> <Probability>
0.00

> <Sum Probability>
100.00

> <Delta G>
6.945

> <G>
-1.018

> <E>
-26.828

> <-TS>
25.810

> <U+W>
-47.395

> <U>
13.609

> <W>
-61.004

> <W(PB)>
-63.344

> <W(SA)>
2.340

> <Valence>
10.665

> <Coulomb>
2.594

> <VdW>
0.350

> <VdW6>
-12.152

> <VdW12>
12.502

> <Bond>
0.280

> <Angle>
4.004

> <Pdih>
6.365

> <Idih>
0.017

> <Tether>
0.000

$$$$
VeraChem MOL file


 25 24  0  0  0  0  0  0  0  0999 V2000     
   20.3227   19.8342   26.5551 C   0  0  0  0  0  0  0  0  0  0  0  0
   21.3548   20.4696   26.4652 O   0  5  0  0  0  0  0  0  0  0  0  0
   19.2551   20.3245   26.8664 O   0  0  0  0  0  0  0  0  0  0  0  0
   20.3794   18.3314   26.2945 C   0  0  0  0  0  0  0  0  0  0  0  0
   19.5123   17.8601   26.7726 H   0  0  0  0  0  0  0  0  0  0  0  0
   21.2712   17.9438   26.8010 H   0  0  0  0  0  0  0  0  0  0  0  0
   20.4336   17.9561   24.7911 C   0  0  0  0  0  0  0  0  0  0  0  0
   21.2916   18.4612   24.3287 H   0  0  0  0  0  0  0  0  0  0  0  0
   20.6146   16.8769   24.6979 H   0  0  0  0  0  0  0  0  0  0  0  0
   19.1287   18.3197   24.0428 C   0  0  0  0  0  0  0  0  0  0  0  0
   18.9379   19.3984   24.1066 H   0  0  0  0  0  0  0  0  0  0  0  0
   18.2837   17.8360   24.5513 H   0  0  0  0  0  0  0  0  0  0  0  0
   19.1255   17.8732   22.5609 C   0  0  0  0  0  0  0  0  0  0  0  0
   19.2395   16.7813   22.5237 H   0  0  0  0  0  0  0  0  0  0  0  0
   18.1366   18.0855   22.1325 H   0  0  0  0  0  0  0  0  0  0  0  0
   20.2093   18.5145   21.6541 C   0  0  0  0  0  0  0  0  0  0  0  0
   20.1171   18.0504   20.6628 H   0  0  0  0  0  0  0  0  0  0  0  0
   21.2157   18.2521   22.0054 H   0  0  0  0  0  0  0  0  0  0  0  0
   20.0810   20.0481   21.4716 C   0  0  0  0  0  0  0  0  0  0  0  0
   20.3857   20.3031   20.4473 H   0  0  0  0  0  0  0  0  0  0  0  0
   19.0304   20.3562   21.5629 H   0  0  0  0  0  0  0  0  0  0  0  0
   20.9628   20.8627   22.4443 C   0  0  0  0  0  0  0  0  0  0  0  0
   22.0199   20.5861   22.3403 H   0  0  0  0  0  0  0  0  0  0  0  0
   20.8745   21.9362   22.2341 H   0  0  0  0  0  0  0  0  0  0  0  0
   20.6735   20.7057   23.4897 H   0  0  0  0  0  0  0  0  0  0  0  0
  1  2  1  0  0  0  0
  1  3  2  0  0  0  0
  1  4  1  0  0  0  0
  4  5  1  0  0  0  0
  4  6  1  0  0  0  0
  4  7  1  0  0  0  0
  7  8  1  0  0  0  0
  7  9  1  0  0  0  0
  7 10  1  0  0  0  0
 10 11  1  0  0  0  0
 10 12  1  0  0  0  0
 10 13  1  0  0  0  0
 13 14  1  0  0  0  0
 13 15  1  0  0  0  0
 13 16  1  0  0  0  0
 16 17  1  0  0  0  0
 16 18  1  0  0  0  0
 16 19  1  0  0  0  0
 19 20  1  0  0  0  0
 19 21  1  0  0  0  0
 19 22  1  0  0  0  0
 22 23  1  0  0  0  0
 22 24  1  0  0  0  0
 22 25  1  0  0  0  0
M  END
> <VM2 Rank>
175

> <Conf_Id>
858

> <Probability>
0.00

> <Sum Probability>
100.00

> <Delta G>
6.983

> <G>
-0.979

> <E>
-26.700

> <-TS>
25.720

> <U+W>
-47.267

> <U>
13.894

> <W>
-61.161

> <W(PB)>
-63.482

> <W(SA)>
2.321

> <Valence>
11.359

> <Coulomb>
2.378

> <VdW>
0.157

> <VdW6>
-11.937

> <VdW12>
12.093

> <Bond>
0.256

> <Angle>
3.731

> <Pdih>
7.371

> <Idih>
0.001

> <Tether>
0.000

$$$$
VeraChem MOL file


 25 24  0  0  0  0  0  0  0  0999 V2000     
   19.9078   19.8080   26.5598 C   0  0  0  0  0  0  0  0  0  0  0  0
   20.9119   20.4298   26.8466 O   0  5  0  0  0  0  0  0  0  0  0  0
   18.8018   20.3076   26.4950 O   0  0  0  0  0  0  0  0  0  0  0  0
   20.0354   18.3097   26.2986 C   0  0  0  0  0  0  0  0  0  0  0  0
   19.2118   17.8133   26.8250 H   0  0  0  0  0  0  0  0  0  0  0  0
   20.9660   17.9525   26.7559 H   0  0  0  0  0  0  0  0  0  0  0  0
   19.9944   17.9281   24.7962 C   0  0  0  0  0  0  0  0  0  0  0  0
   19.9489   16.8346   24.7058 H   0  0  0  0  0  0  0  0  0  0  0  0
   19.0690   18.3202   24.3546 H   0  0  0  0  0  0  0  0  0  0  0  0
   21.2253   18.4524   24.0185 C   0  0  0  0  0  0  0  0  0  0  0  0
   22.1361   18.0799   24.5066 H   0  0  0  0  0  0  0  0  0  0  0  0
   21.2800   19.5466   24.0795 H   0  0  0  0  0  0  0  0  0  0  0  0
   21.2505   18.0077   22.5363 C   0  0  0  0  0  0  0  0  0  0  0  0
   22.1945   18.3424   22.0854 H   0  0  0  0  0  0  0  0  0  0  0  0
   21.2742   16.9101   22.5002 H   0  0  0  0  0  0  0  0  0  0  0  0
   20.0738   18.5059   21.6558 C   0  0  0  0  0  0  0  0  0  0  0  0
   19.1169   18.1192   22.0298 H   0  0  0  0  0  0  0  0  0  0  0  0
   20.2009   18.0558   20.6618 H   0  0  0  0  0  0  0  0  0  0  0  0
   20.0035   20.0432   21.4726 C   0  0  0  0  0  0  0  0  0  0  0  0
   21.0086   20.4815   21.5401 H   0  0  0  0  0  0  0  0  0  0  0  0
   19.6455   20.2563   20.4560 H   0  0  0  0  0  0  0  0  0  0  0  0
   19.0487   20.7415   22.4666 C   0  0  0  0  0  0  0  0  0  0  0  0
   19.3794   20.6237   23.5049 H   0  0  0  0  0  0  0  0  0  0  0  0
   18.9961   21.8173   22.2560 H   0  0  0  0  0  0  0  0  0  0  0  0
   18.0328   20.3337   22.3865 H   0  0  0  0  0  0  0  0  0  0  0  0
  1  2  1  0  0  0  0
  1  3  2  0  0  0  0
  1  4  1  0  0  0  0
  4  5  1  0  0  0  0
  4  6  1  0  0  0  0
  4  7  1  0  0  0  0
  7  8  1  0  0  0  0
  7  9  1  0  0  0  0
  7 10  1  0  0  0  0
 10 11  1  0  0  0  0
 10 12  1  0  0  0  0
 10 13  1  0  0  0  0
 13 14  1  0  0  0  0
 13 15  1  0  0  0  0
 13 16  1  0  0  0  0
 16 17  1  0  0  0  0
 16 18  1  0  0  0  0
 16 19  1  0  0  0  0
 19 20  1  0  0  0  0
 19 21  1  0  0  0  0
 19 22  1  0  0  0  0
 22 23  1  0  0  0  0
 22 24  1  0  0  0  0
 22 25  1  0  0  0  0
M  END
> <VM2 Rank>
176

> <Conf_Id>
215

> <Probability>
0.00

> <Sum Probability>
100.00

> <Delta G>
7.048

> <G>
-0.914

> <E>
-26.635

> <-TS>
25.721

> <U+W>
-47.202

> <U>
13.894

> <W>
-61.096

> <W(PB)>
-63.418

> <W(SA)>
2.321

> <Valence>
11.359

> <Coulomb>
2.378

> <VdW>
0.157

> <VdW6>
-11.937

> <VdW12>
12.093

> <Bond>
0.256

> <Angle>
3.731

> <Pdih>
7.371

> <Idih>
0.001

> <Tether>
0.000

$$$$
VeraChem MOL file


 25 24  0  0  0  0  0  0  0  0999 V2000     
   19.9212   19.6953   27.0873 C   0  0  0  0  0  0  0  0  0  0  0  0
   20.9446   20.0346   27.6480 O   0  5  0  0  0  0  0  0  0  0  0  0
   18.8812   19.4593   27.6699 O   0  0  0  0  0  0  0  0  0  0  0  0
   19.9494   19.5351   25.5717 C   0  0  0  0  0  0  0  0  0  0  0  0
   20.6503   20.2763   25.1711 H   0  0  0  0  0  0  0  0  0  0  0  0
   18.9534   19.7813   25.1849 H   0  0  0  0  0  0  0  0  0  0  0  0
   20.3584   18.1081   25.1261 C   0  0  0  0  0  0  0  0  0  0  0  0
   21.3746   17.8935   25.4847 H   0  0  0  0  0  0  0  0  0  0  0  0
   19.6981   17.3822   25.6205 H   0  0  0  0  0  0  0  0  0  0  0  0
   20.2879   17.8778   23.5955 C   0  0  0  0  0  0  0  0  0  0  0  0
   19.2563   18.0153   23.2479 H   0  0  0  0  0  0  0  0  0  0  0  0
   20.5317   16.8240   23.4046 H   0  0  0  0  0  0  0  0  0  0  0  0
   21.2655   18.7579   22.7724 C   0  0  0  0  0  0  0  0  0  0  0  0
   22.1429   18.9914   23.3906 H   0  0  0  0  0  0  0  0  0  0  0  0
   21.6522   18.1758   21.9249 H   0  0  0  0  0  0  0  0  0  0  0  0
   20.6476   20.0770   22.2370 C   0  0  0  0  0  0  0  0  0  0  0  0
   21.4295   20.8485   22.2431 H   0  0  0  0  0  0  0  0  0  0  0  0
   19.8618   20.4401   22.9110 H   0  0  0  0  0  0  0  0  0  0  0  0
   20.0923   19.9814   20.7945 C   0  0  0  0  0  0  0  0  0  0  0  0
   19.7700   20.9822   20.4758 H   0  0  0  0  0  0  0  0  0  0  0  0
   20.8977   19.6849   20.1085 H   0  0  0  0  0  0  0  0  0  0  0  0
   18.9048   19.0075   20.6435 C   0  0  0  0  0  0  0  0  0  0  0  0
   18.0943   19.2655   21.3374 H   0  0  0  0  0  0  0  0  0  0  0  0
   18.5024   19.0471   19.6231 H   0  0  0  0  0  0  0  0  0  0  0  0
   19.2133   17.9728   20.8393 H   0  0  0  0  0  0  0  0  0  0  0  0
  1  2  1  0  0  0  0
  1  3  2  0  0  0  0
  1  4  1  0  0  0  0
  4  5  1  0  0  0  0
  4  6  1  0  0  0  0
  4  7  1  0  0  0  0
  7  8  1  0  0  0  0
  7  9  1  0  0  0  0
  7 10  1  0  0  0  0
 10 11  1  0  0  0  0
 10 12  1  0  0  0  0
 10 13  1  0  0  0  0
 13 14  1  0  0  0  0
 13 15  1  0  0  0  0
 13 16  1  0  0  0  0
 16 17  1  0  0  0  0
 16 18  1  0  0  0  0
 16 19  1  0  0  0  0
 19 20  1  0  0  0  0
 19 21  1  0  0  0  0
 19 22  1  0  0  0  0
 22 23  1  0  0  0  0
 22 24  1  0  0  0  0
 22 25  1  0  0  0  0
M  END
> <VM2 Rank>
177

> <Conf_Id>
6

> <Probability>
0.00

> <Sum Probability>
100.00

> <Delta G>
7.264

> <G>
-0.698

> <E>
-25.926

> <-TS>
25.227

> <U+W>
-46.493

> <U>
13.064

> <W>
-59.557

> <W(PB)>
-61.926

> <W(SA)>
2.369

> <Valence>
13.064

> <Coulomb>
-1.007

> <VdW>
1.008

> <VdW6>
-10.968

> <VdW12>
11.976

> <Bond>
0.280

> <Angle>
3.439

> <Pdih>
9.344

> <Idih>
0.001

> <Tether>
0.000

$$$$
VeraChem MOL file


 25 24  0  0  0  0  0  0  0  0999 V2000     
   20.4929   19.0564   26.5286 C   0  0  0  0  0  0  0  0  0  0  0  0
   21.6437   19.4456   26.4839 O   0  5  0  0  0  0  0  0  0  0  0  0
   20.1786   17.9281   26.8539 O   0  0  0  0  0  0  0  0  0  0  0  0
   19.3794   20.0682   26.2669 C   0  0  0  0  0  0  0  0  0  0  0  0
   19.5215   20.8772   26.9928 H   0  0  0  0  0  0  0  0  0  0  0  0
   18.4137   19.6041   26.5003 H   0  0  0  0  0  0  0  0  0  0  0  0
   19.3561   20.6736   24.8352 C   0  0  0  0  0  0  0  0  0  0  0  0
   18.8010   21.6202   24.8802 H   0  0  0  0  0  0  0  0  0  0  0  0
   20.3738   20.9417   24.5220 H   0  0  0  0  0  0  0  0  0  0  0  0
   18.6706   19.7826   23.7666 C   0  0  0  0  0  0  0  0  0  0  0  0
   18.5470   20.3690   22.8468 H   0  0  0  0  0  0  0  0  0  0  0  0
   17.6522   19.5449   24.1022 H   0  0  0  0  0  0  0  0  0  0  0  0
   19.4015   18.4593   23.4222 C   0  0  0  0  0  0  0  0  0  0  0  0
   19.4061   17.8061   24.3037 H   0  0  0  0  0  0  0  0  0  0  0  0
   18.8138   17.9202   22.6680 H   0  0  0  0  0  0  0  0  0  0  0  0
   20.8570   18.6212   22.9096 C   0  0  0  0  0  0  0  0  0  0  0  0
   21.2632   17.6247   22.6900 H   0  0  0  0  0  0  0  0  0  0  0  0
   21.4833   19.0237   23.7165 H   0  0  0  0  0  0  0  0  0  0  0  0
   21.0194   19.5148   21.6553 C   0  0  0  0  0  0  0  0  0  0  0  0
   20.6977   20.5406   21.8786 H   0  0  0  0  0  0  0  0  0  0  0  0
   22.0877   19.5786   21.4073 H   0  0  0  0  0  0  0  0  0  0  0  0
   20.2539   18.9841   20.4238 C   0  0  0  0  0  0  0  0  0  0  0  0
   20.5478   17.9519   20.1937 H   0  0  0  0  0  0  0  0  0  0  0  0
   19.1694   19.0048   20.5895 H   0  0  0  0  0  0  0  0  0  0  0  0
   20.4681   19.6021   19.5424 H   0  0  0  0  0  0  0  0  0  0  0  0
  1  2  1  0  0  0  0
  1  3  2  0  0  0  0
  1  4  1  0  0  0  0
  4  5  1  0  0  0  0
  4  6  1  0  0  0  0
  4  7  1  0  0  0  0
  7  8  1  0  0  0  0
  7  9  1  0  0  0  0
  7 10  1  0  0  0  0
 10 11  1  0  0  0  0
 10 12  1  0  0  0  0
 10 13  1  0  0  0  0
 13 14  1  0  0  0  0
 13 15  1  0  0  0  0
 13 16  1  0  0  0  0
 16 17  1  0  0  0  0
 16 18  1  0  0  0  0
 16 19  1  0  0  0  0
 19 20  1  0  0  0  0
 19 21  1  0  0  0  0
 19 22  1  0  0  0  0
 22 23  1  0  0  0  0
 22 24  1  0  0  0  0
 22 25  1  0  0  0  0
M  END
> <VM2 Rank>
178

> <Conf_Id>
1098

> <Probability>
0.00

> <Sum Probability>
100.00

> <Delta G>
7.277

> <G>
-0.686

> <E>
-26.971

> <-TS>
26.285

> <U+W>
-47.538

> <U>
13.324

> <W>
-60.863

> <W(PB)>
-63.188

> <W(SA)>
2.325

> <Valence>
10.989

> <Coulomb>
2.085

> <VdW>
0.250

> <VdW6>
-13.143

> <VdW12>
13.393

> <Bond>
0.321

> <Angle>
4.360

> <Pdih>
6.292

> <Idih>
0.016

> <Tether>
0.000

$$$$
VeraChem MOL file


 25 24  0  0  0  0  0  0  0  0999 V2000     
   20.1824   18.8955   27.1063 C   0  0  0  0  0  0  0  0  0  0  0  0
   21.2010   19.2492   27.6667 O   0  5  0  0  0  0  0  0  0  0  0  0
   19.1953   18.4972   27.6927 O   0  0  0  0  0  0  0  0  0  0  0  0
   20.1319   18.9764   25.5849 C   0  0  0  0  0  0  0  0  0  0  0  0
   19.4783   18.1739   25.2230 H   0  0  0  0  0  0  0  0  0  0  0  0
   21.1405   18.7749   25.2067 H   0  0  0  0  0  0  0  0  0  0  0  0
   19.6268   20.3493   25.0730 C   0  0  0  0  0  0  0  0  0  0  0  0
   18.6586   20.5665   25.5450 H   0  0  0  0  0  0  0  0  0  0  0  0
   20.3156   21.1371   25.4078 H   0  0  0  0  0  0  0  0  0  0  0  0
   19.4554   20.4279   23.5351 C   0  0  0  0  0  0  0  0  0  0  0  0
   19.0333   21.4133   23.2958 H   0  0  0  0  0  0  0  0  0  0  0  0
   18.7083   19.6937   23.2081 H   0  0  0  0  0  0  0  0  0  0  0  0
   20.7752   20.2595   22.7368 C   0  0  0  0  0  0  0  0  0  0  0  0
   20.7560   20.9206   21.8598 H   0  0  0  0  0  0  0  0  0  0  0  0
   21.6128   20.6151   23.3521 H   0  0  0  0  0  0  0  0  0  0  0  0
   21.0618   18.8083   22.2671 C   0  0  0  0  0  0  0  0  0  0  0  0
   20.6320   18.0810   22.9670 H   0  0  0  0  0  0  0  0  0  0  0  0
   22.1481   18.6476   22.2953 H   0  0  0  0  0  0  0  0  0  0  0  0
   20.5772   18.4961   20.8297 C   0  0  0  0  0  0  0  0  0  0  0  0
   21.0623   19.1809   20.1205 H   0  0  0  0  0  0  0  0  0  0  0  0
   20.9117   17.4853   20.5587 H   0  0  0  0  0  0  0  0  0  0  0  0
   19.0461   18.5746   20.6538 C   0  0  0  0  0  0  0  0  0  0  0  0
   18.6822   19.5993   20.8008 H   0  0  0  0  0  0  0  0  0  0  0  0
   18.7588   18.2616   19.6417 H   0  0  0  0  0  0  0  0  0  0  0  0
   18.5342   17.9182   21.3693 H   0  0  0  0  0  0  0  0  0  0  0  0
  1  2  1  0  0  0  0
  1  3  2  0  0  0  0
  1  4  1  0  0  0  0
  4  5  1  0  0  0  0
  4  6  1  0  0  0  0
  4  7  1  0  0  0  0
  7  8  1  0  0  0  0
  7  9  1  0  0  0  0
  7 10  1  0  0  0  0
 10 11  1  0  0  0  0
 10 12  1  0  0  0  0
 10 13  1  0  0  0  0
 13 14  1  0  0  0  0
 13 15  1  0  0  0  0
 13 16  1  0  0  0  0
 16 17  1  0  0  0  0
 16 18  1  0  0  0  0
 16 19  1  0  0  0  0
 19 20  1  0  0  0  0
 19 21  1  0  0  0  0
 19 22  1  0  0  0  0
 22 23  1  0  0  0  0
 22 24  1  0  0  0  0
 22 25  1  0  0  0  0
M  END
> <VM2 Rank>
179

> <Conf_Id>
5

> <Probability>
0.00

> <Sum Probability>
100.00

> <Delta G>
7.289

> <G>
-0.673

> <E>
-25.900

> <-TS>
25.227

> <U+W>
-46.468

> <U>
13.064

> <W>
-59.532

> <W(PB)>
-61.933

> <W(SA)>
2.401

> <Valence>
13.064

> <Coulomb>
-1.008

> <VdW>
1.008

> <VdW6>
-10.968

> <VdW12>
11.977

> <Bond>
0.280

> <Angle>
3.438

> <Pdih>
9.345

> <Idih>
0.001

> <Tether>
0.000

$$$$
VeraChem MOL file


 25 24  0  0  0  0  0  0  0  0999 V2000     
   19.6996   19.5073   27.0329 C   0  0  0  0  0  0  0  0  0  0  0  0
   20.5191   19.8519   27.8615 O   0  5  0  0  0  0  0  0  0  0  0  0
   18.5550   19.9145   27.0080 O   0  0  0  0  0  0  0  0  0  0  0  0
   20.1370   18.5215   25.9554 C   0  0  0  0  0  0  0  0  0  0  0  0
   19.2643   17.9238   25.6660 H   0  0  0  0  0  0  0  0  0  0  0  0
   20.8685   17.8350   26.3983 H   0  0  0  0  0  0  0  0  0  0  0  0
   20.7414   19.2187   24.7120 C   0  0  0  0  0  0  0  0  0  0  0  0
   20.0044   19.9180   24.2996 H   0  0  0  0  0  0  0  0  0  0  0  0
   21.6063   19.8220   25.0206 H   0  0  0  0  0  0  0  0  0  0  0  0
   21.1809   18.1961   23.6377 C   0  0  0  0  0  0  0  0  0  0  0  0
   20.3508   17.5274   23.3740 H   0  0  0  0  0  0  0  0  0  0  0  0
   21.9580   17.5554   24.0766 H   0  0  0  0  0  0  0  0  0  0  0  0
   21.7556   18.8589   22.3614 C   0  0  0  0  0  0  0  0  0  0  0  0
   22.2195   19.8234   22.6089 H   0  0  0  0  0  0  0  0  0  0  0  0
   22.5738   18.2242   21.9946 H   0  0  0  0  0  0  0  0  0  0  0  0
   20.7526   19.0358   21.1903 C   0  0  0  0  0  0  0  0  0  0  0  0
   20.3423   18.0604   20.8953 H   0  0  0  0  0  0  0  0  0  0  0  0
   21.3267   19.3883   20.3226 H   0  0  0  0  0  0  0  0  0  0  0  0
   19.6051   20.0458   21.4369 C   0  0  0  0  0  0  0  0  0  0  0  0
   19.9336   20.8367   22.1243 H   0  0  0  0  0  0  0  0  0  0  0  0
   19.3732   20.5482   20.4876 H   0  0  0  0  0  0  0  0  0  0  0  0
   18.3067   19.3835   21.9497 C   0  0  0  0  0  0  0  0  0  0  0  0
   17.5232   20.1379   22.0967 H   0  0  0  0  0  0  0  0  0  0  0  0
   17.9326   18.6470   21.2269 H   0  0  0  0  0  0  0  0  0  0  0  0
   18.4594   18.8704   22.9056 H   0  0  0  0  0  0  0  0  0  0  0  0
  1  2  1  0  0  0  0
  1  3  2  0  0  0  0
  1  4  1  0  0  0  0
  4  5  1  0  0  0  0
  4  6  1  0  0  0  0
  4  7  1  0  0  0  0
  7  8  1  0  0  0  0
  7  9  1  0  0  0  0
  7 10  1  0  0  0  0
 10 11  1  0  0  0  0
 10 12  1  0  0  0  0
 10 13  1  0  0  0  0
 13 14  1  0  0  0  0
 13 15  1  0  0  0  0
 13 16  1  0  0  0  0
 16 17  1  0  0  0  0
 16 18  1  0  0  0  0
 16 19  1  0  0  0  0
 19 20  1  0  0  0  0
 19 21  1  0  0  0  0
 19 22  1  0  0  0  0
 22 23  1  0  0  0  0
 22 24  1  0  0  0  0
 22 25  1  0  0  0  0
M  END
> <VM2 Rank>
180

> <Conf_Id>
286

> <Probability>
0.00

> <Sum Probability>
100.00

> <Delta G>
7.290

> <G>
-0.672

> <E>
-25.927

> <-TS>
25.254

> <U+W>
-46.494

> <U>
13.593

> <W>
-60.087

> <W(PB)>
-62.472

> <W(SA)>
2.385

> <Valence>
13.121

> <Coulomb>
-0.198

> <VdW>
0.669

> <VdW6>
-10.627

> <VdW12>
11.296

> <Bond>
0.238

> <Angle>
3.709

> <Pdih>
9.174

> <Idih>
0.000

> <Tether>
0.000

$$$$
VeraChem MOL file


 25 24  0  0  0  0  0  0  0  0999 V2000     
   19.8372   19.0140   26.5361 C   0  0  0  0  0  0  0  0  0  0  0  0
   20.3017   17.9361   26.8524 O   0  5  0  0  0  0  0  0  0  0  0  0
   18.6451   19.2517   26.5186 O   0  0  0  0  0  0  0  0  0  0  0  0
   20.8049   20.1603   26.2504 C   0  0  0  0  0  0  0  0  0  0  0  0
   21.8275   19.8246   26.4608 H   0  0  0  0  0  0  0  0  0  0  0  0
   20.5767   20.9453   26.9806 H   0  0  0  0  0  0  0  0  0  0  0  0
   20.7171   20.7616   24.8195 C   0  0  0  0  0  0  0  0  0  0  0  0
   19.6663   20.8960   24.5302 H   0  0  0  0  0  0  0  0  0  0  0  0
   21.1466   21.7718   24.8532 H   0  0  0  0  0  0  0  0  0  0  0  0
   21.4868   19.9647   23.7341 C   0  0  0  0  0  0  0  0  0  0  0  0
   22.5348   19.8606   24.0458 H   0  0  0  0  0  0  0  0  0  0  0  0
   21.5126   20.5608   22.8125 H   0  0  0  0  0  0  0  0  0  0  0  0
   20.9246   18.5578   23.4046 C   0  0  0  0  0  0  0  0  0  0  0  0
   21.5593   18.0977   22.6362 H   0  0  0  0  0  0  0  0  0  0  0  0
   21.0245   17.9108   24.2849 H   0  0  0  0  0  0  0  0  0  0  0  0
   19.4489   18.5302   22.9259 C   0  0  0  0  0  0  0  0  0  0  0  0
   18.7948   18.8499   23.7476 H   0  0  0  0  0  0  0  0  0  0  0  0
   19.1695   17.4894   22.7143 H   0  0  0  0  0  0  0  0  0  0  0  0
   19.1439   19.3936   21.6770 C   0  0  0  0  0  0  0  0  0  0  0  0
   18.0709   19.3189   21.4538 H   0  0  0  0  0  0  0  0  0  0  0  0
   19.3360   20.4526   21.8943 H   0  0  0  0  0  0  0  0  0  0  0  0
   19.9428   18.9640   20.4274 C   0  0  0  0  0  0  0  0  0  0  0  0
   21.0191   19.1244   20.5681 H   0  0  0  0  0  0  0  0  0  0  0  0
   19.7789   17.9022   20.2025 H   0  0  0  0  0  0  0  0  0  0  0  0
   19.6306   19.5480   19.5521 H   0  0  0  0  0  0  0  0  0  0  0  0
  1  2  1  0  0  0  0
  1  3  2  0  0  0  0
  1  4  1  0  0  0  0
  4  5  1  0  0  0  0
  4  6  1  0  0  0  0
  4  7  1  0  0  0  0
  7  8  1  0  0  0  0
  7  9  1  0  0  0  0
  7 10  1  0  0  0  0
 10 11  1  0  0  0  0
 10 12  1  0  0  0  0
 10 13  1  0  0  0  0
 13 14  1  0  0  0  0
 13 15  1  0  0  0  0
 13 16  1  0  0  0  0
 16 17  1  0  0  0  0
 16 18  1  0  0  0  0
 16 19  1  0  0  0  0
 19 20  1  0  0  0  0
 19 21  1  0  0  0  0
 19 22  1  0  0  0  0
 22 23  1  0  0  0  0
 22 24  1  0  0  0  0
 22 25  1  0  0  0  0
M  END
> <VM2 Rank>
181

> <Conf_Id>
552

> <Probability>
0.00

> <Sum Probability>
100.00

> <Delta G>
7.327

> <G>
-0.635

> <E>
-26.920

> <-TS>
26.285

> <U+W>
-47.488

> <U>
13.324

> <W>
-60.812

> <W(PB)>
-63.140

> <W(SA)>
2.328

> <Valence>
10.989

> <Coulomb>
2.085

> <VdW>
0.250

> <VdW6>
-13.143

> <VdW12>
13.393

> <Bond>
0.321

> <Angle>
4.360

> <Pdih>
6.292

> <Idih>
0.016

> <Tether>
0.000

$$$$
VeraChem MOL file


 25 24  0  0  0  0  0  0  0  0999 V2000     
   20.0256   20.0601   26.5519 C   0  0  0  0  0  0  0  0  0  0  0  0
   20.6408   21.0456   26.1959 O   0  5  0  0  0  0  0  0  0  0  0  0
   19.8275   19.7742   27.7165 O   0  0  0  0  0  0  0  0  0  0  0  0
   19.4934   19.1163   25.4798 C   0  0  0  0  0  0  0  0  0  0  0  0
   19.1948   19.7225   24.6194 H   0  0  0  0  0  0  0  0  0  0  0  0
   18.5832   18.6426   25.8663 H   0  0  0  0  0  0  0  0  0  0  0  0
   20.5246   18.0313   25.0713 C   0  0  0  0  0  0  0  0  0  0  0  0
   21.4683   18.4968   24.7569 H   0  0  0  0  0  0  0  0  0  0  0  0
   20.7628   17.4418   25.9674 H   0  0  0  0  0  0  0  0  0  0  0  0
   20.0073   17.0701   23.9722 C   0  0  0  0  0  0  0  0  0  0  0  0
   18.9186   16.9487   24.0551 H   0  0  0  0  0  0  0  0  0  0  0  0
   20.4306   16.0762   24.1715 H   0  0  0  0  0  0  0  0  0  0  0  0
   20.3917   17.4483   22.5171 C   0  0  0  0  0  0  0  0  0  0  0  0
   21.4845   17.4992   22.4173 H   0  0  0  0  0  0  0  0  0  0  0  0
   20.0758   16.6171   21.8719 H   0  0  0  0  0  0  0  0  0  0  0  0
   19.7425   18.7432   21.9684 C   0  0  0  0  0  0  0  0  0  0  0  0
   18.7715   18.9136   22.4517 H   0  0  0  0  0  0  0  0  0  0  0  0
   19.5263   18.5968   20.9013 H   0  0  0  0  0  0  0  0  0  0  0  0
   20.6487   19.9889   22.1034 C   0  0  0  0  0  0  0  0  0  0  0  0
   20.9343   20.1490   23.1502 H   0  0  0  0  0  0  0  0  0  0  0  0
   21.5816   19.8262   21.5464 H   0  0  0  0  0  0  0  0  0  0  0  0
   19.9509   21.2559   21.5696 C   0  0  0  0  0  0  0  0  0  0  0  0
   20.6098   22.1288   21.6645 H   0  0  0  0  0  0  0  0  0  0  0  0
   19.6868   21.1432   20.5100 H   0  0  0  0  0  0  0  0  0  0  0  0
   19.0317   21.4632   22.1330 H   0  0  0  0  0  0  0  0  0  0  0  0
  1  2  1  0  0  0  0
  1  3  2  0  0  0  0
  1  4  1  0  0  0  0
  4  5  1  0  0  0  0
  4  6  1  0  0  0  0
  4  7  1  0  0  0  0
  7  8  1  0  0  0  0
  7  9  1  0  0  0  0
  7 10  1  0  0  0  0
 10 11  1  0  0  0  0
 10 12  1  0  0  0  0
 10 13  1  0  0  0  0
 13 14  1  0  0  0  0
 13 15  1  0  0  0  0
 13 16  1  0  0  0  0
 16 17  1  0  0  0  0
 16 18  1  0  0  0  0
 16 19  1  0  0  0  0
 19 20  1  0  0  0  0
 19 21  1  0  0  0  0
 19 22  1  0  0  0  0
 22 23  1  0  0  0  0
 22 24  1  0  0  0  0
 22 25  1  0  0  0  0
M  END
> <VM2 Rank>
182

> <Conf_Id>
255

> <Probability>
0.00

> <Sum Probability>
100.00

> <Delta G>
7.413

> <G>
-0.549

> <E>
-25.886

> <-TS>
25.337

> <U+W>
-46.453

> <U>
13.989

> <W>
-60.442

> <W(PB)>
-62.803

> <W(SA)>
2.361

> <Valence>
13.108

> <Coulomb>
0.471

> <VdW>
0.410

> <VdW6>
-11.098

> <VdW12>
11.508

> <Bond>
0.254

> <Angle>
3.733

> <Pdih>
9.120

> <Idih>
0.001

> <Tether>
0.000

$$$$
VeraChem MOL file


 25 24  0  0  0  0  0  0  0  0999 V2000     
   20.8372   19.3976   26.5815 C   0  0  0  0  0  0  0  0  0  0  0  0
   21.6956   20.1844   26.2342 O   0  5  0  0  0  0  0  0  0  0  0  0
   20.5457   19.1882   27.7426 O   0  0  0  0  0  0  0  0  0  0  0  0
   20.0660   18.6487   25.5008 C   0  0  0  0  0  0  0  0  0  0  0  0
   19.7665   17.6765   25.9096 H   0  0  0  0  0  0  0  0  0  0  0  0
   20.7565   18.4473   24.6764 H   0  0  0  0  0  0  0  0  0  0  0  0
   18.8162   19.4259   25.0090 C   0  0  0  0  0  0  0  0  0  0  0  0
   18.1525   19.5727   25.8723 H   0  0  0  0  0  0  0  0  0  0  0  0
   19.0978   20.4320   24.6705 H   0  0  0  0  0  0  0  0  0  0  0  0
   18.0264   18.6873   23.9001 C   0  0  0  0  0  0  0  0  0  0  0  0
   16.9602   18.9092   24.0451 H   0  0  0  0  0  0  0  0  0  0  0  0
   18.1207   17.6000   24.0260 H   0  0  0  0  0  0  0  0  0  0  0  0
   18.3835   19.0877   22.4440 C   0  0  0  0  0  0  0  0  0  0  0  0
   17.6610   18.5886   21.7840 H   0  0  0  0  0  0  0  0  0  0  0  0
   18.2200   20.1642   22.2985 H   0  0  0  0  0  0  0  0  0  0  0  0
   19.8045   18.6926   21.9707 C   0  0  0  0  0  0  0  0  0  0  0  0
   19.7508   18.4136   20.9095 H   0  0  0  0  0  0  0  0  0  0  0  0
   20.1436   17.7934   22.5017 H   0  0  0  0  0  0  0  0  0  0  0  0
   20.8376   19.8347   22.1104 C   0  0  0  0  0  0  0  0  0  0  0  0
   20.5167   20.6955   21.5079 H   0  0  0  0  0  0  0  0  0  0  0  0
   20.8919   20.1836   23.1488 H   0  0  0  0  0  0  0  0  0  0  0  0
   22.2403   19.3870   21.6528 C   0  0  0  0  0  0  0  0  0  0  0  0
   22.9594   20.2106   21.7499 H   0  0  0  0  0  0  0  0  0  0  0  0
   22.6017   18.5487   22.2626 H   0  0  0  0  0  0  0  0  0  0  0  0
   22.2287   19.0682   20.6023 H   0  0  0  0  0  0  0  0  0  0  0  0
  1  2  1  0  0  0  0
  1  3  2  0  0  0  0
  1  4  1  0  0  0  0
  4  5  1  0  0  0  0
  4  6  1  0  0  0  0
  4  7  1  0  0  0  0
  7  8  1  0  0  0  0
  7  9  1  0  0  0  0
  7 10  1  0  0  0  0
 10 11  1  0  0  0  0
 10 12  1  0  0  0  0
 10 13  1  0  0  0  0
 13 14  1  0  0  0  0
 13 15  1  0  0  0  0
 13 16  1  0  0  0  0
 16 17  1  0  0  0  0
 16 18  1  0  0  0  0
 16 19  1  0  0  0  0
 19 20  1  0  0  0  0
 19 21  1  0  0  0  0
 19 22  1  0  0  0  0
 22 23  1  0  0  0  0
 22 24  1  0  0  0  0
 22 25  1  0  0  0  0
M  END
> <VM2 Rank>
183

> <Conf_Id>
1205

> <Probability>
0.00

> <Sum Probability>
100.00

> <Delta G>
7.438

> <G>
-0.525

> <E>
-25.861

> <-TS>
25.336

> <U+W>
-46.428

> <U>
13.989

> <W>
-60.418

> <W(PB)>
-62.801

> <W(SA)>
2.384

> <Valence>
13.108

> <Coulomb>
0.471

> <VdW>
0.410

> <VdW6>
-11.098

> <VdW12>
11.508

> <Bond>
0.254

> <Angle>
3.732

> <Pdih>
9.121

> <Idih>
0.001

> <Tether>
0.000

$$$$
VeraChem MOL file


 25 24  0  0  0  0  0  0  0  0999 V2000     
   20.3866   19.6004   26.7282 C   0  0  0  0  0  0  0  0  0  0  0  0
   21.3411   20.3430   26.6065 O   0  5  0  0  0  0  0  0  0  0  0  0
   19.3538   19.9214   27.2831 O   0  0  0  0  0  0  0  0  0  0  0  0
   20.5193   18.1674   26.2161 C   0  0  0  0  0  0  0  0  0  0  0  0
   20.4563   17.5177   27.0966 H   0  0  0  0  0  0  0  0  0  0  0  0
   21.5233   18.0310   25.7963 H   0  0  0  0  0  0  0  0  0  0  0  0
   19.4412   17.7293   25.1853 C   0  0  0  0  0  0  0  0  0  0  0  0
   19.4182   16.6315   25.1635 H   0  0  0  0  0  0  0  0  0  0  0  0
   18.4459   18.0457   25.5271 H   0  0  0  0  0  0  0  0  0  0  0  0
   19.6889   18.2252   23.7389 C   0  0  0  0  0  0  0  0  0  0  0  0
   18.9567   17.7409   23.0788 H   0  0  0  0  0  0  0  0  0  0  0  0
   20.6811   17.8917   23.4084 H   0  0  0  0  0  0  0  0  0  0  0  0
   19.5729   19.7579   23.5721 C   0  0  0  0  0  0  0  0  0  0  0  0
   18.6711   20.1069   24.0935 H   0  0  0  0  0  0  0  0  0  0  0  0
   20.4234   20.2493   24.0618 H   0  0  0  0  0  0  0  0  0  0  0  0
   19.5002   20.2327   22.0989 C   0  0  0  0  0  0  0  0  0  0  0  0
   19.3467   21.3204   22.1118 H   0  0  0  0  0  0  0  0  0  0  0  0
   18.6116   19.8121   21.6088 H   0  0  0  0  0  0  0  0  0  0  0  0
   20.7681   19.9375   21.2588 C   0  0  0  0  0  0  0  0  0  0  0  0
   20.9123   20.7588   20.5434 H   0  0  0  0  0  0  0  0  0  0  0  0
   21.6584   19.9336   21.9028 H   0  0  0  0  0  0  0  0  0  0  0  0
   20.6808   18.6191   20.4580 C   0  0  0  0  0  0  0  0  0  0  0  0
   20.5744   17.7483   21.1143 H   0  0  0  0  0  0  0  0  0  0  0  0
   19.8235   18.6344   19.7725 H   0  0  0  0  0  0  0  0  0  0  0  0
   21.5880   18.4750   19.8571 H   0  0  0  0  0  0  0  0  0  0  0  0
  1  2  1  0  0  0  0
  1  3  2  0  0  0  0
  1  4  1  0  0  0  0
  4  5  1  0  0  0  0
  4  6  1  0  0  0  0
  4  7  1  0  0  0  0
  7  8  1  0  0  0  0
  7  9  1  0  0  0  0
  7 10  1  0  0  0  0
 10 11  1  0  0  0  0
 10 12  1  0  0  0  0
 10 13  1  0  0  0  0
 13 14  1  0  0  0  0
 13 15  1  0  0  0  0
 13 16  1  0  0  0  0
 16 17  1  0  0  0  0
 16 18  1  0  0  0  0
 16 19  1  0  0  0  0
 19 20  1  0  0  0  0
 19 21  1  0  0  0  0
 19 22  1  0  0  0  0
 22 23  1  0  0  0  0
 22 24  1  0  0  0  0
 22 25  1  0  0  0  0
M  END
> <VM2 Rank>
184

> <Conf_Id>
1100

> <Probability>
0.00

> <Sum Probability>
100.00

> <Delta G>
7.538

> <G>
-0.425

> <E>
-25.831

> <-TS>
25.406

> <U+W>
-46.398

> <U>
14.274

> <W>
-60.672

> <W(PB)>
-63.039

> <W(SA)>
2.367

> <Valence>
12.340

> <Coulomb>
1.175

> <VdW>
0.759

> <VdW6>
-11.600

> <VdW12>
12.359

> <Bond>
0.276

> <Angle>
3.898

> <Pdih>
8.159

> <Idih>
0.006

> <Tether>
0.000

$$$$
VeraChem MOL file


 25 24  0  0  0  0  0  0  0  0999 V2000     
   20.3077   19.5395   26.8683 C   0  0  0  0  0  0  0  0  0  0  0  0
   21.4204   20.0233   26.9395 O   0  5  0  0  0  0  0  0  0  0  0  0
   19.3042   20.1063   27.2546 O   0  0  0  0  0  0  0  0  0  0  0  0
   20.1738   18.1190   26.3231 C   0  0  0  0  0  0  0  0  0  0  0  0
   19.7975   17.5069   27.1509 H   0  0  0  0  0  0  0  0  0  0  0  0
   21.1715   17.7352   26.0780 H   0  0  0  0  0  0  0  0  0  0  0  0
   19.2207   17.9615   25.1047 C   0  0  0  0  0  0  0  0  0  0  0  0
   18.9053   16.9104   25.0584 H   0  0  0  0  0  0  0  0  0  0  0  0
   18.3033   18.5445   25.2663 H   0  0  0  0  0  0  0  0  0  0  0  0
   19.8471   18.3231   23.7347 C   0  0  0  0  0  0  0  0  0  0  0  0
   19.1495   17.9909   22.9559 H   0  0  0  0  0  0  0  0  0  0  0  0
   20.7754   17.7544   23.5886 H   0  0  0  0  0  0  0  0  0  0  0  0
   20.1225   19.8334   23.5447 C   0  0  0  0  0  0  0  0  0  0  0  0
   19.1887   20.3958   23.6801 H   0  0  0  0  0  0  0  0  0  0  0  0
   20.8088   20.1804   24.3261 H   0  0  0  0  0  0  0  0  0  0  0  0
   20.7515   20.1973   22.1759 C   0  0  0  0  0  0  0  0  0  0  0  0
   21.7322   19.7130   22.0731 H   0  0  0  0  0  0  0  0  0  0  0  0
   20.9524   21.2773   22.1821 H   0  0  0  0  0  0  0  0  0  0  0  0
   19.8633   19.8792   20.9470 C   0  0  0  0  0  0  0  0  0  0  0  0
   18.8029   19.8705   21.2346 H   0  0  0  0  0  0  0  0  0  0  0  0
   19.9734   20.6897   20.2134 H   0  0  0  0  0  0  0  0  0  0  0  0
   20.2418   18.5515   20.2535 C   0  0  0  0  0  0  0  0  0  0  0  0
   21.2762   18.5842   19.8873 H   0  0  0  0  0  0  0  0  0  0  0  0
   20.1516   17.6962   20.9330 H   0  0  0  0  0  0  0  0  0  0  0  0
   19.5866   18.3673   19.3923 H   0  0  0  0  0  0  0  0  0  0  0  0
  1  2  1  0  0  0  0
  1  3  2  0  0  0  0
  1  4  1  0  0  0  0
  4  5  1  0  0  0  0
  4  6  1  0  0  0  0
  4  7  1  0  0  0  0
  7  8  1  0  0  0  0
  7  9  1  0  0  0  0
  7 10  1  0  0  0  0
 10 11  1  0  0  0  0
 10 12  1  0  0  0  0
 10 13  1  0  0  0  0
 13 14  1  0  0  0  0
 13 15  1  0  0  0  0
 13 16  1  0  0  0  0
 16 17  1  0  0  0  0
 16 18  1  0  0  0  0
 16 19  1  0  0  0  0
 19 20  1  0  0  0  0
 19 21  1  0  0  0  0
 19 22  1  0  0  0  0
 22 23  1  0  0  0  0
 22 24  1  0  0  0  0
 22 25  1  0  0  0  0
M  END
> <VM2 Rank>
185

> <Conf_Id>
544

> <Probability>
0.00

> <Sum Probability>
100.00

> <Delta G>
7.591

> <G>
-0.372

> <E>
-25.550

> <-TS>
25.178

> <U+W>
-46.117

> <U>
14.421

> <W>
-60.539

> <W(PB)>
-62.931

> <W(SA)>
2.392

> <Valence>
12.698

> <Coulomb>
0.769

> <VdW>
0.954

> <VdW6>
-11.273

> <VdW12>
12.226

> <Bond>
0.285

> <Angle>
4.019

> <Pdih>
8.389

> <Idih>
0.005

> <Tether>
0.000

$$$$
VeraChem MOL file


 25 24  0  0  0  0  0  0  0  0999 V2000     
   20.0828   19.0288   26.8806 C   0  0  0  0  0  0  0  0  0  0  0  0
   20.4780   17.8847   26.9908 O   0  5  0  0  0  0  0  0  0  0  0  0
   18.9942   19.4027   27.2712 O   0  0  0  0  0  0  0  0  0  0  0  0
   21.0308   20.0628   26.2764 C   0  0  0  0  0  0  0  0  0  0  0  0
   21.9828   19.5756   26.0338 H   0  0  0  0  0  0  0  0  0  0  0  0
   21.2432   20.7862   27.0721 H   0  0  0  0  0  0  0  0  0  0  0  0
   20.4822   20.8232   25.0359 C   0  0  0  0  0  0  0  0  0  0  0  0
   19.4360   21.1139   25.2047 H   0  0  0  0  0  0  0  0  0  0  0  0
   21.0442   21.7622   24.9416 H   0  0  0  0  0  0  0  0  0  0  0  0
   20.6135   20.0620   23.6929 C   0  0  0  0  0  0  0  0  0  0  0  0
   21.6567   19.7538   23.5408 H   0  0  0  0  0  0  0  0  0  0  0  0
   20.3747   20.7694   22.8891 H   0  0  0  0  0  0  0  0  0  0  0  0
   19.6810   18.8342   23.5687 C   0  0  0  0  0  0  0  0  0  0  0  0
   19.9011   18.1254   24.3756 H   0  0  0  0  0  0  0  0  0  0  0  0
   18.6385   19.1503   23.7095 H   0  0  0  0  0  0  0  0  0  0  0  0
   19.8127   18.0695   22.2272 C   0  0  0  0  0  0  0  0  0  0  0  0
   19.1509   17.1942   22.2803 H   0  0  0  0  0  0  0  0  0  0  0  0
   20.8297   17.6674   22.1228 H   0  0  0  0  0  0  0  0  0  0  0  0
   19.4272   18.8897   20.9707 C   0  0  0  0  0  0  0  0  0  0  0  0
   18.8905   18.2329   20.2722 H   0  0  0  0  0  0  0  0  0  0  0  0
   18.7235   19.6899   21.2383 H   0  0  0  0  0  0  0  0  0  0  0  0
   20.6506   19.4763   20.2315 C   0  0  0  0  0  0  0  0  0  0  0  0
   21.3177   18.6760   19.8858 H   0  0  0  0  0  0  0  0  0  0  0  0
   20.3298   20.0492   19.3519 H   0  0  0  0  0  0  0  0  0  0  0  0
   21.2328   20.1464   20.8745 H   0  0  0  0  0  0  0  0  0  0  0  0
  1  2  1  0  0  0  0
  1  3  2  0  0  0  0
  1  4  1  0  0  0  0
  4  5  1  0  0  0  0
  4  6  1  0  0  0  0
  4  7  1  0  0  0  0
  7  8  1  0  0  0  0
  7  9  1  0  0  0  0
  7 10  1  0  0  0  0
 10 11  1  0  0  0  0
 10 12  1  0  0  0  0
 10 13  1  0  0  0  0
 13 14  1  0  0  0  0
 13 15  1  0  0  0  0
 13 16  1  0  0  0  0
 16 17  1  0  0  0  0
 16 18  1  0  0  0  0
 16 19  1  0  0  0  0
 19 20  1  0  0  0  0
 19 21  1  0  0  0  0
 19 22  1  0  0  0  0
 22 23  1  0  0  0  0
 22 24  1  0  0  0  0
 22 25  1  0  0  0  0
M  END
> <VM2 Rank>
186

> <Conf_Id>
820

> <Probability>
0.00

> <Sum Probability>
100.00

> <Delta G>
7.650

> <G>
-0.312

> <E>
-25.489

> <-TS>
25.177

> <U+W>
-46.057

> <U>
14.422

> <W>
-60.479

> <W(PB)>
-62.879

> <W(SA)>
2.400

> <Valence>
12.698

> <Coulomb>
0.771

> <VdW>
0.953

> <VdW6>
-11.272

> <VdW12>
12.225

> <Bond>
0.285

> <Angle>
4.019

> <Pdih>
8.388

> <Idih>
0.006

> <Tether>
0.000

$$$$
VeraChem MOL file


 25 24  0  0  0  0  0  0  0  0999 V2000     
   19.7465   19.6321   26.5291 C   0  0  0  0  0  0  0  0  0  0  0  0
   20.6536   20.1515   27.1497 O   0  5  0  0  0  0  0  0  0  0  0  0
   18.7166   20.2085   26.2388 O   0  0  0  0  0  0  0  0  0  0  0  0
   19.8759   18.1571   26.1544 C   0  0  0  0  0  0  0  0  0  0  0  0
   18.9592   17.8377   25.6440 H   0  0  0  0  0  0  0  0  0  0  0  0
   19.9190   17.6021   27.0986 H   0  0  0  0  0  0  0  0  0  0  0  0
   21.1222   17.7959   25.2979 C   0  0  0  0  0  0  0  0  0  0  0  0
   22.0135   18.2962   25.7014 H   0  0  0  0  0  0  0  0  0  0  0  0
   21.3060   16.7184   25.4062 H   0  0  0  0  0  0  0  0  0  0  0  0
   20.9790   18.0993   23.7858 C   0  0  0  0  0  0  0  0  0  0  0  0
   20.0865   17.5949   23.3974 H   0  0  0  0  0  0  0  0  0  0  0  0
   21.8347   17.6471   23.2664 H   0  0  0  0  0  0  0  0  0  0  0  0
   20.9392   19.6104   23.4483 C   0  0  0  0  0  0  0  0  0  0  0  0
   20.0550   20.0856   23.8907 H   0  0  0  0  0  0  0  0  0  0  0  0
   21.8114   20.0889   23.9143 H   0  0  0  0  0  0  0  0  0  0  0  0
   20.9735   19.9011   21.9257 C   0  0  0  0  0  0  0  0  0  0  0  0
   21.5241   19.1110   21.3974 H   0  0  0  0  0  0  0  0  0  0  0  0
   21.5508   20.8224   21.7681 H   0  0  0  0  0  0  0  0  0  0  0  0
   19.5837   20.1070   21.2738 C   0  0  0  0  0  0  0  0  0  0  0  0
   19.0798   20.9624   21.7446 H   0  0  0  0  0  0  0  0  0  0  0  0
   19.7303   20.3788   20.2194 H   0  0  0  0  0  0  0  0  0  0  0  0
   18.6628   18.8711   21.3424 C   0  0  0  0  0  0  0  0  0  0  0  0
   18.3471   18.6718   22.3740 H   0  0  0  0  0  0  0  0  0  0  0  0
   17.7561   19.0344   20.7458 H   0  0  0  0  0  0  0  0  0  0  0  0
   19.1697   17.9790   20.9524 H   0  0  0  0  0  0  0  0  0  0  0  0
  1  2  1  0  0  0  0
  1  3  2  0  0  0  0
  1  4  1  0  0  0  0
  4  5  1  0  0  0  0
  4  6  1  0  0  0  0
  4  7  1  0  0  0  0
  7  8  1  0  0  0  0
  7  9  1  0  0  0  0
  7 10  1  0  0  0  0
 10 11  1  0  0  0  0
 10 12  1  0  0  0  0
 10 13  1  0  0  0  0
 13 14  1  0  0  0  0
 13 15  1  0  0  0  0
 13 16  1  0  0  0  0
 16 17  1  0  0  0  0
 16 18  1  0  0  0  0
 16 19  1  0  0  0  0
 19 20  1  0  0  0  0
 19 21  1  0  0  0  0
 19 22  1  0  0  0  0
 22 23  1  0  0  0  0
 22 24  1  0  0  0  0
 22 25  1  0  0  0  0
M  END
> <VM2 Rank>
187

> <Conf_Id>
431

> <Probability>
0.00

> <Sum Probability>
100.00

> <Delta G>
7.741

> <G>
-0.221

> <E>
-25.442

> <-TS>
25.221

> <U+W>
-46.010

> <U>
15.042

> <W>
-61.051

> <W(PB)>
-63.403

> <W(SA)>
2.351

> <Valence>
12.413

> <Coulomb>
1.927

> <VdW>
0.702

> <VdW6>
-11.648

> <VdW12>
12.350

> <Bond>
0.287

> <Angle>
3.936

> <Pdih>
8.183

> <Idih>
0.007

> <Tether>
0.000

$$$$
VeraChem MOL file


 25 24  0  0  0  0  0  0  0  0999 V2000     
   20.5038   19.6800   26.5211 C   0  0  0  0  0  0  0  0  0  0  0  0
   21.4452   20.3822   26.2086 O   0  5  0  0  0  0  0  0  0  0  0  0
   19.5526   20.0806   27.1634 O   0  0  0  0  0  0  0  0  0  0  0  0
   20.5540   18.2001   26.1462 C   0  0  0  0  0  0  0  0  0  0  0  0
   20.6038   17.6450   27.0900 H   0  0  0  0  0  0  0  0  0  0  0  0
   21.4918   17.9994   25.6141 H   0  0  0  0  0  0  0  0  0  0  0  0
   19.3441   17.6829   25.3182 C   0  0  0  0  0  0  0  0  0  0  0  0
   19.3008   16.5910   25.4287 H   0  0  0  0  0  0  0  0  0  0  0  0
   18.4061   18.0667   25.7430 H   0  0  0  0  0  0  0  0  0  0  0  0
   19.4127   18.0003   23.8037 C   0  0  0  0  0  0  0  0  0  0  0  0
   18.6087   17.4436   23.3036 H   0  0  0  0  0  0  0  0  0  0  0  0
   20.3522   17.6117   23.3937 H   0  0  0  0  0  0  0  0  0  0  0  0
   19.2544   19.5041   23.4681 C   0  0  0  0  0  0  0  0  0  0  0  0
   18.3405   19.8698   23.9557 H   0  0  0  0  0  0  0  0  0  0  0  0
   20.0823   20.0869   23.8903 H   0  0  0  0  0  0  0  0  0  0  0  0
   19.1475   19.7865   21.9474 C   0  0  0  0  0  0  0  0  0  0  0  0
   18.4558   20.6281   21.8054 H   0  0  0  0  0  0  0  0  0  0  0  0
   18.6876   18.9331   21.4309 H   0  0  0  0  0  0  0  0  0  0  0  0
   20.4846   20.1640   21.2627 C   0  0  0  0  0  0  0  0  0  0  0  0
   20.2797   20.4144   20.2127 H   0  0  0  0  0  0  0  0  0  0  0  0
   20.8887   21.0763   21.7230 H   0  0  0  0  0  0  0  0  0  0  0  0
   21.5542   19.0532   21.3066 C   0  0  0  0  0  0  0  0  0  0  0  0
   21.1536   18.1042   20.9272 H   0  0  0  0  0  0  0  0  0  0  0  0
   22.4186   19.3280   20.6886 H   0  0  0  0  0  0  0  0  0  0  0  0
   21.9173   18.8960   22.3299 H   0  0  0  0  0  0  0  0  0  0  0  0
  1  2  1  0  0  0  0
  1  3  2  0  0  0  0
  1  4  1  0  0  0  0
  4  5  1  0  0  0  0
  4  6  1  0  0  0  0
  4  7  1  0  0  0  0
  7  8  1  0  0  0  0
  7  9  1  0  0  0  0
  7 10  1  0  0  0  0
 10 11  1  0  0  0  0
 10 12  1  0  0  0  0
 10 13  1  0  0  0  0
 13 14  1  0  0  0  0
 13 15  1  0  0  0  0
 13 16  1  0  0  0  0
 16 17  1  0  0  0  0
 16 18  1  0  0  0  0
 16 19  1  0  0  0  0
 19 20  1  0  0  0  0
 19 21  1  0  0  0  0
 19 22  1  0  0  0  0
 22 23  1  0  0  0  0
 22 24  1  0  0  0  0
 22 25  1  0  0  0  0
M  END
> <VM2 Rank>
188

> <Conf_Id>
717

> <Probability>
0.00

> <Sum Probability>
100.00

> <Delta G>
7.743

> <G>
-0.220

> <E>
-25.442

> <-TS>
25.223

> <U+W>
-46.010

> <U>
15.039

> <W>
-61.048

> <W(PB)>
-63.409

> <W(SA)>
2.361

> <Valence>
12.413

> <Coulomb>
1.923

> <VdW>
0.703

> <VdW6>
-11.648

> <VdW12>
12.352

> <Bond>
0.287

> <Angle>
3.936

> <Pdih>
8.182

> <Idih>
0.007

> <Tether>
0.000

$$$$
VeraChem MOL file


 25 24  0  0  0  0  0  0  0  0999 V2000     
   20.5987   19.0678   26.5976 C   0  0  0  0  0  0  0  0  0  0  0  0
   21.6250   19.7018   26.4503 O   0  5  0  0  0  0  0  0  0  0  0  0
   20.0066   18.9841   27.6559 O   0  0  0  0  0  0  0  0  0  0  0  0
   20.0353   18.3118   25.3977 C   0  0  0  0  0  0  0  0  0  0  0  0
   19.8316   17.2856   25.7244 H   0  0  0  0  0  0  0  0  0  0  0  0
   20.8152   18.2456   24.6313 H   0  0  0  0  0  0  0  0  0  0  0  0
   18.7375   18.9324   24.8110 C   0  0  0  0  0  0  0  0  0  0  0  0
   18.3396   18.2834   24.0215 H   0  0  0  0  0  0  0  0  0  0  0  0
   17.9712   18.9471   25.5982 H   0  0  0  0  0  0  0  0  0  0  0  0
   18.9100   20.3713   24.2644 C   0  0  0  0  0  0  0  0  0  0  0  0
   19.2015   21.0298   25.0940 H   0  0  0  0  0  0  0  0  0  0  0  0
   17.9327   20.7383   23.9230 H   0  0  0  0  0  0  0  0  0  0  0  0
   19.9395   20.5447   23.1166 C   0  0  0  0  0  0  0  0  0  0  0  0
   20.0035   21.6204   22.9040 H   0  0  0  0  0  0  0  0  0  0  0  0
   20.9427   20.2609   23.4556 H   0  0  0  0  0  0  0  0  0  0  0  0
   19.5658   19.8281   21.7904 C   0  0  0  0  0  0  0  0  0  0  0  0
   19.9144   20.4445   20.9506 H   0  0  0  0  0  0  0  0  0  0  0  0
   18.4724   19.7892   21.6939 H   0  0  0  0  0  0  0  0  0  0  0  0
   20.1491   18.4039   21.6109 C   0  0  0  0  0  0  0  0  0  0  0  0
   19.8593   17.7563   22.4458 H   0  0  0  0  0  0  0  0  0  0  0  0
   19.7025   17.9575   20.7119 H   0  0  0  0  0  0  0  0  0  0  0  0
   21.6855   18.3881   21.4513 C   0  0  0  0  0  0  0  0  0  0  0  0
   22.1902   18.7271   22.3641 H   0  0  0  0  0  0  0  0  0  0  0  0
   22.0376   17.3709   21.2366 H   0  0  0  0  0  0  0  0  0  0  0  0
   22.0012   19.0359   20.6233 H   0  0  0  0  0  0  0  0  0  0  0  0
  1  2  1  0  0  0  0
  1  3  2  0  0  0  0
  1  4  1  0  0  0  0
  4  5  1  0  0  0  0
  4  6  1  0  0  0  0
  4  7  1  0  0  0  0
  7  8  1  0  0  0  0
  7  9  1  0  0  0  0
  7 10  1  0  0  0  0
 10 11  1  0  0  0  0
 10 12  1  0  0  0  0
 10 13  1  0  0  0  0
 13 14  1  0  0  0  0
 13 15  1  0  0  0  0
 13 16  1  0  0  0  0
 16 17  1  0  0  0  0
 16 18  1  0  0  0  0
 16 19  1  0  0  0  0
 19 20  1  0  0  0  0
 19 21  1  0  0  0  0
 19 22  1  0  0  0  0
 22 23  1  0  0  0  0
 22 24  1  0  0  0  0
 22 25  1  0  0  0  0
M  END
> <VM2 Rank>
189

> <Conf_Id>
1117

> <Probability>
0.00

> <Sum Probability>
100.00

> <Delta G>
7.750

> <G>
-0.212

> <E>
-26.031

> <-TS>
25.819

> <U+W>
-46.599

> <U>
14.175

> <W>
-60.774

> <W(PB)>
-63.109

> <W(SA)>
2.335

> <Valence>
12.070

> <Coulomb>
1.752

> <VdW>
0.353

> <VdW6>
-12.459

> <VdW12>
12.812

> <Bond>
0.325

> <Angle>
4.281

> <Pdih>
7.463

> <Idih>
0.001

> <Tether>
0.000

$$$$
VeraChem MOL file


 25 24  0  0  0  0  0  0  0  0999 V2000     
   19.8121   19.1677   26.7596 C   0  0  0  0  0  0  0  0  0  0  0  0
   19.7476   17.9763   26.9914 O   0  5  0  0  0  0  0  0  0  0  0  0
   18.8687   19.9253   26.8757 O   0  0  0  0  0  0  0  0  0  0  0  0
   21.1682   19.7529   26.3696 C   0  0  0  0  0  0  0  0  0  0  0  0
   21.9158   18.9505   26.3676 H   0  0  0  0  0  0  0  0  0  0  0  0
   21.4495   20.4419   27.1743 H   0  0  0  0  0  0  0  0  0  0  0  0
   21.1953   20.5177   25.0163 C   0  0  0  0  0  0  0  0  0  0  0  0
   20.3169   21.1735   24.9392 H   0  0  0  0  0  0  0  0  0  0  0  0
   22.0693   21.1828   25.0194 H   0  0  0  0  0  0  0  0  0  0  0  0
   21.2937   19.6152   23.7614 C   0  0  0  0  0  0  0  0  0  0  0  0
   22.1843   18.9766   23.8363 H   0  0  0  0  0  0  0  0  0  0  0  0
   21.4578   20.2609   22.8905 H   0  0  0  0  0  0  0  0  0  0  0  0
   20.0453   18.7312   23.5227 C   0  0  0  0  0  0  0  0  0  0  0  0
   20.0055   17.9667   24.3089 H   0  0  0  0  0  0  0  0  0  0  0  0
   19.1277   19.3266   23.6250 H   0  0  0  0  0  0  0  0  0  0  0  0
   20.0616   18.0082   22.1517 C   0  0  0  0  0  0  0  0  0  0  0  0
   19.6233   17.0100   22.2870 H   0  0  0  0  0  0  0  0  0  0  0  0
   21.0960   17.8381   21.8230 H   0  0  0  0  0  0  0  0  0  0  0  0
   19.2580   18.7230   21.0371 C   0  0  0  0  0  0  0  0  0  0  0  0
   19.2637   18.0883   20.1403 H   0  0  0  0  0  0  0  0  0  0  0  0
   18.2066   18.8133   21.3430 H   0  0  0  0  0  0  0  0  0  0  0  0
   19.8025   20.1166   20.6605 C   0  0  0  0  0  0  0  0  0  0  0  0
   19.6834   20.8252   21.4898 H   0  0  0  0  0  0  0  0  0  0  0  0
   20.8664   20.0652   20.3952 H   0  0  0  0  0  0  0  0  0  0  0  0
   19.2576   20.5216   19.7980 H   0  0  0  0  0  0  0  0  0  0  0  0
  1  2  1  0  0  0  0
  1  3  2  0  0  0  0
  1  4  1  0  0  0  0
  4  5  1  0  0  0  0
  4  6  1  0  0  0  0
  4  7  1  0  0  0  0
  7  8  1  0  0  0  0
  7  9  1  0  0  0  0
  7 10  1  0  0  0  0
 10 11  1  0  0  0  0
 10 12  1  0  0  0  0
 10 13  1  0  0  0  0
 13 14  1  0  0  0  0
 13 15  1  0  0  0  0
 13 16  1  0  0  0  0
 16 17  1  0  0  0  0
 16 18  1  0  0  0  0
 16 19  1  0  0  0  0
 19 20  1  0  0  0  0
 19 21  1  0  0  0  0
 19 22  1  0  0  0  0
 22 23  1  0  0  0  0
 22 24  1  0  0  0  0
 22 25  1  0  0  0  0
M  END
> <VM2 Rank>
190

> <Conf_Id>
522

> <Probability>
0.00

> <Sum Probability>
100.00

> <Delta G>
7.754

> <G>
-0.209

> <E>
-25.654

> <-TS>
25.446

> <U+W>
-46.222

> <U>
14.482

> <W>
-60.704

> <W(PB)>
-63.082

> <W(SA)>
2.379

> <Valence>
12.477

> <Coulomb>
1.221

> <VdW>
0.784

> <VdW6>
-11.566

> <VdW12>
12.350

> <Bond>
0.279

> <Angle>
3.852

> <Pdih>
8.339

> <Idih>
0.007

> <Tether>
0.000

$$$$
VeraChem MOL file


 25 24  0  0  0  0  0  0  0  0999 V2000     
   20.1285   19.6624   26.7470 C   0  0  0  0  0  0  0  0  0  0  0  0
   21.1877   20.2285   26.9340 O   0  5  0  0  0  0  0  0  0  0  0  0
   19.0476   20.2051   26.8687 O   0  0  0  0  0  0  0  0  0  0  0  0
   20.1579   18.1727   26.4102 C   0  0  0  0  0  0  0  0  0  0  0  0
   19.6696   17.6581   27.2457 H   0  0  0  0  0  0  0  0  0  0  0  0
   21.1998   17.8306   26.3965 H   0  0  0  0  0  0  0  0  0  0  0  0
   19.4442   17.7784   25.0865 C   0  0  0  0  0  0  0  0  0  0  0  0
   19.2080   16.7068   25.1340 H   0  0  0  0  0  0  0  0  0  0  0  0
   18.4784   18.2975   25.0130 H   0  0  0  0  0  0  0  0  0  0  0  0
   20.2751   18.0219   23.8023 C   0  0  0  0  0  0  0  0  0  0  0  0
   19.7382   17.5705   22.9595 H   0  0  0  0  0  0  0  0  0  0  0  0
   21.2304   17.4847   23.8747 H   0  0  0  0  0  0  0  0  0  0  0  0
   20.5466   19.5164   23.5025 C   0  0  0  0  0  0  0  0  0  0  0  0
   19.6232   20.1027   23.6049 H   0  0  0  0  0  0  0  0  0  0  0  0
   21.2414   19.9018   24.2594 H   0  0  0  0  0  0  0  0  0  0  0  0
   21.1776   19.7548   22.1070 C   0  0  0  0  0  0  0  0  0  0  0  0
   21.7593   18.8761   21.7967 H   0  0  0  0  0  0  0  0  0  0  0  0
   21.9018   20.5762   22.1957 H   0  0  0  0  0  0  0  0  0  0  0  0
   20.1657   20.1431   21.0005 C   0  0  0  0  0  0  0  0  0  0  0  0
   19.6487   21.0700   21.2847 H   0  0  0  0  0  0  0  0  0  0  0  0
   20.7231   20.3715   20.0817 H   0  0  0  0  0  0  0  0  0  0  0  0
   19.1220   19.0507   20.6874 C   0  0  0  0  0  0  0  0  0  0  0  0
   18.5058   19.3435   19.8275 H   0  0  0  0  0  0  0  0  0  0  0  0
   19.6099   18.0977   20.4457 H   0  0  0  0  0  0  0  0  0  0  0  0
   18.4483   18.8918   21.5388 H   0  0  0  0  0  0  0  0  0  0  0  0
  1  2  1  0  0  0  0
  1  3  2  0  0  0  0
  1  4  1  0  0  0  0
  4  5  1  0  0  0  0
  4  6  1  0  0  0  0
  4  7  1  0  0  0  0
  7  8  1  0  0  0  0
  7  9  1  0  0  0  0
  7 10  1  0  0  0  0
 10 11  1  0  0  0  0
 10 12  1  0  0  0  0
 10 13  1  0  0  0  0
 13 14  1  0  0  0  0
 13 15  1  0  0  0  0
 13 16  1  0  0  0  0
 16 17  1  0  0  0  0
 16 18  1  0  0  0  0
 16 19  1  0  0  0  0
 19 20  1  0  0  0  0
 19 21  1  0  0  0  0
 19 22  1  0  0  0  0
 22 23  1  0  0  0  0
 22 24  1  0  0  0  0
 22 25  1  0  0  0  0
M  END
> <VM2 Rank>
191

> <Conf_Id>
75

> <Probability>
0.00

> <Sum Probability>
100.00

> <Delta G>
7.778

> <G>
-0.184

> <E>
-25.630

> <-TS>
25.446

> <U+W>
-46.198

> <U>
14.481

> <W>
-60.678

> <W(PB)>
-63.039

> <W(SA)>
2.361

> <Valence>
12.477

> <Coulomb>
1.220

> <VdW>
0.784

> <VdW6>
-11.565

> <VdW12>
12.349

> <Bond>
0.279

> <Angle>
3.853

> <Pdih>
8.338

> <Idih>
0.007

> <Tether>
0.000

$$$$
VeraChem MOL file


 25 24  0  0  0  0  0  0  0  0999 V2000     
   20.1577   18.5076   26.0157 C   0  0  0  0  0  0  0  0  0  0  0  0
   21.1643   17.8445   25.8585 O   0  5  0  0  0  0  0  0  0  0  0  0
   19.0342   18.0456   25.9679 O   0  0  0  0  0  0  0  0  0  0  0  0
   20.3173   19.9730   26.4175 C   0  0  0  0  0  0  0  0  0  0  0  0
   21.3842   20.1950   26.5407 H   0  0  0  0  0  0  0  0  0  0  0  0
   19.8604   20.0710   27.4090 H   0  0  0  0  0  0  0  0  0  0  0  0
   19.6591   21.0014   25.4550 C   0  0  0  0  0  0  0  0  0  0  0  0
   18.6632   20.6509   25.1530 H   0  0  0  0  0  0  0  0  0  0  0  0
   19.4874   21.9278   26.0193 H   0  0  0  0  0  0  0  0  0  0  0  0
   20.5130   21.3651   24.2121 C   0  0  0  0  0  0  0  0  0  0  0  0
   21.4805   21.7613   24.5490 H   0  0  0  0  0  0  0  0  0  0  0  0
   20.0205   22.1893   23.6784 H   0  0  0  0  0  0  0  0  0  0  0  0
   20.7688   20.2128   23.2100 C   0  0  0  0  0  0  0  0  0  0  0  0
   21.4100   20.5923   22.4031 H   0  0  0  0  0  0  0  0  0  0  0  0
   21.3403   19.4166   23.7016 H   0  0  0  0  0  0  0  0  0  0  0  0
   19.4717   19.6386   22.5896 C   0  0  0  0  0  0  0  0  0  0  0  0
   18.8722   20.4643   22.1834 H   0  0  0  0  0  0  0  0  0  0  0  0
   18.8618   19.1621   23.3684 H   0  0  0  0  0  0  0  0  0  0  0  0
   19.7352   18.6152   21.4607 C   0  0  0  0  0  0  0  0  0  0  0  0
   18.7752   18.3422   21.0015 H   0  0  0  0  0  0  0  0  0  0  0  0
   20.3379   19.0806   20.6688 H   0  0  0  0  0  0  0  0  0  0  0  0
   20.4317   17.3303   21.9590 C   0  0  0  0  0  0  0  0  0  0  0  0
   20.5102   16.5944   21.1486 H   0  0  0  0  0  0  0  0  0  0  0  0
   21.4465   17.5395   22.3198 H   0  0  0  0  0  0  0  0  0  0  0  0
   19.8663   16.8721   22.7816 H   0  0  0  0  0  0  0  0  0  0  0  0
  1  2  1  0  0  0  0
  1  3  2  0  0  0  0
  1  4  1  0  0  0  0
  4  5  1  0  0  0  0
  4  6  1  0  0  0  0
  4  7  1  0  0  0  0
  7  8  1  0  0  0  0
  7  9  1  0  0  0  0
  7 10  1  0  0  0  0
 10 11  1  0  0  0  0
 10 12  1  0  0  0  0
 10 13  1  0  0  0  0
 13 14  1  0  0  0  0
 13 15  1  0  0  0  0
 13 16  1  0  0  0  0
 16 17  1  0  0  0  0
 16 18  1  0  0  0  0
 16 19  1  0  0  0  0
 19 20  1  0  0  0  0
 19 21  1  0  0  0  0
 19 22  1  0  0  0  0
 22 23  1  0  0  0  0
 22 24  1  0  0  0  0
 22 25  1  0  0  0  0
M  END
> <VM2 Rank>
192

> <Conf_Id>
536

> <Probability>
0.00

> <Sum Probability>
100.00

> <Delta G>
7.892

> <G>
-0.070

> <E>
-25.961

> <-TS>
25.890

> <U+W>
-46.528

> <U>
14.294

> <W>
-60.822

> <W(PB)>
-63.130

> <W(SA)>
2.308

> <Valence>
10.557

> <Coulomb>
3.764

> <VdW>
-0.028

> <VdW6>
-12.698

> <VdW12>
12.670

> <Bond>
0.274

> <Angle>
3.852

> <Pdih>
6.410

> <Idih>
0.022

> <Tether>
0.000

$$$$
VeraChem MOL file


 25 24  0  0  0  0  0  0  0  0999 V2000     
   20.1934   19.9916   26.0178 C   0  0  0  0  0  0  0  0  0  0  0  0
   21.2306   20.6061   25.8626 O   0  5  0  0  0  0  0  0  0  0  0  0
   19.0933   20.5071   25.9719 O   0  0  0  0  0  0  0  0  0  0  0  0
   20.2826   18.5190   26.4151 C   0  0  0  0  0  0  0  0  0  0  0  0
   19.8216   18.4399   27.4064 H   0  0  0  0  0  0  0  0  0  0  0  0
   21.3375   18.2456   26.5374 H   0  0  0  0  0  0  0  0  0  0  0  0
   19.5756   17.5263   25.4496 C   0  0  0  0  0  0  0  0  0  0  0  0
   19.3597   16.6074   26.0111 H   0  0  0  0  0  0  0  0  0  0  0  0
   18.5977   17.9251   25.1489 H   0  0  0  0  0  0  0  0  0  0  0  0
   20.4110   17.1258   24.2055 C   0  0  0  0  0  0  0  0  0  0  0  0
   19.8794   16.3278   23.6693 H   0  0  0  0  0  0  0  0  0  0  0  0
   21.3583   16.6823   24.5410 H   0  0  0  0  0  0  0  0  0  0  0  0
   20.7220   18.2675   23.2069 C   0  0  0  0  0  0  0  0  0  0  0  0
   21.3311   19.0337   23.7009 H   0  0  0  0  0  0  0  0  0  0  0  0
   21.3441   17.8601   22.3987 H   0  0  0  0  0  0  0  0  0  0  0  0
   19.4540   18.9054   22.5885 C   0  0  0  0  0  0  0  0  0  0  0  0
   18.8677   19.4083   23.3690 H   0  0  0  0  0  0  0  0  0  0  0  0
   18.8155   18.1108   22.1798 H   0  0  0  0  0  0  0  0  0  0  0  0
   19.7664   19.9186   21.4629 C   0  0  0  0  0  0  0  0  0  0  0  0
   20.3461   19.4273   20.6693 H   0  0  0  0  0  0  0  0  0  0  0  0
   18.8207   20.2390   21.0047 H   0  0  0  0  0  0  0  0  0  0  0  0
   20.5241   21.1669   21.9652 C   0  0  0  0  0  0  0  0  0  0  0  0
   21.5277   20.9079   22.3251 H   0  0  0  0  0  0  0  0  0  0  0  0
   20.6379   21.9007   21.1571 H   0  0  0  0  0  0  0  0  0  0  0  0
   19.9814   21.6490   22.7894 H   0  0  0  0  0  0  0  0  0  0  0  0
  1  2  1  0  0  0  0
  1  3  2  0  0  0  0
  1  4  1  0  0  0  0
  4  5  1  0  0  0  0
  4  6  1  0  0  0  0
  4  7  1  0  0  0  0
  7  8  1  0  0  0  0
  7  9  1  0  0  0  0
  7 10  1  0  0  0  0
 10 11  1  0  0  0  0
 10 12  1  0  0  0  0
 10 13  1  0  0  0  0
 13 14  1  0  0  0  0
 13 15  1  0  0  0  0
 13 16  1  0  0  0  0
 16 17  1  0  0  0  0
 16 18  1  0  0  0  0
 16 19  1  0  0  0  0
 19 20  1  0  0  0  0
 19 21  1  0  0  0  0
 19 22  1  0  0  0  0
 22 23  1  0  0  0  0
 22 24  1  0  0  0  0
 22 25  1  0  0  0  0
M  END
> <VM2 Rank>
193

> <Conf_Id>
89

> <Probability>
0.00

> <Sum Probability>
100.00

> <Delta G>
7.908

> <G>
-0.054

> <E>
-25.945

> <-TS>
25.891

> <U+W>
-46.513

> <U>
14.293

> <W>
-60.805

> <W(PB)>
-63.092

> <W(SA)>
2.287

> <Valence>
10.557

> <Coulomb>
3.764

> <VdW>
-0.028

> <VdW6>
-12.699

> <VdW12>
12.671

> <Bond>
0.274

> <Angle>
3.852

> <Pdih>
6.410

> <Idih>
0.021

> <Tether>
0.000

$$$$
VeraChem MOL file


 25 24  0  0  0  0  0  0  0  0999 V2000     
   20.6003   19.3237   26.6156 C   0  0  0  0  0  0  0  0  0  0  0  0
   21.6604   19.8750   26.3928 O   0  5  0  0  0  0  0  0  0  0  0  0
   20.5082   18.2144   27.1036 O   0  0  0  0  0  0  0  0  0  0  0  0
   19.3153   20.0875   26.3109 C   0  0  0  0  0  0  0  0  0  0  0  0
   19.4151   21.0747   26.7769 H   0  0  0  0  0  0  0  0  0  0  0  0
   18.4813   19.5864   26.8167 H   0  0  0  0  0  0  0  0  0  0  0  0
   18.9972   20.2679   24.8003 C   0  0  0  0  0  0  0  0  0  0  0  0
   18.1798   20.9966   24.7159 H   0  0  0  0  0  0  0  0  0  0  0  0
   19.8594   20.7181   24.2926 H   0  0  0  0  0  0  0  0  0  0  0  0
   18.5517   18.9646   24.0863 C   0  0  0  0  0  0  0  0  0  0  0  0
   17.9098   19.2200   23.2321 H   0  0  0  0  0  0  0  0  0  0  0  0
   17.9137   18.3885   24.7703 H   0  0  0  0  0  0  0  0  0  0  0  0
   19.7126   18.0612   23.5927 C   0  0  0  0  0  0  0  0  0  0  0  0
   20.5995   18.1802   24.2267 H   0  0  0  0  0  0  0  0  0  0  0  0
   19.4031   17.0138   23.7094 H   0  0  0  0  0  0  0  0  0  0  0  0
   20.1022   18.2729   22.1080 C   0  0  0  0  0  0  0  0  0  0  0  0
   19.2319   18.0713   21.4687 H   0  0  0  0  0  0  0  0  0  0  0  0
   20.8611   17.5250   21.8404 H   0  0  0  0  0  0  0  0  0  0  0  0
   20.6554   19.6807   21.7964 C   0  0  0  0  0  0  0  0  0  0  0  0
   19.8744   20.4340   21.9636 H   0  0  0  0  0  0  0  0  0  0  0  0
   21.4824   19.9135   22.4815 H   0  0  0  0  0  0  0  0  0  0  0  0
   21.1497   19.7862   20.3395 C   0  0  0  0  0  0  0  0  0  0  0  0
   20.3345   19.5827   19.6329 H   0  0  0  0  0  0  0  0  0  0  0  0
   21.5334   20.7938   20.1336 H   0  0  0  0  0  0  0  0  0  0  0  0
   21.9586   19.0696   20.1459 H   0  0  0  0  0  0  0  0  0  0  0  0
  1  2  1  0  0  0  0
  1  3  2  0  0  0  0
  1  4  1  0  0  0  0
  4  5  1  0  0  0  0
  4  6  1  0  0  0  0
  4  7  1  0  0  0  0
  7  8  1  0  0  0  0
  7  9  1  0  0  0  0
  7 10  1  0  0  0  0
 10 11  1  0  0  0  0
 10 12  1  0  0  0  0
 10 13  1  0  0  0  0
 13 14  1  0  0  0  0
 13 15  1  0  0  0  0
 13 16  1  0  0  0  0
 16 17  1  0  0  0  0
 16 18  1  0  0  0  0
 16 19  1  0  0  0  0
 19 20  1  0  0  0  0
 19 21  1  0  0  0  0
 19 22  1  0  0  0  0
 22 23  1  0  0  0  0
 22 24  1  0  0  0  0
 22 25  1  0  0  0  0
M  END
> <VM2 Rank>
194

> <Conf_Id>
371

> <Probability>
0.00

> <Sum Probability>
100.00

> <Delta G>
7.920

> <G>
-0.043

> <E>
-25.284

> <-TS>
25.242

> <U+W>
-45.852

> <U>
14.998

> <W>
-60.850

> <W(PB)>
-63.216

> <W(SA)>
2.366

> <Valence>
12.645

> <Coulomb>
1.771

> <VdW>
0.582

> <VdW6>
-11.471

> <VdW12>
12.053

> <Bond>
0.285

> <Angle>
3.669

> <Pdih>
8.687

> <Idih>
0.004

> <Tether>
0.000

$$$$
VeraChem MOL file


 25 24  0  0  0  0  0  0  0  0999 V2000     
   20.3089   19.7407   26.6066 C   0  0  0  0  0  0  0  0  0  0  0  0
   21.1955   20.5403   26.3785 O   0  5  0  0  0  0  0  0  0  0  0  0
   19.2263   20.0489   27.0650 O   0  0  0  0  0  0  0  0  0  0  0  0
   20.5901   18.2634   26.3494 C   0  0  0  0  0  0  0  0  0  0  0  0
   19.8227   17.6669   26.8573 H   0  0  0  0  0  0  0  0  0  0  0  0
   21.5419   18.0315   26.8414 H   0  0  0  0  0  0  0  0  0  0  0  0
   20.6802   17.8597   24.8512 C   0  0  0  0  0  0  0  0  0  0  0  0
   21.4094   18.5003   24.3395 H   0  0  0  0  0  0  0  0  0  0  0  0
   21.0850   16.8399   24.8039 H   0  0  0  0  0  0  0  0  0  0  0  0
   19.3177   17.8684   24.1094 C   0  0  0  0  0  0  0  0  0  0  0  0
   18.5439   17.4865   24.7892 H   0  0  0  0  0  0  0  0  0  0  0  0
   19.3539   17.1539   23.2757 H   0  0  0  0  0  0  0  0  0  0  0  0
   18.8783   19.2543   23.5674 C   0  0  0  0  0  0  0  0  0  0  0  0
   17.7862   19.3263   23.6603 H   0  0  0  0  0  0  0  0  0  0  0  0
   19.2822   20.0642   24.1869 H   0  0  0  0  0  0  0  0  0  0  0  0
   19.2406   19.5055   22.0820 C   0  0  0  0  0  0  0  0  0  0  0  0
   18.8046   20.4669   21.7782 H   0  0  0  0  0  0  0  0  0  0  0  0
   18.7651   18.7394   21.4544 H   0  0  0  0  0  0  0  0  0  0  0  0
   20.7587   19.5331   21.7997 C   0  0  0  0  0  0  0  0  0  0  0  0
   21.2478   20.2491   22.4747 H   0  0  0  0  0  0  0  0  0  0  0  0
   21.1942   18.5461   22.0036 H   0  0  0  0  0  0  0  0  0  0  0  0
   21.0567   19.9198   20.3369 C   0  0  0  0  0  0  0  0  0  0  0  0
   20.6657   20.9196   20.1071 H   0  0  0  0  0  0  0  0  0  0  0  0
   22.1387   19.9286   20.1522 H   0  0  0  0  0  0  0  0  0  0  0  0
   20.5996   19.2042   19.6410 H   0  0  0  0  0  0  0  0  0  0  0  0
  1  2  1  0  0  0  0
  1  3  2  0  0  0  0
  1  4  1  0  0  0  0
  4  5  1  0  0  0  0
  4  6  1  0  0  0  0
  4  7  1  0  0  0  0
  7  8  1  0  0  0  0
  7  9  1  0  0  0  0
  7 10  1  0  0  0  0
 10 11  1  0  0  0  0
 10 12  1  0  0  0  0
 10 13  1  0  0  0  0
 13 14  1  0  0  0  0
 13 15  1  0  0  0  0
 13 16  1  0  0  0  0
 16 17  1  0  0  0  0
 16 18  1  0  0  0  0
 16 19  1  0  0  0  0
 19 20  1  0  0  0  0
 19 21  1  0  0  0  0
 19 22  1  0  0  0  0
 22 23  1  0  0  0  0
 22 24  1  0  0  0  0
 22 25  1  0  0  0  0
M  END
> <VM2 Rank>
195

> <Conf_Id>
132

> <Probability>
0.00

> <Sum Probability>
100.00

> <Delta G>
7.973

> <G>
0.010

> <E>
-25.230

> <-TS>
25.241

> <U+W>
-45.798

> <U>
14.997

> <W>
-60.795

> <W(PB)>
-63.174

> <W(SA)>
2.379

> <Valence>
12.645

> <Coulomb>
1.770

> <VdW>
0.582

> <VdW6>
-11.471

> <VdW12>
12.053

> <Bond>
0.285

> <Angle>
3.670

> <Pdih>
8.687

> <Idih>
0.003

> <Tether>
0.000

$$$$
VeraChem MOL file


 25 24  0  0  0  0  0  0  0  0999 V2000     
   20.2490   19.7541   26.9856 C   0  0  0  0  0  0  0  0  0  0  0  0
   21.1082   20.6121   26.9386 O   0  5  0  0  0  0  0  0  0  0  0  0
   19.3783   19.7192   27.8327 O   0  0  0  0  0  0  0  0  0  0  0  0
   20.2524   18.6714   25.9123 C   0  0  0  0  0  0  0  0  0  0  0  0
   19.8832   17.7438   26.3657 H   0  0  0  0  0  0  0  0  0  0  0  0
   21.2929   18.4958   25.6185 H   0  0  0  0  0  0  0  0  0  0  0  0
   19.3867   19.0463   24.6809 C   0  0  0  0  0  0  0  0  0  0  0  0
   18.3664   19.2630   25.0260 H   0  0  0  0  0  0  0  0  0  0  0  0
   19.7661   19.9759   24.2399 H   0  0  0  0  0  0  0  0  0  0  0  0
   19.3201   17.9242   23.6140 C   0  0  0  0  0  0  0  0  0  0  0  0
   18.4980   18.1243   22.9141 H   0  0  0  0  0  0  0  0  0  0  0  0
   19.0525   16.9861   24.1191 H   0  0  0  0  0  0  0  0  0  0  0  0
   20.6334   17.7067   22.8179 C   0  0  0  0  0  0  0  0  0  0  0  0
   21.5085   17.9627   23.4277 H   0  0  0  0  0  0  0  0  0  0  0  0
   20.7238   16.6312   22.6133 H   0  0  0  0  0  0  0  0  0  0  0  0
   20.7143   18.4405   21.4530 C   0  0  0  0  0  0  0  0  0  0  0  0
   19.8789   18.1334   20.8090 H   0  0  0  0  0  0  0  0  0  0  0  0
   21.6222   18.0847   20.9470 H   0  0  0  0  0  0  0  0  0  0  0  0
   20.7927   19.9851   21.5290 C   0  0  0  0  0  0  0  0  0  0  0  0
   21.2841   20.2968   22.4604 H   0  0  0  0  0  0  0  0  0  0  0  0
   21.4368   20.3422   20.7136 H   0  0  0  0  0  0  0  0  0  0  0  0
   19.4179   20.6745   21.3819 C   0  0  0  0  0  0  0  0  0  0  0  0
   19.5280   21.7653   21.4336 H   0  0  0  0  0  0  0  0  0  0  0  0
   18.9596   20.4284   20.4153 H   0  0  0  0  0  0  0  0  0  0  0  0
   18.7225   20.3707   22.1720 H   0  0  0  0  0  0  0  0  0  0  0  0
  1  2  1  0  0  0  0
  1  3  2  0  0  0  0
  1  4  1  0  0  0  0
  4  5  1  0  0  0  0
  4  6  1  0  0  0  0
  4  7  1  0  0  0  0
  7  8  1  0  0  0  0
  7  9  1  0  0  0  0
  7 10  1  0  0  0  0
 10 11  1  0  0  0  0
 10 12  1  0  0  0  0
 10 13  1  0  0  0  0
 13 14  1  0  0  0  0
 13 15  1  0  0  0  0
 13 16  1  0  0  0  0
 16 17  1  0  0  0  0
 16 18  1  0  0  0  0
 16 19  1  0  0  0  0
 19 20  1  0  0  0  0
 19 21  1  0  0  0  0
 19 22  1  0  0  0  0
 22 23  1  0  0  0  0
 22 24  1  0  0  0  0
 22 25  1  0  0  0  0
M  END
> <VM2 Rank>
196

> <Conf_Id>
849

> <Probability>
0.00

> <Sum Probability>
100.00

> <Delta G>
8.271

> <G>
0.308

> <E>
-24.991

> <-TS>
25.300

> <U+W>
-45.559

> <U>
14.522

> <W>
-60.081

> <W(PB)>
-62.462

> <W(SA)>
2.382

> <Valence>
13.852

> <Coulomb>
-0.211

> <VdW>
0.881

> <VdW6>
-11.047

> <VdW12>
11.928

> <Bond>
0.293

> <Angle>
3.944

> <Pdih>
9.615

> <Idih>
0.000

> <Tether>
0.000

$$$$
VeraChem MOL file


 25 24  0  0  0  0  0  0  0  0999 V2000     
   19.8838   19.8952   26.6881 C   0  0  0  0  0  0  0  0  0  0  0  0
   20.0482   19.5081   27.8284 O   0  5  0  0  0  0  0  0  0  0  0  0
   19.0150   20.6796   26.3618 O   0  0  0  0  0  0  0  0  0  0  0  0
   20.8064   19.3504   25.6040 C   0  0  0  0  0  0  0  0  0  0  0  0
   21.7908   19.1741   26.0535 H   0  0  0  0  0  0  0  0  0  0  0  0
   20.9368   20.1333   24.8511 H   0  0  0  0  0  0  0  0  0  0  0  0
   20.2725   18.0416   24.9643 C   0  0  0  0  0  0  0  0  0  0  0  0
   20.1991   17.2860   25.7586 H   0  0  0  0  0  0  0  0  0  0  0  0
   19.2500   18.1861   24.5900 H   0  0  0  0  0  0  0  0  0  0  0  0
   21.1825   17.4891   23.8393 C   0  0  0  0  0  0  0  0  0  0  0  0
   21.1403   16.3922   23.8838 H   0  0  0  0  0  0  0  0  0  0  0  0
   22.2312   17.7519   24.0340 H   0  0  0  0  0  0  0  0  0  0  0  0
   20.7869   17.9046   22.3974 C   0  0  0  0  0  0  0  0  0  0  0  0
   21.4271   17.3360   21.7094 H   0  0  0  0  0  0  0  0  0  0  0  0
   19.7630   17.5737   22.1840 H   0  0  0  0  0  0  0  0  0  0  0  0
   20.9610   19.4096   22.0642 C   0  0  0  0  0  0  0  0  0  0  0  0
   21.2945   19.5035   21.0218 H   0  0  0  0  0  0  0  0  0  0  0  0
   21.7763   19.8264   22.6698 H   0  0  0  0  0  0  0  0  0  0  0  0
   19.6827   20.2676   22.2391 C   0  0  0  0  0  0  0  0  0  0  0  0
   19.2462   20.1159   23.2338 H   0  0  0  0  0  0  0  0  0  0  0  0
   19.9631   21.3285   22.1859 H   0  0  0  0  0  0  0  0  0  0  0  0
   18.6139   19.9882   21.1595 C   0  0  0  0  0  0  0  0  0  0  0  0
   18.2363   18.9604   21.2219 H   0  0  0  0  0  0  0  0  0  0  0  0
   17.7584   20.6646   21.2836 H   0  0  0  0  0  0  0  0  0  0  0  0
   19.0225   20.1431   20.1525 H   0  0  0  0  0  0  0  0  0  0  0  0
  1  2  1  0  0  0  0
  1  3  2  0  0  0  0
  1  4  1  0  0  0  0
  4  5  1  0  0  0  0
  4  6  1  0  0  0  0
  4  7  1  0  0  0  0
  7  8  1  0  0  0  0
  7  9  1  0  0  0  0
  7 10  1  0  0  0  0
 10 11  1  0  0  0  0
 10 12  1  0  0  0  0
 10 13  1  0  0  0  0
 13 14  1  0  0  0  0
 13 15  1  0  0  0  0
 13 16  1  0  0  0  0
 16 17  1  0  0  0  0
 16 18  1  0  0  0  0
 16 19  1  0  0  0  0
 19 20  1  0  0  0  0
 19 21  1  0  0  0  0
 19 22  1  0  0  0  0
 22 23  1  0  0  0  0
 22 24  1  0  0  0  0
 22 25  1  0  0  0  0
M  END
> <VM2 Rank>
197

> <Conf_Id>
1077

> <Probability>
0.00

> <Sum Probability>
100.00

> <Delta G>
8.274

> <G>
0.311

> <E>
-25.088

> <-TS>
25.399

> <U+W>
-45.655

> <U>
14.722

> <W>
-60.377

> <W(PB)>
-62.725

> <W(SA)>
2.349

> <Valence>
13.814

> <Coulomb>
0.251

> <VdW>
0.657

> <VdW6>
-11.451

> <VdW12>
12.108

> <Bond>
0.297

> <Angle>
3.965

> <Pdih>
9.552

> <Idih>
0.001

> <Tether>
0.000

$$$$
VeraChem MOL file


 25 24  0  0  0  0  0  0  0  0999 V2000     
   20.4926   18.8224   26.5837 C   0  0  0  0  0  0  0  0  0  0  0  0
   21.6767   19.0627   26.4522 O   0  5  0  0  0  0  0  0  0  0  0  0
   19.9194   18.8357   27.6555 O   0  0  0  0  0  0  0  0  0  0  0  0
   19.6840   18.4606   25.3409 C   0  0  0  0  0  0  0  0  0  0  0  0
   19.1049   17.5616   25.5817 H   0  0  0  0  0  0  0  0  0  0  0  0
   20.3826   18.1790   24.5473 H   0  0  0  0  0  0  0  0  0  0  0  0
   18.7183   19.5825   24.8675 C   0  0  0  0  0  0  0  0  0  0  0  0
   18.0300   19.1924   24.1064 H   0  0  0  0  0  0  0  0  0  0  0  0
   18.0883   19.8662   25.7220 H   0  0  0  0  0  0  0  0  0  0  0  0
   19.4276   20.8530   24.3323 C   0  0  0  0  0  0  0  0  0  0  0  0
   20.3801   21.0110   24.8562 H   0  0  0  0  0  0  0  0  0  0  0  0
   18.8027   21.7180   24.5932 H   0  0  0  0  0  0  0  0  0  0  0  0
   19.6540   20.8983   22.7978 C   0  0  0  0  0  0  0  0  0  0  0  0
   18.6932   20.8141   22.2719 H   0  0  0  0  0  0  0  0  0  0  0  0
   20.0353   21.8997   22.5557 H   0  0  0  0  0  0  0  0  0  0  0  0
   20.6633   19.8632   22.2422 C   0  0  0  0  0  0  0  0  0  0  0  0
   21.4048   19.6088   23.0114 H   0  0  0  0  0  0  0  0  0  0  0  0
   21.2268   20.3318   21.4238 H   0  0  0  0  0  0  0  0  0  0  0  0
   19.9876   18.5882   21.6866 C   0  0  0  0  0  0  0  0  0  0  0  0
   19.3602   18.1187   22.4533 H   0  0  0  0  0  0  0  0  0  0  0  0
   19.3185   18.8592   20.8583 H   0  0  0  0  0  0  0  0  0  0  0  0
   21.0296   17.5673   21.1874 C   0  0  0  0  0  0  0  0  0  0  0  0
   21.6924   17.2530   22.0042 H   0  0  0  0  0  0  0  0  0  0  0  0
   20.5344   16.6722   20.7892 H   0  0  0  0  0  0  0  0  0  0  0  0
   21.6488   17.9962   20.3887 H   0  0  0  0  0  0  0  0  0  0  0  0
  1  2  1  0  0  0  0
  1  3  2  0  0  0  0
  1  4  1  0  0  0  0
  4  5  1  0  0  0  0
  4  6  1  0  0  0  0
  4  7  1  0  0  0  0
  7  8  1  0  0  0  0
  7  9  1  0  0  0  0
  7 10  1  0  0  0  0
 10 11  1  0  0  0  0
 10 12  1  0  0  0  0
 10 13  1  0  0  0  0
 13 14  1  0  0  0  0
 13 15  1  0  0  0  0
 13 16  1  0  0  0  0
 16 17  1  0  0  0  0
 16 18  1  0  0  0  0
 16 19  1  0  0  0  0
 19 20  1  0  0  0  0
 19 21  1  0  0  0  0
 19 22  1  0  0  0  0
 22 23  1  0  0  0  0
 22 24  1  0  0  0  0
 22 25  1  0  0  0  0
M  END
> <VM2 Rank>
198

> <Conf_Id>
226

> <Probability>
0.00

> <Sum Probability>
100.00

> <Delta G>
8.584

> <G>
0.621

> <E>
-25.043

> <-TS>
25.665

> <U+W>
-45.611

> <U>
15.109

> <W>
-60.720

> <W(PB)>
-63.083

> <W(SA)>
2.363

> <Valence>
13.453

> <Coulomb>
1.186

> <VdW>
0.471

> <VdW6>
-11.723

> <VdW12>
12.194

> <Bond>
0.286

> <Angle>
3.937

> <Pdih>
9.229

> <Idih>
0.001

> <Tether>
0.000

$$$$
VeraChem MOL file


 25 24  0  0  0  0  0  0  0  0999 V2000     
   20.5501   19.9039   26.0258 C   0  0  0  0  0  0  0  0  0  0  0  0
   21.5582   20.4167   25.5813 O   0  5  0  0  0  0  0  0  0  0  0  0
   19.6023   20.5438   26.4390 O   0  0  0  0  0  0  0  0  0  0  0  0
   20.5347   18.3827   26.1854 C   0  0  0  0  0  0  0  0  0  0  0  0
   20.7459   18.1878   27.2430 H   0  0  0  0  0  0  0  0  0  0  0  0
   21.3695   17.9559   25.6167 H   0  0  0  0  0  0  0  0  0  0  0  0
   19.2044   17.6746   25.8002 C   0  0  0  0  0  0  0  0  0  0  0  0
   19.1641   16.7174   26.3373 H   0  0  0  0  0  0  0  0  0  0  0  0
   18.3488   18.2578   26.1679 H   0  0  0  0  0  0  0  0  0  0  0  0
   19.0256   17.3698   24.2906 C   0  0  0  0  0  0  0  0  0  0  0  0
   18.0958   16.7956   24.1784 H   0  0  0  0  0  0  0  0  0  0  0  0
   19.8278   16.7039   23.9442 H   0  0  0  0  0  0  0  0  0  0  0  0
   18.9301   18.6181   23.3789 C   0  0  0  0  0  0  0  0  0  0  0  0
   18.1466   18.4462   22.6283 H   0  0  0  0  0  0  0  0  0  0  0  0
   18.6058   19.4907   23.9624 H   0  0  0  0  0  0  0  0  0  0  0  0
   20.2512   18.9243   22.6366 C   0  0  0  0  0  0  0  0  0  0  0  0
   20.5140   18.0737   21.9932 H   0  0  0  0  0  0  0  0  0  0  0  0
   21.0705   19.0392   23.3568 H   0  0  0  0  0  0  0  0  0  0  0  0
   20.1413   20.2027   21.7798 C   0  0  0  0  0  0  0  0  0  0  0  0
   19.3213   20.0962   21.0563 H   0  0  0  0  0  0  0  0  0  0  0  0
   19.8913   21.0565   22.4252 H   0  0  0  0  0  0  0  0  0  0  0  0
   21.4550   20.4974   21.0283 C   0  0  0  0  0  0  0  0  0  0  0  0
   21.7160   19.6714   20.3539 H   0  0  0  0  0  0  0  0  0  0  0  0
   21.3603   21.4104   20.4264 H   0  0  0  0  0  0  0  0  0  0  0  0
   22.2847   20.6404   21.7333 H   0  0  0  0  0  0  0  0  0  0  0  0
  1  2  1  0  0  0  0
  1  3  2  0  0  0  0
  1  4  1  0  0  0  0
  4  5  1  0  0  0  0
  4  6  1  0  0  0  0
  4  7  1  0  0  0  0
  7  8  1  0  0  0  0
  7  9  1  0  0  0  0
  7 10  1  0  0  0  0
 10 11  1  0  0  0  0
 10 12  1  0  0  0  0
 10 13  1  0  0  0  0
 13 14  1  0  0  0  0
 13 15  1  0  0  0  0
 13 16  1  0  0  0  0
 16 17  1  0  0  0  0
 16 18  1  0  0  0  0
 16 19  1  0  0  0  0
 19 20  1  0  0  0  0
 19 21  1  0  0  0  0
 19 22  1  0  0  0  0
 22 23  1  0  0  0  0
 22 24  1  0  0  0  0
 22 25  1  0  0  0  0
M  END
> <VM2 Rank>
199

> <Conf_Id>
130

> <Probability>
0.00

> <Sum Probability>
100.00

> <Delta G>
8.692

> <G>
0.730

> <E>
-24.801

> <-TS>
25.531

> <U+W>
-45.369

> <U>
15.897

> <W>
-61.266

> <W(PB)>
-63.633

> <W(SA)>
2.368

> <Valence>
12.566

> <Coulomb>
3.123

> <VdW>
0.208

> <VdW6>
-11.861

> <VdW12>
12.069

> <Bond>
0.250

> <Angle>
3.828

> <Pdih>
8.466

> <Idih>
0.021

> <Tether>
0.000

$$$$
VeraChem MOL file


 25 24  0  0  0  0  0  0  0  0999 V2000     
   19.4070   18.9838   26.0302 C   0  0  0  0  0  0  0  0  0  0  0  0
   18.6886   18.1068   25.5924 O   0  5  0  0  0  0  0  0  0  0  0  0
   18.9863   20.0481   26.4410 O   0  0  0  0  0  0  0  0  0  0  0  0
   20.8970   18.6744   26.1841 C   0  0  0  0  0  0  0  0  0  0  0  0
   21.1330   17.7655   25.6178 H   0  0  0  0  0  0  0  0  0  0  0  0
   21.0471   18.4305   27.2420 H   0  0  0  0  0  0  0  0  0  0  0  0
   21.8712   19.8212   25.7901 C   0  0  0  0  0  0  0  0  0  0  0  0
   21.4859   20.7831   26.1558 H   0  0  0  0  0  0  0  0  0  0  0  0
   22.8174   19.6581   26.3235 H   0  0  0  0  0  0  0  0  0  0  0  0
   22.2002   19.9250   24.2786 C   0  0  0  0  0  0  0  0  0  0  0  0
   22.6777   18.9976   23.9335 H   0  0  0  0  0  0  0  0  0  0  0  0
   22.9595   20.7101   24.1599 H   0  0  0  0  0  0  0  0  0  0  0  0
   20.9971   20.2817   23.3710 C   0  0  0  0  0  0  0  0  0  0  0  0
   20.2167   20.7873   23.9562 H   0  0  0  0  0  0  0  0  0  0  0  0
   21.3291   21.0074   22.6161 H   0  0  0  0  0  0  0  0  0  0  0  0
   20.4121   19.0538   22.6361 C   0  0  0  0  0  0  0  0  0  0  0  0
   20.1280   18.2808   23.3605 H   0  0  0  0  0  0  0  0  0  0  0  0
   21.1839   18.6127   21.9908 H   0  0  0  0  0  0  0  0  0  0  0  0
   19.1829   19.4313   21.7834 C   0  0  0  0  0  0  0  0  0  0  0  0
   18.4053   19.8606   22.4308 H   0  0  0  0  0  0  0  0  0  0  0  0
   19.4590   20.2067   21.0557 H   0  0  0  0  0  0  0  0  0  0  0  0
   18.6106   18.2081   21.0393 C   0  0  0  0  0  0  0  0  0  0  0  0
   18.2967   17.4309   21.7487 H   0  0  0  0  0  0  0  0  0  0  0  0
   17.7362   18.4936   20.4402 H   0  0  0  0  0  0  0  0  0  0  0  0
   19.3585   17.7739   20.3631 H   0  0  0  0  0  0  0  0  0  0  0  0
  1  2  1  0  0  0  0
  1  3  2  0  0  0  0
  1  4  1  0  0  0  0
  4  5  1  0  0  0  0
  4  6  1  0  0  0  0
  4  7  1  0  0  0  0
  7  8  1  0  0  0  0
  7  9  1  0  0  0  0
  7 10  1  0  0  0  0
 10 11  1  0  0  0  0
 10 12  1  0  0  0  0
 10 13  1  0  0  0  0
 13 14  1  0  0  0  0
 13 15  1  0  0  0  0
 13 16  1  0  0  0  0
 16 17  1  0  0  0  0
 16 18  1  0  0  0  0
 16 19  1  0  0  0  0
 19 20  1  0  0  0  0
 19 21  1  0  0  0  0
 19 22  1  0  0  0  0
 22 23  1  0  0  0  0
 22 24  1  0  0  0  0
 22 25  1  0  0  0  0
M  END
> <VM2 Rank>
200

> <Conf_Id>
376

> <Probability>
0.00

> <Sum Probability>
100.00

> <Delta G>
8.758

> <G>
0.796

> <E>
-24.735

> <-TS>
25.531

> <U+W>
-45.302

> <U>
15.898

> <W>
-61.201

> <W(PB)>
-63.554

> <W(SA)>
2.353

> <Valence>
12.566

> <Coulomb>
3.124

> <VdW>
0.208

> <VdW6>
-11.861

> <VdW12>
12.069

> <Bond>
0.250

> <Angle>
3.828

> <Pdih>
8.466

> <Idih>
0.022

> <Tether>
0.000

$$$$
VeraChem MOL file


 25 24  0  0  0  0  0  0  0  0999 V2000     
   19.6369   19.6490   26.3225 C   0  0  0  0  0  0  0  0  0  0  0  0
   20.4413   20.2892   26.9717 O   0  5  0  0  0  0  0  0  0  0  0  0
   18.5591   20.0895   25.9744 O   0  0  0  0  0  0  0  0  0  0  0  0
   19.9419   18.1810   26.0223 C   0  0  0  0  0  0  0  0  0  0  0  0
   19.1815   17.7919   25.3345 H   0  0  0  0  0  0  0  0  0  0  0  0
   19.8111   17.6443   26.9688 H   0  0  0  0  0  0  0  0  0  0  0  0
   21.3663   17.8881   25.4704 C   0  0  0  0  0  0  0  0  0  0  0  0
   22.1108   18.4832   26.0171 H   0  0  0  0  0  0  0  0  0  0  0  0
   21.6042   16.8386   25.6901 H   0  0  0  0  0  0  0  0  0  0  0  0
   21.5390   18.0964   23.9440 C   0  0  0  0  0  0  0  0  0  0  0  0
   20.8519   17.4336   23.4029 H   0  0  0  0  0  0  0  0  0  0  0  0
   22.5491   17.7584   23.6754 H   0  0  0  0  0  0  0  0  0  0  0  0
   21.3818   19.5635   23.4666 C   0  0  0  0  0  0  0  0  0  0  0  0
   21.5494   20.2466   24.3103 H   0  0  0  0  0  0  0  0  0  0  0  0
   22.1746   19.7929   22.7416 H   0  0  0  0  0  0  0  0  0  0  0  0
   20.0127   19.8729   22.8128 C   0  0  0  0  0  0  0  0  0  0  0  0
   19.8955   20.9630   22.7463 H   0  0  0  0  0  0  0  0  0  0  0  0
   19.1990   19.5138   23.4553 H   0  0  0  0  0  0  0  0  0  0  0  0
   19.8655   19.2681   21.3976 C   0  0  0  0  0  0  0  0  0  0  0  0
   20.6781   19.6319   20.7538 H   0  0  0  0  0  0  0  0  0  0  0  0
   19.9582   18.1752   21.4384 H   0  0  0  0  0  0  0  0  0  0  0  0
   18.5087   19.6364   20.7639 C   0  0  0  0  0  0  0  0  0  0  0  0
   18.4005   20.7250   20.6720 H   0  0  0  0  0  0  0  0  0  0  0  0
   18.4193   19.2008   19.7603 H   0  0  0  0  0  0  0  0  0  0  0  0
   17.6766   19.2594   21.3729 H   0  0  0  0  0  0  0  0  0  0  0  0
  1  2  1  0  0  0  0
  1  3  2  0  0  0  0
  1  4  1  0  0  0  0
  4  5  1  0  0  0  0
  4  6  1  0  0  0  0
  4  7  1  0  0  0  0
  7  8  1  0  0  0  0
  7  9  1  0  0  0  0
  7 10  1  0  0  0  0
 10 11  1  0  0  0  0
 10 12  1  0  0  0  0
 10 13  1  0  0  0  0
 13 14  1  0  0  0  0
 13 15  1  0  0  0  0
 13 16  1  0  0  0  0
 16 17  1  0  0  0  0
 16 18  1  0  0  0  0
 16 19  1  0  0  0  0
 19 20  1  0  0  0  0
 19 21  1  0  0  0  0
 19 22  1  0  0  0  0
 22 23  1  0  0  0  0
 22 24  1  0  0  0  0
 22 25  1  0  0  0  0
M  END
> <VM2 Rank>
201

> <Conf_Id>
861

> <Probability>
0.00

> <Sum Probability>
100.00

> <Delta G>
8.839

> <G>
0.877

> <E>
-24.711

> <-TS>
25.588

> <U+W>
-45.279

> <U>
15.873

> <W>
-61.152

> <W(PB)>
-63.500

> <W(SA)>
2.348

> <Valence>
13.260

> <Coulomb>
2.065

> <VdW>
0.549

> <VdW6>
-12.089

> <VdW12>
12.639

> <Bond>
0.288

> <Angle>
3.906

> <Pdih>
9.049

> <Idih>
0.017

> <Tether>
0.000

$$$$
VeraChem MOL file


 25 24  0  0  0  0  0  0  0  0999 V2000     
   20.4534   18.9977   26.7506 C   0  0  0  0  0  0  0  0  0  0  0  0
   21.5598   19.5005   26.7326 O   0  5  0  0  0  0  0  0  0  0  0  0
   19.7549   18.9461   27.7440 O   0  0  0  0  0  0  0  0  0  0  0  0
   19.9202   18.3739   25.4638 C   0  0  0  0  0  0  0  0  0  0  0  0
   19.5345   17.3806   25.7209 H   0  0  0  0  0  0  0  0  0  0  0  0
   20.7628   18.2158   24.7842 H   0  0  0  0  0  0  0  0  0  0  0  0
   18.7957   19.2005   24.7803 C   0  0  0  0  0  0  0  0  0  0  0  0
   18.3246   18.6103   23.9834 H   0  0  0  0  0  0  0  0  0  0  0  0
   18.0082   19.3778   25.5260 H   0  0  0  0  0  0  0  0  0  0  0  0
   19.2598   20.5680   24.2158 C   0  0  0  0  0  0  0  0  0  0  0  0
   20.0720   20.9822   24.8284 H   0  0  0  0  0  0  0  0  0  0  0  0
   18.4239   21.2727   24.3222 H   0  0  0  0  0  0  0  0  0  0  0  0
   19.6706   20.5679   22.7196 C   0  0  0  0  0  0  0  0  0  0  0  0
   18.8316   20.2206   22.1041 H   0  0  0  0  0  0  0  0  0  0  0  0
   19.8338   21.6144   22.4282 H   0  0  0  0  0  0  0  0  0  0  0  0
   20.9643   19.7806   22.3854 C   0  0  0  0  0  0  0  0  0  0  0  0
   21.6254   19.7746   23.2624 H   0  0  0  0  0  0  0  0  0  0  0  0
   21.5175   20.3229   21.6066 H   0  0  0  0  0  0  0  0  0  0  0  0
   20.7300   18.3314   21.8909 C   0  0  0  0  0  0  0  0  0  0  0  0
   21.6904   17.7982   21.8988 H   0  0  0  0  0  0  0  0  0  0  0  0
   20.0709   17.7905   22.5804 H   0  0  0  0  0  0  0  0  0  0  0  0
   20.1444   18.2675   20.4629 C   0  0  0  0  0  0  0  0  0  0  0  0
   20.7927   18.7917   19.7488 H   0  0  0  0  0  0  0  0  0  0  0  0
   20.0533   17.2248   20.1323 H   0  0  0  0  0  0  0  0  0  0  0  0
   19.1464   18.7199   20.4153 H   0  0  0  0  0  0  0  0  0  0  0  0
  1  2  1  0  0  0  0
  1  3  2  0  0  0  0
  1  4  1  0  0  0  0
  4  5  1  0  0  0  0
  4  6  1  0  0  0  0
  4  7  1  0  0  0  0
  7  8  1  0  0  0  0
  7  9  1  0  0  0  0
  7 10  1  0  0  0  0
 10 11  1  0  0  0  0
 10 12  1  0  0  0  0
 10 13  1  0  0  0  0
 13 14  1  0  0  0  0
 13 15  1  0  0  0  0
 13 16  1  0  0  0  0
 16 17  1  0  0  0  0
 16 18  1  0  0  0  0
 16 19  1  0  0  0  0
 19 20  1  0  0  0  0
 19 21  1  0  0  0  0
 19 22  1  0  0  0  0
 22 23  1  0  0  0  0
 22 24  1  0  0  0  0
 22 25  1  0  0  0  0
M  END
> <VM2 Rank>
202

> <Conf_Id>
736

> <Probability>
0.00

> <Sum Probability>
100.00

> <Delta G>
9.671

> <G>
1.708

> <E>
-23.979

> <-TS>
25.687

> <U+W>
-44.546

> <U>
15.772

> <W>
-60.318

> <W(PB)>
-62.673

> <W(SA)>
2.355

> <Valence>
14.167

> <Coulomb>
0.909

> <VdW>
0.696

> <VdW6>
-12.061

> <VdW12>
12.758

> <Bond>
0.324

> <Angle>
4.148

> <Pdih>
9.693

> <Idih>
0.001

> <Tether>
0.000

$$$$
VeraChem MOL file


 25 24  0  0  0  0  0  0  0  0999 V2000     
   20.6696   19.1530   26.3683 C   0  0  0  0  0  0  0  0  0  0  0  0
   21.8194   19.4467   26.1059 O   0  5  0  0  0  0  0  0  0  0  0  0
   20.3363   18.0744   26.8190 O   0  0  0  0  0  0  0  0  0  0  0  0
   19.5957   20.2211   26.1843 C   0  0  0  0  0  0  0  0  0  0  0  0
   19.9698   21.1319   26.6662 H   0  0  0  0  0  0  0  0  0  0  0  0
   18.7011   19.9183   26.7415 H   0  0  0  0  0  0  0  0  0  0  0  0
   19.2269   20.5425   24.7089 C   0  0  0  0  0  0  0  0  0  0  0  0
   18.6243   21.4606   24.7092 H   0  0  0  0  0  0  0  0  0  0  0  0
   20.1355   20.7780   24.1417 H   0  0  0  0  0  0  0  0  0  0  0  0
   18.4032   19.4338   24.0029 C   0  0  0  0  0  0  0  0  0  0  0  0
   17.8084   19.8845   23.1969 H   0  0  0  0  0  0  0  0  0  0  0  0
   17.6712   19.0326   24.7170 H   0  0  0  0  0  0  0  0  0  0  0  0
   19.2364   18.2611   23.4199 C   0  0  0  0  0  0  0  0  0  0  0  0
   20.1568   18.1036   23.9934 H   0  0  0  0  0  0  0  0  0  0  0  0
   18.6533   17.3393   23.5483 H   0  0  0  0  0  0  0  0  0  0  0  0
   19.5606   18.3962   21.9086 C   0  0  0  0  0  0  0  0  0  0  0  0
   18.6189   18.4931   21.3516 H   0  0  0  0  0  0  0  0  0  0  0  0
   20.0187   17.4600   21.5618 H   0  0  0  0  0  0  0  0  0  0  0  0
   20.4894   19.5731   21.5261 C   0  0  0  0  0  0  0  0  0  0  0  0
   20.5584   19.6221   20.4308 H   0  0  0  0  0  0  0  0  0  0  0  0
   20.0451   20.5249   21.8440 H   0  0  0  0  0  0  0  0  0  0  0  0
   21.9155   19.4320   22.1022 C   0  0  0  0  0  0  0  0  0  0  0  0
   22.3789   18.4924   21.7752 H   0  0  0  0  0  0  0  0  0  0  0  0
   22.5515   20.2593   21.7621 H   0  0  0  0  0  0  0  0  0  0  0  0
   21.9102   19.4451   23.1996 H   0  0  0  0  0  0  0  0  0  0  0  0
  1  2  1  0  0  0  0
  1  3  2  0  0  0  0
  1  4  1  0  0  0  0
  4  5  1  0  0  0  0
  4  6  1  0  0  0  0
  4  7  1  0  0  0  0
  7  8  1  0  0  0  0
  7  9  1  0  0  0  0
  7 10  1  0  0  0  0
 10 11  1  0  0  0  0
 10 12  1  0  0  0  0
 10 13  1  0  0  0  0
 13 14  1  0  0  0  0
 13 15  1  0  0  0  0
 13 16  1  0  0  0  0
 16 17  1  0  0  0  0
 16 18  1  0  0  0  0
 16 19  1  0  0  0  0
 19 20  1  0  0  0  0
 19 21  1  0  0  0  0
 19 22  1  0  0  0  0
 22 23  1  0  0  0  0
 22 24  1  0  0  0  0
 22 25  1  0  0  0  0
M  END
> <VM2 Rank>
203

> <Conf_Id>
550

> <Probability>
0.00

> <Sum Probability>
100.00

> <Delta G>
9.759

> <G>
1.796

> <E>
-24.232

> <-TS>
26.028

> <U+W>
-44.799

> <U>
16.613

> <W>
-61.412

> <W(PB)>
-63.710

> <W(SA)>
2.297

> <Valence>
13.358

> <Coulomb>
3.088

> <VdW>
0.167

> <VdW6>
-12.848

> <VdW12>
13.015

> <Bond>
0.326

> <Angle>
4.201

> <Pdih>
8.823

> <Idih>
0.006

> <Tether>
0.000

$$$$
