@<TRIPOS>MOLECULE
guest-4_confgen4.mol2 : confsearch ligand conformer 1
          16          16           1
SMALL
USER_CHARGES
 
@<TRIPOS>ATOM
       1    C1      19.535331   19.360256   21.117317 C.3        1 MOL1        -0.1689
       2    H1      19.073105   20.328358   21.355648 H          1 MOL1         0.0830
       3    H2      19.978433   19.428081   20.114469 H          1 MOL1         0.0830
       4    C2      18.482021   18.248516   21.218816 C.3        1 MOL1        -0.1689
       5    H3      17.506518   18.559364   20.820664 H          1 MOL1         0.0830
       6    H4      18.818638   17.367730   20.654431 H          1 MOL1         0.0830
       7    C3      18.422181   17.913417   22.720377 C.3        1 MOL1        -0.1765
       8    H5      18.139354   16.865939   22.886643 H          1 MOL1         0.0830
       9    H6      17.667020   18.547710   23.204307 H          1 MOL1         0.0830
      10    C4      19.823069   18.220112   23.290580 C.3        1 MOL1         0.1214
      11    H7      20.358800   17.282190   23.497493 H          1 MOL1         0.0787
      12    C5      20.575040   19.005703   22.196404 C.3        1 MOL1        -0.1765
      13    H8      21.068797   19.903145   22.592412 H          1 MOL1         0.0830
      14    H9      21.351170   18.361744   21.762793 H          1 MOL1         0.0830
      15    O1      19.711358   19.006996   24.470505 O.3        1 MOL1        -0.5512
      16    H10     19.218732   18.466273   25.123551 H          1 MOL1         0.3776
@<TRIPOS>BOND
    1     1     2    1
    2     1     3    1
    3     1     4    1
    4     4     5    1
    5     4     6    1
    6     4     7    1
    7     7     8    1
    8     7     9    1
    9     7    10    1
   10    10    11    1
   11     1    12    1
   12    10    12    1
   13    12    13    1
   14    12    14    1
   15    10    15    1
   16    15    16    1
@<TRIPOS>SUBSTRUCTURE
       1 MOL1            1 RESIDUE      1      MOL     
@<SCITEGIC>MOL_PROPERTY
VConf Rank
SciTegic.value.IntegerValue
1

@<SCITEGIC>MOL_PROPERTY
Conf_Id
SciTegic.value.IntegerValue
59

@<SCITEGIC>MOL_PROPERTY
Delta U+W
SciTegic.value.DoubleValue
0.000

@<SCITEGIC>MOL_PROPERTY
U+W
SciTegic.value.DoubleValue
3.010

@<SCITEGIC>MOL_PROPERTY
Grad RMS
SciTegic.value.DoubleValue
0.000000

@<SCITEGIC>MOL_PROPERTY
U
SciTegic.value.DoubleValue
5.843

@<SCITEGIC>MOL_PROPERTY
W
SciTegic.value.DoubleValue
-2.833

@<SCITEGIC>MOL_PROPERTY
W(PB)
SciTegic.value.DoubleValue
-4.568

@<SCITEGIC>MOL_PROPERTY
W(SA)
SciTegic.value.DoubleValue
1.735

@<SCITEGIC>MOL_PROPERTY
Valence
SciTegic.value.DoubleValue
13.789

@<SCITEGIC>MOL_PROPERTY
Coulomb
SciTegic.value.DoubleValue
-8.574

@<SCITEGIC>MOL_PROPERTY
VdW
SciTegic.value.DoubleValue
0.628

@<SCITEGIC>MOL_PROPERTY
VdW6
SciTegic.value.DoubleValue
-3.284

@<SCITEGIC>MOL_PROPERTY
VdW12
SciTegic.value.DoubleValue
3.912

@<SCITEGIC>MOL_PROPERTY
Bond
SciTegic.value.DoubleValue
0.054

@<SCITEGIC>MOL_PROPERTY
Angle
SciTegic.value.DoubleValue
4.034

@<SCITEGIC>MOL_PROPERTY
Pdih
SciTegic.value.DoubleValue
9.702

@<SCITEGIC>MOL_PROPERTY
Idih
SciTegic.value.DoubleValue
0.000

@<SCITEGIC>MOL_PROPERTY
Tether
SciTegic.value.DoubleValue
0.000

@<TRIPOS>MOLECULE
guest-4_confgen4.mol2 : confsearch ligand conformer 2
          16          16           1
SMALL
USER_CHARGES
 
@<TRIPOS>ATOM
       1    C1      19.703919   19.006085   20.935194 C.3        1 MOL1        -0.1689
       2    H1      19.688762   19.912355   20.314547 H          1 MOL1         0.0830
       3    H2      20.148740   18.192839   20.344951 H          1 MOL1         0.0830
       4    C2      18.301227   18.596020   21.404267 C.3        1 MOL1        -0.1689
       5    H3      17.724826   19.493158   21.669945 H          1 MOL1         0.0830
       6    H4      17.745223   18.045590   20.633211 H          1 MOL1         0.0830
       7    C3      18.549213   17.749882   22.666657 C.3        1 MOL1        -0.1765
       8    H5      18.661279   16.694382   22.386574 H          1 MOL1         0.0830
       9    H6      17.710577   17.820799   23.372121 H          1 MOL1         0.0830
      10    C4      19.873454   18.251140   23.278968 C.3        1 MOL1         0.1214
      11    H7      20.539137   17.393875   23.456401 H          1 MOL1         0.0787
      12    C5      20.501710   19.201117   22.237539 C.3        1 MOL1        -0.1765
      13    H8      20.407674   20.244419   22.568384 H          1 MOL1         0.0830
      14    H9      21.568536   18.989130   22.089920 H          1 MOL1         0.0830
      15    O1      19.619476   18.950757   24.491374 O.3        1 MOL1        -0.5512
      16    H10     20.488861   19.254365   24.828304 H          1 MOL1         0.3776
@<TRIPOS>BOND
    1     1     2    1
    2     1     3    1
    3     1     4    1
    4     4     5    1
    5     4     6    1
    6     4     7    1
    7     7     8    1
    8     7     9    1
    9     7    10    1
   10    10    11    1
   11     1    12    1
   12    10    12    1
   13    12    13    1
   14    12    14    1
   15    10    15    1
   16    15    16    1
@<TRIPOS>SUBSTRUCTURE
       1 MOL1            1 RESIDUE      1      MOL     
@<SCITEGIC>MOL_PROPERTY
VConf Rank
SciTegic.value.IntegerValue
2

@<SCITEGIC>MOL_PROPERTY
Conf_Id
SciTegic.value.IntegerValue
33

@<SCITEGIC>MOL_PROPERTY
Delta U+W
SciTegic.value.DoubleValue
0.015

@<SCITEGIC>MOL_PROPERTY
U+W
SciTegic.value.DoubleValue
3.025

@<SCITEGIC>MOL_PROPERTY
Grad RMS
SciTegic.value.DoubleValue
0.000000

@<SCITEGIC>MOL_PROPERTY
U
SciTegic.value.DoubleValue
5.843

@<SCITEGIC>MOL_PROPERTY
W
SciTegic.value.DoubleValue
-2.819

@<SCITEGIC>MOL_PROPERTY
W(PB)
SciTegic.value.DoubleValue
-4.568

@<SCITEGIC>MOL_PROPERTY
W(SA)
SciTegic.value.DoubleValue
1.750

@<SCITEGIC>MOL_PROPERTY
Valence
SciTegic.value.DoubleValue
13.789

@<SCITEGIC>MOL_PROPERTY
Coulomb
SciTegic.value.DoubleValue
-8.574

@<SCITEGIC>MOL_PROPERTY
VdW
SciTegic.value.DoubleValue
0.628

@<SCITEGIC>MOL_PROPERTY
VdW6
SciTegic.value.DoubleValue
-3.284

@<SCITEGIC>MOL_PROPERTY
VdW12
SciTegic.value.DoubleValue
3.913

@<SCITEGIC>MOL_PROPERTY
Bond
SciTegic.value.DoubleValue
0.054

@<SCITEGIC>MOL_PROPERTY
Angle
SciTegic.value.DoubleValue
4.033

@<SCITEGIC>MOL_PROPERTY
Pdih
SciTegic.value.DoubleValue
9.702

@<SCITEGIC>MOL_PROPERTY
Idih
SciTegic.value.DoubleValue
0.000

@<SCITEGIC>MOL_PROPERTY
Tether
SciTegic.value.DoubleValue
0.000

@<TRIPOS>MOLECULE
guest-4_confgen4.mol2 : confsearch ligand conformer 3
          16          16           1
SMALL
USER_CHARGES
 
@<TRIPOS>ATOM
       1    C1      19.591199   19.357826   21.171517 C.3        1 MOL1        -0.1689
       2    H1      19.408915   20.431332   21.318440 H          1 MOL1         0.0830
       3    H2      19.924924   19.215287   20.134547 H          1 MOL1         0.0830
       4    C2      18.302030   18.560794   21.467833 C.3        1 MOL1        -0.1689
       5    H3      17.495549   19.248632   21.757133 H          1 MOL1         0.0830
       6    H4      17.961942   18.000499   20.586126 H          1 MOL1         0.0830
       7    C3      18.635076   17.608336   22.635883 C.3        1 MOL1        -0.1765
       8    H5      18.876548   16.612986   22.240166 H          1 MOL1         0.0830
       9    H6      17.794589   17.495606   23.333650 H          1 MOL1         0.0830
      10    C4      19.881544   18.189853   23.316433 C.3        1 MOL1         0.1214
      11    H7      20.478107   17.406403   23.805618 H          1 MOL1         0.0787
      12    C5      20.655199   18.856187   22.170827 C.3        1 MOL1        -0.1765
      13    H8      21.307898   19.665247   22.524960 H          1 MOL1         0.0830
      14    H9      21.289758   18.103798   21.684138 H          1 MOL1         0.0830
      15    O1      19.483952   19.182004   24.251507 O.3        1 MOL1        -0.5512
      16    H10     18.964523   19.828975   23.731137 H          1 MOL1         0.3776
@<TRIPOS>BOND
    1     1     2    1
    2     1     3    1
    3     1     4    1
    4     4     5    1
    5     4     6    1
    6     4     7    1
    7     7     8    1
    8     7     9    1
    9     7    10    1
   10    10    11    1
   11     1    12    1
   12    10    12    1
   13    12    13    1
   14    12    14    1
   15    10    15    1
   16    15    16    1
@<TRIPOS>SUBSTRUCTURE
       1 MOL1            1 RESIDUE      1      MOL     
@<SCITEGIC>MOL_PROPERTY
VConf Rank
SciTegic.value.IntegerValue
3

@<SCITEGIC>MOL_PROPERTY
Conf_Id
SciTegic.value.IntegerValue
20

@<SCITEGIC>MOL_PROPERTY
Delta U+W
SciTegic.value.DoubleValue
-0.483

@<SCITEGIC>MOL_PROPERTY
U+W
SciTegic.value.DoubleValue
2.527

@<SCITEGIC>MOL_PROPERTY
Grad RMS
SciTegic.value.DoubleValue
0.000000

@<SCITEGIC>MOL_PROPERTY
U
SciTegic.value.DoubleValue
4.508

@<SCITEGIC>MOL_PROPERTY
W
SciTegic.value.DoubleValue
-1.981

@<SCITEGIC>MOL_PROPERTY
W(PB)
SciTegic.value.DoubleValue
-3.712

@<SCITEGIC>MOL_PROPERTY
W(SA)
SciTegic.value.DoubleValue
1.732

@<SCITEGIC>MOL_PROPERTY
Valence
SciTegic.value.DoubleValue
14.705

@<SCITEGIC>MOL_PROPERTY
Coulomb
SciTegic.value.DoubleValue
-10.687

@<SCITEGIC>MOL_PROPERTY
VdW
SciTegic.value.DoubleValue
0.490

@<SCITEGIC>MOL_PROPERTY
VdW6
SciTegic.value.DoubleValue
-3.745

@<SCITEGIC>MOL_PROPERTY
VdW12
SciTegic.value.DoubleValue
4.235

@<SCITEGIC>MOL_PROPERTY
Bond
SciTegic.value.DoubleValue
0.068

@<SCITEGIC>MOL_PROPERTY
Angle
SciTegic.value.DoubleValue
3.901

@<SCITEGIC>MOL_PROPERTY
Pdih
SciTegic.value.DoubleValue
10.737

@<SCITEGIC>MOL_PROPERTY
Idih
SciTegic.value.DoubleValue
0.000

@<SCITEGIC>MOL_PROPERTY
Tether
SciTegic.value.DoubleValue
0.000

@<TRIPOS>MOLECULE
guest-4_confgen4.mol2 : confsearch ligand conformer 4
          16          16           1
SMALL
USER_CHARGES
 
@<TRIPOS>ATOM
       1    C1      19.326529   19.971943   21.994105 C.3        1 MOL1        -0.1689
       2    H1      20.349804   20.214148   21.674852 H          1 MOL1         0.0830
       3    H2      18.709195   20.873863   21.884185 H          1 MOL1         0.0830
       4    C2      19.348143   19.448625   23.436811 C.3        1 MOL1        -0.1689
       5    H3      20.057659   19.998292   24.070224 H          1 MOL1         0.0830
       6    H4      18.346936   19.543985   23.879660 H          1 MOL1         0.0830
       7    C3      19.717157   17.960211   23.298938 C.3        1 MOL1        -0.1765
       8    H5      19.288267   17.363423   24.114256 H          1 MOL1         0.0830
       9    H6      20.809540   17.851498   23.339741 H          1 MOL1         0.0830
      10    C4      19.185599   17.505996   21.923142 C.3        1 MOL1         0.1214
      11    H7      18.294601   16.874642   22.053657 H          1 MOL1         0.0787
      12    C5      18.793358   18.790061   21.163434 C.3        1 MOL1        -0.1765
      13    H8      19.188345   18.805289   20.138848 H          1 MOL1         0.0830
      14    H9      17.698977   18.848276   21.100022 H          1 MOL1         0.0830
      15    O1      20.199288   16.805501   21.212066 O.3        1 MOL1        -0.5512
      16    H10     20.416169   16.009783   21.742468 H          1 MOL1         0.3776
@<TRIPOS>BOND
    1     1     2    1
    2     1     3    1
    3     1     4    1
    4     4     5    1
    5     4     6    1
    6     4     7    1
    7     7     8    1
    8     7     9    1
    9     7    10    1
   10    10    11    1
   11     1    12    1
   12    10    12    1
   13    12    13    1
   14    12    14    1
   15    10    15    1
   16    15    16    1
@<TRIPOS>SUBSTRUCTURE
       1 MOL1            1 RESIDUE      1      MOL     
@<SCITEGIC>MOL_PROPERTY
VConf Rank
SciTegic.value.IntegerValue
4

@<SCITEGIC>MOL_PROPERTY
Conf_Id
SciTegic.value.IntegerValue
59

@<SCITEGIC>MOL_PROPERTY
Delta U+W
SciTegic.value.DoubleValue
0.000

@<SCITEGIC>MOL_PROPERTY
U+W
SciTegic.value.DoubleValue
3.010

@<SCITEGIC>MOL_PROPERTY
Grad RMS
SciTegic.value.DoubleValue
0.000000

@<SCITEGIC>MOL_PROPERTY
U
SciTegic.value.DoubleValue
5.843

@<SCITEGIC>MOL_PROPERTY
W
SciTegic.value.DoubleValue
-2.833

@<SCITEGIC>MOL_PROPERTY
W(PB)
SciTegic.value.DoubleValue
-4.568

@<SCITEGIC>MOL_PROPERTY
W(SA)
SciTegic.value.DoubleValue
1.735

@<SCITEGIC>MOL_PROPERTY
Valence
SciTegic.value.DoubleValue
13.789

@<SCITEGIC>MOL_PROPERTY
Coulomb
SciTegic.value.DoubleValue
-8.574

@<SCITEGIC>MOL_PROPERTY
VdW
SciTegic.value.DoubleValue
0.628

@<SCITEGIC>MOL_PROPERTY
VdW6
SciTegic.value.DoubleValue
-3.284

@<SCITEGIC>MOL_PROPERTY
VdW12
SciTegic.value.DoubleValue
3.912

@<SCITEGIC>MOL_PROPERTY
Bond
SciTegic.value.DoubleValue
0.054

@<SCITEGIC>MOL_PROPERTY
Angle
SciTegic.value.DoubleValue
4.034

@<SCITEGIC>MOL_PROPERTY
Pdih
SciTegic.value.DoubleValue
9.702

@<SCITEGIC>MOL_PROPERTY
Idih
SciTegic.value.DoubleValue
0.000

@<SCITEGIC>MOL_PROPERTY
Tether
SciTegic.value.DoubleValue
0.000

@<TRIPOS>MOLECULE
guest-4_confgen4.mol2 : confsearch ligand conformer 5
          16          16           1
SMALL
USER_CHARGES
 
@<TRIPOS>ATOM
       1    C1      19.457345   18.863025   20.879020 C.3        1 MOL1        -0.1689
       2    H1      18.799549   18.736713   20.008326 H          1 MOL1         0.0830
       3    H2      20.329157   19.455303   20.567940 H          1 MOL1         0.0830
       4    C2      19.925049   17.520391   21.457220 C.3        1 MOL1        -0.1689
       5    H3      19.095147   16.800382   21.434201 H          1 MOL1         0.0830
       6    H4      20.767316   17.092741   20.896557 H          1 MOL1         0.0830
       7    C3      20.292358   17.837307   22.918631 C.3        1 MOL1        -0.1765
       8    H5      21.350250   18.124257   22.978711 H          1 MOL1         0.0830
       9    H6      20.145329   16.965892   23.570580 H          1 MOL1         0.0830
      10    C4      19.420721   19.038093   23.340720 C.3        1 MOL1         0.1214
      11    H7      20.063140   19.819423   23.772393 H          1 MOL1         0.0787
      12    C5      18.746801   19.559556   22.054002 C.3        1 MOL1        -0.1765
      13    H8      17.681900   19.289925   22.045898 H          1 MOL1         0.0830
      14    H9      18.818543   20.652033   21.975310 H          1 MOL1         0.0830
      15    O1      18.434218   18.622783   24.277858 O.3        1 MOL1        -0.5512
      16    H10     17.905794   19.418088   24.500991 H          1 MOL1         0.3776
@<TRIPOS>BOND
    1     1     2    1
    2     1     3    1
    3     1     4    1
    4     4     5    1
    5     4     6    1
    6     4     7    1
    7     7     8    1
    8     7     9    1
    9     7    10    1
   10    10    11    1
   11     1    12    1
   12    10    12    1
   13    12    13    1
   14    12    14    1
   15    10    15    1
   16    15    16    1
@<TRIPOS>SUBSTRUCTURE
       1 MOL1            1 RESIDUE      1      MOL     
@<SCITEGIC>MOL_PROPERTY
VConf Rank
SciTegic.value.IntegerValue
5

@<SCITEGIC>MOL_PROPERTY
Conf_Id
SciTegic.value.IntegerValue
33

@<SCITEGIC>MOL_PROPERTY
Delta U+W
SciTegic.value.DoubleValue
0.015

@<SCITEGIC>MOL_PROPERTY
U+W
SciTegic.value.DoubleValue
3.025

@<SCITEGIC>MOL_PROPERTY
Grad RMS
SciTegic.value.DoubleValue
0.000000

@<SCITEGIC>MOL_PROPERTY
U
SciTegic.value.DoubleValue
5.843

@<SCITEGIC>MOL_PROPERTY
W
SciTegic.value.DoubleValue
-2.819

@<SCITEGIC>MOL_PROPERTY
W(PB)
SciTegic.value.DoubleValue
-4.568

@<SCITEGIC>MOL_PROPERTY
W(SA)
SciTegic.value.DoubleValue
1.750

@<SCITEGIC>MOL_PROPERTY
Valence
SciTegic.value.DoubleValue
13.789

@<SCITEGIC>MOL_PROPERTY
Coulomb
SciTegic.value.DoubleValue
-8.574

@<SCITEGIC>MOL_PROPERTY
VdW
SciTegic.value.DoubleValue
0.628

@<SCITEGIC>MOL_PROPERTY
VdW6
SciTegic.value.DoubleValue
-3.284

@<SCITEGIC>MOL_PROPERTY
VdW12
SciTegic.value.DoubleValue
3.913

@<SCITEGIC>MOL_PROPERTY
Bond
SciTegic.value.DoubleValue
0.054

@<SCITEGIC>MOL_PROPERTY
Angle
SciTegic.value.DoubleValue
4.033

@<SCITEGIC>MOL_PROPERTY
Pdih
SciTegic.value.DoubleValue
9.702

@<SCITEGIC>MOL_PROPERTY
Idih
SciTegic.value.DoubleValue
0.000

@<SCITEGIC>MOL_PROPERTY
Tether
SciTegic.value.DoubleValue
0.000

@<TRIPOS>MOLECULE
guest-4_confgen4.mol2 : confsearch ligand conformer 6
          16          16           1
SMALL
USER_CHARGES
 
@<TRIPOS>ATOM
       1    C1      20.418200   18.203198   22.991430 C.3        1 MOL1        -0.1689
       2    H1      20.730402   18.915330   23.767719 H          1 MOL1         0.0830
       3    H2      21.072034   17.323288   23.063928 H          1 MOL1         0.0830
       4    C2      20.512482   18.867695   21.600540 C.3        1 MOL1        -0.1689
       5    H3      20.871316   19.901062   21.703579 H          1 MOL1         0.0830
       6    H4      21.214896   18.334767   20.945101 H          1 MOL1         0.0830
       7    C3      19.085723   18.854939   21.011786 C.3        1 MOL1        -0.1765
       8    H5      18.976578   17.998744   20.333083 H          1 MOL1         0.0830
       9    H6      18.863456   19.765450   20.439445 H          1 MOL1         0.0830
      10    C4      18.135913   18.670789   22.202980 C.3        1 MOL1         0.1214
      11    H7      17.201558   18.175078   21.902590 H          1 MOL1         0.0787
      12    C5      18.938229   17.812747   23.190406 C.3        1 MOL1        -0.1765
      13    H8      18.606661   17.952711   24.227940 H          1 MOL1         0.0830
      14    H9      18.800826   16.753552   22.935751 H          1 MOL1         0.0830
      15    O1      17.871758   19.936412   22.790541 O.3        1 MOL1        -0.5512
      16    H10     18.751720   20.298001   23.023096 H          1 MOL1         0.3776
@<TRIPOS>BOND
    1     1     2    1
    2     1     3    1
    3     1     4    1
    4     4     5    1
    5     4     6    1
    6     4     7    1
    7     7     8    1
    8     7     9    1
    9     7    10    1
   10    10    11    1
   11     1    12    1
   12    10    12    1
   13    12    13    1
   14    12    14    1
   15    10    15    1
   16    15    16    1
@<TRIPOS>SUBSTRUCTURE
       1 MOL1            1 RESIDUE      1      MOL     
@<SCITEGIC>MOL_PROPERTY
VConf Rank
SciTegic.value.IntegerValue
6

@<SCITEGIC>MOL_PROPERTY
Conf_Id
SciTegic.value.IntegerValue
20

@<SCITEGIC>MOL_PROPERTY
Delta U+W
SciTegic.value.DoubleValue
-0.483

@<SCITEGIC>MOL_PROPERTY
U+W
SciTegic.value.DoubleValue
2.527

@<SCITEGIC>MOL_PROPERTY
Grad RMS
SciTegic.value.DoubleValue
0.000000

@<SCITEGIC>MOL_PROPERTY
U
SciTegic.value.DoubleValue
4.508

@<SCITEGIC>MOL_PROPERTY
W
SciTegic.value.DoubleValue
-1.981

@<SCITEGIC>MOL_PROPERTY
W(PB)
SciTegic.value.DoubleValue
-3.712

@<SCITEGIC>MOL_PROPERTY
W(SA)
SciTegic.value.DoubleValue
1.732

@<SCITEGIC>MOL_PROPERTY
Valence
SciTegic.value.DoubleValue
14.705

@<SCITEGIC>MOL_PROPERTY
Coulomb
SciTegic.value.DoubleValue
-10.687

@<SCITEGIC>MOL_PROPERTY
VdW
SciTegic.value.DoubleValue
0.490

@<SCITEGIC>MOL_PROPERTY
VdW6
SciTegic.value.DoubleValue
-3.745

@<SCITEGIC>MOL_PROPERTY
VdW12
SciTegic.value.DoubleValue
4.235

@<SCITEGIC>MOL_PROPERTY
Bond
SciTegic.value.DoubleValue
0.068

@<SCITEGIC>MOL_PROPERTY
Angle
SciTegic.value.DoubleValue
3.901

@<SCITEGIC>MOL_PROPERTY
Pdih
SciTegic.value.DoubleValue
10.737

@<SCITEGIC>MOL_PROPERTY
Idih
SciTegic.value.DoubleValue
0.000

@<SCITEGIC>MOL_PROPERTY
Tether
SciTegic.value.DoubleValue
0.000

@<TRIPOS>MOLECULE
guest-4_confgen4.mol2 : confsearch ligand conformer 7
          16          16           1
SMALL
USER_CHARGES
 
@<TRIPOS>ATOM
       1    C1      20.145209   17.393116   21.931663 C.3        1 MOL1        -0.1689
       2    H1      19.518197   16.849353   21.211347 H          1 MOL1         0.0830
       3    H2      21.107568   16.869911   22.013918 H          1 MOL1         0.0830
       4    C2      19.414638   17.491696   23.277870 C.3        1 MOL1        -0.1689
       5    H3      18.878022   16.567151   23.530891 H          1 MOL1         0.0830
       6    H4      20.139530   17.698077   24.077597 H          1 MOL1         0.0830
       7    C3      18.466041   18.693014   23.111876 C.3        1 MOL1        -0.1765
       8    H5      18.277244   19.190675   24.071843 H          1 MOL1         0.0830
       9    H6      17.502143   18.343020   22.717935 H          1 MOL1         0.0830
      10    C4      19.142249   19.644913   22.102761 C.3        1 MOL1         0.1214
      11    H7      19.541528   20.526050   22.625916 H          1 MOL1         0.0787
      12    C5      20.307964   18.854237   21.473657 C.3        1 MOL1        -0.1765
      13    H8      20.323546   18.935276   20.378572 H          1 MOL1         0.0830
      14    H9      21.257489   19.255195   21.851435 H          1 MOL1         0.0830
      15    O1      18.214217   20.034050   21.097168 O.3        1 MOL1        -0.5512
      16    H10     17.493980   20.519801   21.551961 H          1 MOL1         0.3776
@<TRIPOS>BOND
    1     1     2    1
    2     1     3    1
    3     1     4    1
    4     4     5    1
    5     4     6    1
    6     4     7    1
    7     7     8    1
    8     7     9    1
    9     7    10    1
   10    10    11    1
   11     1    12    1
   12    10    12    1
   13    12    13    1
   14    12    14    1
   15    10    15    1
   16    15    16    1
@<TRIPOS>SUBSTRUCTURE
       1 MOL1            1 RESIDUE      1      MOL     
@<SCITEGIC>MOL_PROPERTY
VConf Rank
SciTegic.value.IntegerValue
7

@<SCITEGIC>MOL_PROPERTY
Conf_Id
SciTegic.value.IntegerValue
59

@<SCITEGIC>MOL_PROPERTY
Delta U+W
SciTegic.value.DoubleValue
0.000

@<SCITEGIC>MOL_PROPERTY
U+W
SciTegic.value.DoubleValue
3.010

@<SCITEGIC>MOL_PROPERTY
Grad RMS
SciTegic.value.DoubleValue
0.000000

@<SCITEGIC>MOL_PROPERTY
U
SciTegic.value.DoubleValue
5.843

@<SCITEGIC>MOL_PROPERTY
W
SciTegic.value.DoubleValue
-2.833

@<SCITEGIC>MOL_PROPERTY
W(PB)
SciTegic.value.DoubleValue
-4.568

@<SCITEGIC>MOL_PROPERTY
W(SA)
SciTegic.value.DoubleValue
1.735

@<SCITEGIC>MOL_PROPERTY
Valence
SciTegic.value.DoubleValue
13.789

@<SCITEGIC>MOL_PROPERTY
Coulomb
SciTegic.value.DoubleValue
-8.574

@<SCITEGIC>MOL_PROPERTY
VdW
SciTegic.value.DoubleValue
0.628

@<SCITEGIC>MOL_PROPERTY
VdW6
SciTegic.value.DoubleValue
-3.284

@<SCITEGIC>MOL_PROPERTY
VdW12
SciTegic.value.DoubleValue
3.912

@<SCITEGIC>MOL_PROPERTY
Bond
SciTegic.value.DoubleValue
0.054

@<SCITEGIC>MOL_PROPERTY
Angle
SciTegic.value.DoubleValue
4.034

@<SCITEGIC>MOL_PROPERTY
Pdih
SciTegic.value.DoubleValue
9.702

@<SCITEGIC>MOL_PROPERTY
Idih
SciTegic.value.DoubleValue
0.000

@<SCITEGIC>MOL_PROPERTY
Tether
SciTegic.value.DoubleValue
0.000

@<TRIPOS>MOLECULE
guest-4_confgen4.mol2 : confsearch ligand conformer 8
          16          16           1
SMALL
USER_CHARGES
 
@<TRIPOS>ATOM
       1    C1      19.131670   17.393956   21.604144 C.3        1 MOL1        -0.1689
       2    H1      19.460642   16.346460   21.568269 H          1 MOL1         0.0830
       3    H2      18.215755   17.487176   21.004118 H          1 MOL1         0.0830
       4    C2      20.198726   18.359745   21.070879 C.3        1 MOL1        -0.1689
       5    H3      21.192442   18.033176   21.407868 H          1 MOL1         0.0830
       6    H4      20.207187   18.411300   19.973650 H          1 MOL1         0.0830
       7    C3      19.852898   19.712521   21.720090 C.3        1 MOL1        -0.1765
       8    H5      19.162245   20.266704   21.071272 H          1 MOL1         0.0830
       9    H6      20.747641   20.333142   21.862510 H          1 MOL1         0.0830
      10    C4      19.144071   19.392563   23.052377 C.3        1 MOL1         0.1214
      11    H7      18.197366   19.949952   23.103229 H          1 MOL1         0.0787
      12    C5      18.863670   17.874998   23.041985 C.3        1 MOL1        -0.1765
      13    H8      19.544743   17.357315   23.731133 H          1 MOL1         0.0830
      14    H9      17.835089   17.652654   23.354123 H          1 MOL1         0.0830
      15    O1      19.985777   19.728738   24.148924 O.3        1 MOL1        -0.5512
      16    H10     19.492692   19.495512   24.963788 H          1 MOL1         0.3776
@<TRIPOS>BOND
    1     1     2    1
    2     1     3    1
    3     1     4    1
    4     4     5    1
    5     4     6    1
    6     4     7    1
    7     7     8    1
    8     7     9    1
    9     7    10    1
   10    10    11    1
   11     1    12    1
   12    10    12    1
   13    12    13    1
   14    12    14    1
   15    10    15    1
   16    15    16    1
@<TRIPOS>SUBSTRUCTURE
       1 MOL1            1 RESIDUE      1      MOL     
@<SCITEGIC>MOL_PROPERTY
VConf Rank
SciTegic.value.IntegerValue
8

@<SCITEGIC>MOL_PROPERTY
Conf_Id
SciTegic.value.IntegerValue
33

@<SCITEGIC>MOL_PROPERTY
Delta U+W
SciTegic.value.DoubleValue
0.015

@<SCITEGIC>MOL_PROPERTY
U+W
SciTegic.value.DoubleValue
3.025

@<SCITEGIC>MOL_PROPERTY
Grad RMS
SciTegic.value.DoubleValue
0.000000

@<SCITEGIC>MOL_PROPERTY
U
SciTegic.value.DoubleValue
5.843

@<SCITEGIC>MOL_PROPERTY
W
SciTegic.value.DoubleValue
-2.819

@<SCITEGIC>MOL_PROPERTY
W(PB)
SciTegic.value.DoubleValue
-4.568

@<SCITEGIC>MOL_PROPERTY
W(SA)
SciTegic.value.DoubleValue
1.750

@<SCITEGIC>MOL_PROPERTY
Valence
SciTegic.value.DoubleValue
13.789

@<SCITEGIC>MOL_PROPERTY
Coulomb
SciTegic.value.DoubleValue
-8.574

@<SCITEGIC>MOL_PROPERTY
VdW
SciTegic.value.DoubleValue
0.628

@<SCITEGIC>MOL_PROPERTY
VdW6
SciTegic.value.DoubleValue
-3.284

@<SCITEGIC>MOL_PROPERTY
VdW12
SciTegic.value.DoubleValue
3.913

@<SCITEGIC>MOL_PROPERTY
Bond
SciTegic.value.DoubleValue
0.054

@<SCITEGIC>MOL_PROPERTY
Angle
SciTegic.value.DoubleValue
4.033

@<SCITEGIC>MOL_PROPERTY
Pdih
SciTegic.value.DoubleValue
9.702

@<SCITEGIC>MOL_PROPERTY
Idih
SciTegic.value.DoubleValue
0.000

@<SCITEGIC>MOL_PROPERTY
Tether
SciTegic.value.DoubleValue
0.000

@<TRIPOS>MOLECULE
guest-4_confgen4.mol2 : confsearch ligand conformer 9
          16          16           1
SMALL
USER_CHARGES
 
@<TRIPOS>ATOM
       1    C1      19.955372   18.486801   23.456714 C.3        1 MOL1        -0.1689
       2    H1      19.764226   19.326385   24.139202 H          1 MOL1         0.0830
       3    H2      20.577197   17.756604   23.992571 H          1 MOL1         0.0830
       4    C2      20.654323   18.998038   22.177994 C.3        1 MOL1        -0.1689
       5    H3      20.802402   20.084865   22.242073 H          1 MOL1         0.0830
       6    H4      21.641378   18.534489   22.044407 H          1 MOL1         0.0830
       7    C3      19.716917   18.656177   21.000354 C.3        1 MOL1        -0.1765
       8    H5      20.050220   17.724346   20.524726 H          1 MOL1         0.0830
       9    H6      19.711411   19.440333   20.231539 H          1 MOL1         0.0830
      10    C4      18.327857   18.433529   21.613487 C.3        1 MOL1         0.1214
      11    H7      17.723831   17.743279   21.007113 H          1 MOL1         0.0787
      12    C5      18.622419   17.854110   23.003618 C.3        1 MOL1        -0.1765
      13    H8      17.807920   18.045112   23.715034 H          1 MOL1         0.0830
      14    H9      18.743092   16.766105   22.918147 H          1 MOL1         0.0830
      15    O1      17.674082   19.685957   21.757745 O.3        1 MOL1        -0.5512
      16    H10     18.279108   20.227631   22.305189 H          1 MOL1         0.3776
@<TRIPOS>BOND
    1     1     2    1
    2     1     3    1
    3     1     4    1
    4     4     5    1
    5     4     6    1
    6     4     7    1
    7     7     8    1
    8     7     9    1
    9     7    10    1
   10    10    11    1
   11     1    12    1
   12    10    12    1
   13    12    13    1
   14    12    14    1
   15    10    15    1
   16    15    16    1
@<TRIPOS>SUBSTRUCTURE
       1 MOL1            1 RESIDUE      1      MOL     
@<SCITEGIC>MOL_PROPERTY
VConf Rank
SciTegic.value.IntegerValue
9

@<SCITEGIC>MOL_PROPERTY
Conf_Id
SciTegic.value.IntegerValue
20

@<SCITEGIC>MOL_PROPERTY
Delta U+W
SciTegic.value.DoubleValue
-0.483

@<SCITEGIC>MOL_PROPERTY
U+W
SciTegic.value.DoubleValue
2.527

@<SCITEGIC>MOL_PROPERTY
Grad RMS
SciTegic.value.DoubleValue
0.000000

@<SCITEGIC>MOL_PROPERTY
U
SciTegic.value.DoubleValue
4.508

@<SCITEGIC>MOL_PROPERTY
W
SciTegic.value.DoubleValue
-1.981

@<SCITEGIC>MOL_PROPERTY
W(PB)
SciTegic.value.DoubleValue
-3.712

@<SCITEGIC>MOL_PROPERTY
W(SA)
SciTegic.value.DoubleValue
1.732

@<SCITEGIC>MOL_PROPERTY
Valence
SciTegic.value.DoubleValue
14.705

@<SCITEGIC>MOL_PROPERTY
Coulomb
SciTegic.value.DoubleValue
-10.687

@<SCITEGIC>MOL_PROPERTY
VdW
SciTegic.value.DoubleValue
0.490

@<SCITEGIC>MOL_PROPERTY
VdW6
SciTegic.value.DoubleValue
-3.745

@<SCITEGIC>MOL_PROPERTY
VdW12
SciTegic.value.DoubleValue
4.235

@<SCITEGIC>MOL_PROPERTY
Bond
SciTegic.value.DoubleValue
0.068

@<SCITEGIC>MOL_PROPERTY
Angle
SciTegic.value.DoubleValue
3.901

@<SCITEGIC>MOL_PROPERTY
Pdih
SciTegic.value.DoubleValue
10.737

@<SCITEGIC>MOL_PROPERTY
Idih
SciTegic.value.DoubleValue
0.000

@<SCITEGIC>MOL_PROPERTY
Tether
SciTegic.value.DoubleValue
0.000

@<TRIPOS>MOLECULE
guest-4_confgen4.mol2 : confsearch ligand conformer 10
          16          16           1
SMALL
USER_CHARGES
 
@<TRIPOS>ATOM
       1    C1      20.057605   18.327604   23.568386 C.3        1 MOL1        -0.1689
       2    H1      20.074810   17.235671   23.691116 H          1 MOL1         0.0830
       3    H2      20.615937   18.776327   24.401186 H          1 MOL1         0.0830
       4    C2      18.603649   18.815440   23.507110 C.3        1 MOL1        -0.1689
       5    H3      17.953995   18.283158   24.215195 H          1 MOL1         0.0830
       6    H4      18.563325   19.887928   23.743269 H          1 MOL1         0.0830
       7    C3      18.184744   18.588312   22.043045 C.3        1 MOL1        -0.1765
       8    H5      17.423942   19.313411   21.726407 H          1 MOL1         0.0830
       9    H6      17.755697   17.582301   21.939863 H          1 MOL1         0.0830
      10    C4      19.470829   18.710323   21.198784 C.3        1 MOL1         0.1214
      11    H7      19.469714   19.661413   20.646566 H          1 MOL1         0.0787
      12    C5      20.647701   18.701602   22.196146 C.3        1 MOL1        -0.1765
      13    H8      21.443670   18.007268   21.895555 H          1 MOL1         0.0830
      14    H9      21.083483   19.708007   22.244376 H          1 MOL1         0.0830
      15    O1      19.577382   17.609020   20.304543 O.3        1 MOL1        -0.5512
      16    H10     18.803082   17.657750   19.704862 H          1 MOL1         0.3776
@<TRIPOS>BOND
    1     1     2    1
    2     1     3    1
    3     1     4    1
    4     4     5    1
    5     4     6    1
    6     4     7    1
    7     7     8    1
    8     7     9    1
    9     7    10    1
   10    10    11    1
   11     1    12    1
   12    10    12    1
   13    12    13    1
   14    12    14    1
   15    10    15    1
   16    15    16    1
@<TRIPOS>SUBSTRUCTURE
       1 MOL1            1 RESIDUE      1      MOL     
@<SCITEGIC>MOL_PROPERTY
VConf Rank
SciTegic.value.IntegerValue
10

@<SCITEGIC>MOL_PROPERTY
Conf_Id
SciTegic.value.IntegerValue
59

@<SCITEGIC>MOL_PROPERTY
Delta U+W
SciTegic.value.DoubleValue
0.000

@<SCITEGIC>MOL_PROPERTY
U+W
SciTegic.value.DoubleValue
3.010

@<SCITEGIC>MOL_PROPERTY
Grad RMS
SciTegic.value.DoubleValue
0.000000

@<SCITEGIC>MOL_PROPERTY
U
SciTegic.value.DoubleValue
5.843

@<SCITEGIC>MOL_PROPERTY
W
SciTegic.value.DoubleValue
-2.833

@<SCITEGIC>MOL_PROPERTY
W(PB)
SciTegic.value.DoubleValue
-4.568

@<SCITEGIC>MOL_PROPERTY
W(SA)
SciTegic.value.DoubleValue
1.735

@<SCITEGIC>MOL_PROPERTY
Valence
SciTegic.value.DoubleValue
13.789

@<SCITEGIC>MOL_PROPERTY
Coulomb
SciTegic.value.DoubleValue
-8.574

@<SCITEGIC>MOL_PROPERTY
VdW
SciTegic.value.DoubleValue
0.628

@<SCITEGIC>MOL_PROPERTY
VdW6
SciTegic.value.DoubleValue
-3.284

@<SCITEGIC>MOL_PROPERTY
VdW12
SciTegic.value.DoubleValue
3.912

@<SCITEGIC>MOL_PROPERTY
Bond
SciTegic.value.DoubleValue
0.054

@<SCITEGIC>MOL_PROPERTY
Angle
SciTegic.value.DoubleValue
4.034

@<SCITEGIC>MOL_PROPERTY
Pdih
SciTegic.value.DoubleValue
9.702

@<SCITEGIC>MOL_PROPERTY
Idih
SciTegic.value.DoubleValue
0.000

@<SCITEGIC>MOL_PROPERTY
Tether
SciTegic.value.DoubleValue
0.000

@<TRIPOS>MOLECULE
guest-4_confgen4.mol2 : confsearch ligand conformer 11
          16          16           1
SMALL
USER_CHARGES
 
@<TRIPOS>ATOM
       1    C1      20.440934   18.355121   21.284168 C.3        1 MOL1        -0.1689
       2    H1      20.653263   17.622603   20.493540 H          1 MOL1         0.0830
       3    H2      21.154320   19.185011   21.184238 H          1 MOL1         0.0830
       4    C2      20.550500   17.746463   22.688895 C.3        1 MOL1        -0.1689
       5    H3      20.128204   16.731905   22.684624 H          1 MOL1         0.0830
       6    H4      21.589644   17.685213   23.039709 H          1 MOL1         0.0830
       7    C3      19.684456   18.661738   23.573946 C.3        1 MOL1        -0.1765
       8    H5      20.302132   19.473283   23.980094 H          1 MOL1         0.0830
       9    H6      19.253413   18.113681   24.422388 H          1 MOL1         0.0830
      10    C4      18.601634   19.265067   22.655638 C.3        1 MOL1         0.1214
      11    H7      18.592073   20.358324   22.774867 H          1 MOL1         0.0787
      12    C5      19.000708   18.894651   21.211593 C.3        1 MOL1        -0.1765
      13    H8      18.337831   18.109583   20.822949 H          1 MOL1         0.0830
      14    H9      18.929725   19.759233   20.539056 H          1 MOL1         0.0830
      15    O1      17.328656   18.713175   22.970029 O.3        1 MOL1        -0.5512
      16    H10     16.685123   19.120860   22.352625 H          1 MOL1         0.3776
@<TRIPOS>BOND
    1     1     2    1
    2     1     3    1
    3     1     4    1
    4     4     5    1
    5     4     6    1
    6     4     7    1
    7     7     8    1
    8     7     9    1
    9     7    10    1
   10    10    11    1
   11     1    12    1
   12    10    12    1
   13    12    13    1
   14    12    14    1
   15    10    15    1
   16    15    16    1
@<TRIPOS>SUBSTRUCTURE
       1 MOL1            1 RESIDUE      1      MOL     
@<SCITEGIC>MOL_PROPERTY
VConf Rank
SciTegic.value.IntegerValue
11

@<SCITEGIC>MOL_PROPERTY
Conf_Id
SciTegic.value.IntegerValue
33

@<SCITEGIC>MOL_PROPERTY
Delta U+W
SciTegic.value.DoubleValue
0.015

@<SCITEGIC>MOL_PROPERTY
U+W
SciTegic.value.DoubleValue
3.025

@<SCITEGIC>MOL_PROPERTY
Grad RMS
SciTegic.value.DoubleValue
0.000000

@<SCITEGIC>MOL_PROPERTY
U
SciTegic.value.DoubleValue
5.843

@<SCITEGIC>MOL_PROPERTY
W
SciTegic.value.DoubleValue
-2.819

@<SCITEGIC>MOL_PROPERTY
W(PB)
SciTegic.value.DoubleValue
-4.568

@<SCITEGIC>MOL_PROPERTY
W(SA)
SciTegic.value.DoubleValue
1.750

@<SCITEGIC>MOL_PROPERTY
Valence
SciTegic.value.DoubleValue
13.789

@<SCITEGIC>MOL_PROPERTY
Coulomb
SciTegic.value.DoubleValue
-8.574

@<SCITEGIC>MOL_PROPERTY
VdW
SciTegic.value.DoubleValue
0.628

@<SCITEGIC>MOL_PROPERTY
VdW6
SciTegic.value.DoubleValue
-3.284

@<SCITEGIC>MOL_PROPERTY
VdW12
SciTegic.value.DoubleValue
3.913

@<SCITEGIC>MOL_PROPERTY
Bond
SciTegic.value.DoubleValue
0.054

@<SCITEGIC>MOL_PROPERTY
Angle
SciTegic.value.DoubleValue
4.033

@<SCITEGIC>MOL_PROPERTY
Pdih
SciTegic.value.DoubleValue
9.702

@<SCITEGIC>MOL_PROPERTY
Idih
SciTegic.value.DoubleValue
0.000

@<SCITEGIC>MOL_PROPERTY
Tether
SciTegic.value.DoubleValue
0.000

@<TRIPOS>MOLECULE
guest-4_confgen4.mol2 : confsearch ligand conformer 12
          16          16           1
SMALL
USER_CHARGES
 
@<TRIPOS>ATOM
       1    C1      19.712843   19.900992   22.174837 C.3        1 MOL1        -0.1689
       2    H1      20.795441   20.088592   22.178642 H          1 MOL1         0.0830
       3    H2      19.206687   20.871723   22.082723 H          1 MOL1         0.0830
       4    C2      19.302389   19.167196   23.470248 C.3        1 MOL1        -0.1689
       5    H3      20.186153   19.000604   24.101465 H          1 MOL1         0.0830
       6    H4      18.580722   19.753648   24.055286 H          1 MOL1         0.0830
       7    C3      18.696001   17.816280   23.034640 C.3        1 MOL1        -0.1765
       8    H5      17.601033   17.895277   23.014032 H          1 MOL1         0.0830
       9    H6      18.959298   17.000981   23.721640 H          1 MOL1         0.0830
      10    C4      19.204171   17.562119   21.609102 C.3        1 MOL1         0.1214
      11    H7      18.503131   16.939636   21.034610 H          1 MOL1         0.0787
      12    C5      19.337939   18.966456   21.005030 C.3        1 MOL1        -0.1765
      13    H8      20.075233   19.001024   20.191884 H          1 MOL1         0.0830
      14    H9      18.367877   19.269756   20.589567 H          1 MOL1         0.0830
      15    O1      20.486739   16.955492   21.670981 O.3        1 MOL1        -0.5512
      16    H10     21.036095   17.573988   22.195228 H          1 MOL1         0.3776
@<TRIPOS>BOND
    1     1     2    1
    2     1     3    1
    3     1     4    1
    4     4     5    1
    5     4     6    1
    6     4     7    1
    7     7     8    1
    8     7     9    1
    9     7    10    1
   10    10    11    1
   11     1    12    1
   12    10    12    1
   13    12    13    1
   14    12    14    1
   15    10    15    1
   16    15    16    1
@<TRIPOS>SUBSTRUCTURE
       1 MOL1            1 RESIDUE      1      MOL     
@<SCITEGIC>MOL_PROPERTY
VConf Rank
SciTegic.value.IntegerValue
12

@<SCITEGIC>MOL_PROPERTY
Conf_Id
SciTegic.value.IntegerValue
20

@<SCITEGIC>MOL_PROPERTY
Delta U+W
SciTegic.value.DoubleValue
-0.483

@<SCITEGIC>MOL_PROPERTY
U+W
SciTegic.value.DoubleValue
2.527

@<SCITEGIC>MOL_PROPERTY
Grad RMS
SciTegic.value.DoubleValue
0.000000

@<SCITEGIC>MOL_PROPERTY
U
SciTegic.value.DoubleValue
4.508

@<SCITEGIC>MOL_PROPERTY
W
SciTegic.value.DoubleValue
-1.981

@<SCITEGIC>MOL_PROPERTY
W(PB)
SciTegic.value.DoubleValue
-3.712

@<SCITEGIC>MOL_PROPERTY
W(SA)
SciTegic.value.DoubleValue
1.732

@<SCITEGIC>MOL_PROPERTY
Valence
SciTegic.value.DoubleValue
14.705

@<SCITEGIC>MOL_PROPERTY
Coulomb
SciTegic.value.DoubleValue
-10.687

@<SCITEGIC>MOL_PROPERTY
VdW
SciTegic.value.DoubleValue
0.490

@<SCITEGIC>MOL_PROPERTY
VdW6
SciTegic.value.DoubleValue
-3.745

@<SCITEGIC>MOL_PROPERTY
VdW12
SciTegic.value.DoubleValue
4.235

@<SCITEGIC>MOL_PROPERTY
Bond
SciTegic.value.DoubleValue
0.068

@<SCITEGIC>MOL_PROPERTY
Angle
SciTegic.value.DoubleValue
3.901

@<SCITEGIC>MOL_PROPERTY
Pdih
SciTegic.value.DoubleValue
10.737

@<SCITEGIC>MOL_PROPERTY
Idih
SciTegic.value.DoubleValue
0.000

@<SCITEGIC>MOL_PROPERTY
Tether
SciTegic.value.DoubleValue
0.000

@<TRIPOS>MOLECULE
guest-4_confgen4.mol2 : confsearch ligand conformer 13
          16          16           1
SMALL
USER_CHARGES
 
@<TRIPOS>ATOM
       1    C1      20.467852   17.703639   22.712754 C.3        1 MOL1        -0.1689
       2    H1      21.154508   18.368114   23.255574 H          1 MOL1         0.0830
       3    H2      20.874996   16.684055   22.749156 H          1 MOL1         0.0830
       4    C2      20.288474   18.212253   21.275791 C.3        1 MOL1        -0.1689
       5    H3      21.227660   18.583508   20.843520 H          1 MOL1         0.0830
       6    H4      19.915554   17.397790   20.639233 H          1 MOL1         0.0830
       7    C3      19.219982   19.314876   21.390264 C.3        1 MOL1        -0.1765
       8    H5      18.635483   19.404587   20.465516 H          1 MOL1         0.0830
       9    H6      19.711972   20.279856   21.573415 H          1 MOL1         0.0830
      10    C4      18.327963   18.933147   22.590374 C.3        1 MOL1         0.1214
      11    H7      17.354876   18.564931   22.233952 H          1 MOL1         0.0787
      12    C5      19.061588   17.797343   23.333056 C.3        1 MOL1        -0.1765
      13    H8      19.108372   17.969935   24.416589 H          1 MOL1         0.0830
      14    H9      18.522653   16.855293   23.168219 H          1 MOL1         0.0830
      15    O1      18.157962   20.052764   23.451447 O.3        1 MOL1        -0.5512
      16    H10     17.699673   20.743441   22.927550 H          1 MOL1         0.3776
@<TRIPOS>BOND
    1     1     2    1
    2     1     3    1
    3     1     4    1
    4     4     5    1
    5     4     6    1
    6     4     7    1
    7     7     8    1
    8     7     9    1
    9     7    10    1
   10    10    11    1
   11     1    12    1
   12    10    12    1
   13    12    13    1
   14    12    14    1
   15    10    15    1
   16    15    16    1
@<TRIPOS>SUBSTRUCTURE
       1 MOL1            1 RESIDUE      1      MOL     
@<SCITEGIC>MOL_PROPERTY
VConf Rank
SciTegic.value.IntegerValue
13

@<SCITEGIC>MOL_PROPERTY
Conf_Id
SciTegic.value.IntegerValue
59

@<SCITEGIC>MOL_PROPERTY
Delta U+W
SciTegic.value.DoubleValue
0.000

@<SCITEGIC>MOL_PROPERTY
U+W
SciTegic.value.DoubleValue
3.010

@<SCITEGIC>MOL_PROPERTY
Grad RMS
SciTegic.value.DoubleValue
0.000000

@<SCITEGIC>MOL_PROPERTY
U
SciTegic.value.DoubleValue
5.843

@<SCITEGIC>MOL_PROPERTY
W
SciTegic.value.DoubleValue
-2.833

@<SCITEGIC>MOL_PROPERTY
W(PB)
SciTegic.value.DoubleValue
-4.568

@<SCITEGIC>MOL_PROPERTY
W(SA)
SciTegic.value.DoubleValue
1.735

@<SCITEGIC>MOL_PROPERTY
Valence
SciTegic.value.DoubleValue
13.789

@<SCITEGIC>MOL_PROPERTY
Coulomb
SciTegic.value.DoubleValue
-8.574

@<SCITEGIC>MOL_PROPERTY
VdW
SciTegic.value.DoubleValue
0.628

@<SCITEGIC>MOL_PROPERTY
VdW6
SciTegic.value.DoubleValue
-3.284

@<SCITEGIC>MOL_PROPERTY
VdW12
SciTegic.value.DoubleValue
3.912

@<SCITEGIC>MOL_PROPERTY
Bond
SciTegic.value.DoubleValue
0.054

@<SCITEGIC>MOL_PROPERTY
Angle
SciTegic.value.DoubleValue
4.034

@<SCITEGIC>MOL_PROPERTY
Pdih
SciTegic.value.DoubleValue
9.702

@<SCITEGIC>MOL_PROPERTY
Idih
SciTegic.value.DoubleValue
0.000

@<SCITEGIC>MOL_PROPERTY
Tether
SciTegic.value.DoubleValue
0.000

@<TRIPOS>MOLECULE
guest-4_confgen4.mol2 : confsearch ligand conformer 14
          16          16           1
SMALL
USER_CHARGES
 
@<TRIPOS>ATOM
       1    C1      19.057956   19.972808   22.525035 C.3        1 MOL1        -0.1689
       2    H1      19.436661   20.990045   22.356007 H          1 MOL1         0.0830
       3    H2      18.021939   20.047097   22.883882 H          1 MOL1         0.0830
       4    C2      19.903086   19.196967   23.544620 C.3        1 MOL1        -0.1689
       5    H3      20.967454   19.420230   23.386652 H          1 MOL1         0.0830
       6    H4      19.648120   19.452616   24.582058 H          1 MOL1         0.0830
       7    C3      19.633362   17.715869   23.221088 C.3        1 MOL1        -0.1765
       8    H5      18.774097   17.361697   23.805305 H          1 MOL1         0.0830
       9    H6      20.493955   17.083095   23.476032 H          1 MOL1         0.0830
      10    C4      19.282573   17.650339   21.720271 C.3        1 MOL1         0.1214
      11    H7      18.340559   17.097658   21.591146 H          1 MOL1         0.0787
      12    C5      19.107255   19.109989   21.250781 C.3        1 MOL1        -0.1765
      13    H8      19.964403   19.417853   20.636535 H          1 MOL1         0.0830
      14    H9      18.198584   19.233341   20.647499 H          1 MOL1         0.0830
      15    O1      20.336222   17.025267   20.997079 O.3        1 MOL1        -0.5512
      16    H10     20.066394   17.021040   20.054368 H          1 MOL1         0.3776
@<TRIPOS>BOND
    1     1     2    1
    2     1     3    1
    3     1     4    1
    4     4     5    1
    5     4     6    1
    6     4     7    1
    7     7     8    1
    8     7     9    1
    9     7    10    1
   10    10    11    1
   11     1    12    1
   12    10    12    1
   13    12    13    1
   14    12    14    1
   15    10    15    1
   16    15    16    1
@<TRIPOS>SUBSTRUCTURE
       1 MOL1            1 RESIDUE      1      MOL     
@<SCITEGIC>MOL_PROPERTY
VConf Rank
SciTegic.value.IntegerValue
14

@<SCITEGIC>MOL_PROPERTY
Conf_Id
SciTegic.value.IntegerValue
33

@<SCITEGIC>MOL_PROPERTY
Delta U+W
SciTegic.value.DoubleValue
0.015

@<SCITEGIC>MOL_PROPERTY
U+W
SciTegic.value.DoubleValue
3.025

@<SCITEGIC>MOL_PROPERTY
Grad RMS
SciTegic.value.DoubleValue
0.000000

@<SCITEGIC>MOL_PROPERTY
U
SciTegic.value.DoubleValue
5.843

@<SCITEGIC>MOL_PROPERTY
W
SciTegic.value.DoubleValue
-2.819

@<SCITEGIC>MOL_PROPERTY
W(PB)
SciTegic.value.DoubleValue
-4.568

@<SCITEGIC>MOL_PROPERTY
W(SA)
SciTegic.value.DoubleValue
1.750

@<SCITEGIC>MOL_PROPERTY
Valence
SciTegic.value.DoubleValue
13.789

@<SCITEGIC>MOL_PROPERTY
Coulomb
SciTegic.value.DoubleValue
-8.574

@<SCITEGIC>MOL_PROPERTY
VdW
SciTegic.value.DoubleValue
0.628

@<SCITEGIC>MOL_PROPERTY
VdW6
SciTegic.value.DoubleValue
-3.284

@<SCITEGIC>MOL_PROPERTY
VdW12
SciTegic.value.DoubleValue
3.913

@<SCITEGIC>MOL_PROPERTY
Bond
SciTegic.value.DoubleValue
0.054

@<SCITEGIC>MOL_PROPERTY
Angle
SciTegic.value.DoubleValue
4.033

@<SCITEGIC>MOL_PROPERTY
Pdih
SciTegic.value.DoubleValue
9.702

@<SCITEGIC>MOL_PROPERTY
Idih
SciTegic.value.DoubleValue
0.000

@<SCITEGIC>MOL_PROPERTY
Tether
SciTegic.value.DoubleValue
0.000

@<TRIPOS>MOLECULE
guest-4_confgen4.mol2 : confsearch ligand conformer 15
          16          16           1
SMALL
USER_CHARGES
 
@<TRIPOS>ATOM
       1    C1      19.165018   17.305888   22.453490 C.3        1 MOL1        -0.1689
       2    H1      19.016715   16.728738   21.530380 H          1 MOL1         0.0830
       3    H2      19.108006   16.604986   23.297577 H          1 MOL1         0.0830
       4    C2      18.091910   18.411396   22.559857 C.3        1 MOL1        -0.1689
       5    H3      17.423624   18.368608   21.688771 H          1 MOL1         0.0830
       6    H4      17.474188   18.289367   23.460150 H          1 MOL1         0.0830
       7    C3      18.849635   19.755887   22.585010 C.3        1 MOL1        -0.1765
       8    H5      18.961533   20.094546   23.623475 H          1 MOL1         0.0830
       9    H6      18.319475   20.542873   22.032210 H          1 MOL1         0.0830
      10    C4      20.239993   19.471284   22.001143 C.3        1 MOL1         0.1214
      11    H7      20.994826   20.166254   22.396398 H          1 MOL1         0.0787
      12    C5      20.530960   18.023809   22.419605 C.3        1 MOL1        -0.1765
      13    H8      21.243620   17.530983   21.744888 H          1 MOL1         0.0830
      14    H9      20.969845   18.025007   23.426085 H          1 MOL1         0.0830
      15    O1      20.176270   19.544721   20.584332 O.3        1 MOL1        -0.5512
      16    H10     19.486134   18.899416   20.326541 H          1 MOL1         0.3776
@<TRIPOS>BOND
    1     1     2    1
    2     1     3    1
    3     1     4    1
    4     4     5    1
    5     4     6    1
    6     4     7    1
    7     7     8    1
    8     7     9    1
    9     7    10    1
   10    10    11    1
   11     1    12    1
   12    10    12    1
   13    12    13    1
   14    12    14    1
   15    10    15    1
   16    15    16    1
@<TRIPOS>SUBSTRUCTURE
       1 MOL1            1 RESIDUE      1      MOL     
@<SCITEGIC>MOL_PROPERTY
VConf Rank
SciTegic.value.IntegerValue
15

@<SCITEGIC>MOL_PROPERTY
Conf_Id
SciTegic.value.IntegerValue
20

@<SCITEGIC>MOL_PROPERTY
Delta U+W
SciTegic.value.DoubleValue
-0.483

@<SCITEGIC>MOL_PROPERTY
U+W
SciTegic.value.DoubleValue
2.527

@<SCITEGIC>MOL_PROPERTY
Grad RMS
SciTegic.value.DoubleValue
0.000000

@<SCITEGIC>MOL_PROPERTY
U
SciTegic.value.DoubleValue
4.508

@<SCITEGIC>MOL_PROPERTY
W
SciTegic.value.DoubleValue
-1.981

@<SCITEGIC>MOL_PROPERTY
W(PB)
SciTegic.value.DoubleValue
-3.712

@<SCITEGIC>MOL_PROPERTY
W(SA)
SciTegic.value.DoubleValue
1.732

@<SCITEGIC>MOL_PROPERTY
Valence
SciTegic.value.DoubleValue
14.705

@<SCITEGIC>MOL_PROPERTY
Coulomb
SciTegic.value.DoubleValue
-10.687

@<SCITEGIC>MOL_PROPERTY
VdW
SciTegic.value.DoubleValue
0.490

@<SCITEGIC>MOL_PROPERTY
VdW6
SciTegic.value.DoubleValue
-3.745

@<SCITEGIC>MOL_PROPERTY
VdW12
SciTegic.value.DoubleValue
4.235

@<SCITEGIC>MOL_PROPERTY
Bond
SciTegic.value.DoubleValue
0.068

@<SCITEGIC>MOL_PROPERTY
Angle
SciTegic.value.DoubleValue
3.901

@<SCITEGIC>MOL_PROPERTY
Pdih
SciTegic.value.DoubleValue
10.737

@<SCITEGIC>MOL_PROPERTY
Idih
SciTegic.value.DoubleValue
0.000

@<SCITEGIC>MOL_PROPERTY
Tether
SciTegic.value.DoubleValue
0.000

@<TRIPOS>MOLECULE
guest-4_confgen4.mol2 : confsearch ligand conformer 16
          16          16           1
SMALL
USER_CHARGES
 
@<TRIPOS>ATOM
       1    C1      19.867452   19.790541   22.884656 C.3        1 MOL1        -0.1689
       2    H1      19.453919   20.587514   22.251014 H          1 MOL1         0.0830
       3    H2      20.434247   20.258967   23.700722 H          1 MOL1         0.0830
       4    C2      20.733535   18.852993   22.032230 C.3        1 MOL1        -0.1689
       5    H3      21.332323   19.397341   21.289332 H          1 MOL1         0.0830
       6    H4      21.419430   18.291158   22.681472 H          1 MOL1         0.0830
       7    C3      19.726242   17.888403   21.379938 C.3        1 MOL1        -0.1765
       8    H5      20.179322   16.908223   21.182934 H          1 MOL1         0.0830
       9    H6      19.393484   18.305448   20.419662 H          1 MOL1         0.0830
      10    C4      18.535918   17.777284   22.355879 C.3        1 MOL1         0.1214
      11    H7      18.554187   16.801139   22.862164 H          1 MOL1         0.0787
      12    C5      18.724627   18.896670   23.400483 C.3        1 MOL1        -0.1765
      13    H8      17.804089   19.472365   23.565427 H          1 MOL1         0.0830
      14    H9      19.012989   18.446581   24.359309 H          1 MOL1         0.0830
      15    O1      17.309902   17.959443   21.657600 O.3        1 MOL1        -0.5512
      16    H10     17.247901   17.231463   21.003588 H          1 MOL1         0.3776
@<TRIPOS>BOND
    1     1     2    1
    2     1     3    1
    3     1     4    1
    4     4     5    1
    5     4     6    1
    6     4     7    1
    7     7     8    1
    8     7     9    1
    9     7    10    1
   10    10    11    1
   11     1    12    1
   12    10    12    1
   13    12    13    1
   14    12    14    1
   15    10    15    1
   16    15    16    1
@<TRIPOS>SUBSTRUCTURE
       1 MOL1            1 RESIDUE      1      MOL     
@<SCITEGIC>MOL_PROPERTY
VConf Rank
SciTegic.value.IntegerValue
16

@<SCITEGIC>MOL_PROPERTY
Conf_Id
SciTegic.value.IntegerValue
59

@<SCITEGIC>MOL_PROPERTY
Delta U+W
SciTegic.value.DoubleValue
0.000

@<SCITEGIC>MOL_PROPERTY
U+W
SciTegic.value.DoubleValue
3.010

@<SCITEGIC>MOL_PROPERTY
Grad RMS
SciTegic.value.DoubleValue
0.000000

@<SCITEGIC>MOL_PROPERTY
U
SciTegic.value.DoubleValue
5.843

@<SCITEGIC>MOL_PROPERTY
W
SciTegic.value.DoubleValue
-2.833

@<SCITEGIC>MOL_PROPERTY
W(PB)
SciTegic.value.DoubleValue
-4.568

@<SCITEGIC>MOL_PROPERTY
W(SA)
SciTegic.value.DoubleValue
1.735

@<SCITEGIC>MOL_PROPERTY
Valence
SciTegic.value.DoubleValue
13.789

@<SCITEGIC>MOL_PROPERTY
Coulomb
SciTegic.value.DoubleValue
-8.574

@<SCITEGIC>MOL_PROPERTY
VdW
SciTegic.value.DoubleValue
0.628

@<SCITEGIC>MOL_PROPERTY
VdW6
SciTegic.value.DoubleValue
-3.284

@<SCITEGIC>MOL_PROPERTY
VdW12
SciTegic.value.DoubleValue
3.912

@<SCITEGIC>MOL_PROPERTY
Bond
SciTegic.value.DoubleValue
0.054

@<SCITEGIC>MOL_PROPERTY
Angle
SciTegic.value.DoubleValue
4.034

@<SCITEGIC>MOL_PROPERTY
Pdih
SciTegic.value.DoubleValue
9.702

@<SCITEGIC>MOL_PROPERTY
Idih
SciTegic.value.DoubleValue
0.000

@<SCITEGIC>MOL_PROPERTY
Tether
SciTegic.value.DoubleValue
0.000

@<TRIPOS>MOLECULE
guest-4_confgen4.mol2 : confsearch ligand conformer 17
          16          16           1
SMALL
USER_CHARGES
 
@<TRIPOS>ATOM
       1    C1      20.828980   19.006801   22.386803 C.3        1 MOL1        -0.1689
       2    H1      21.441239   19.916323   22.318477 H          1 MOL1         0.0830
       3    H2      21.470731   18.186079   22.736363 H          1 MOL1         0.0830
       4    C2      20.193410   18.628306   21.041991 C.3        1 MOL1        -0.1689
       5    H3      19.857601   19.537721   20.524424 H          1 MOL1         0.0830
       6    H4      20.892162   18.095381   20.382917 H          1 MOL1         0.0830
       7    C3      18.972421   17.770014   21.420934 C.3        1 MOL1        -0.1765
       8    H5      19.266304   16.713559   21.472116 H          1 MOL1         0.0830
       9    H6      18.169909   17.857545   20.676399 H          1 MOL1         0.0830
      10    C4      18.524913   18.236061   22.821768 C.3        1 MOL1         0.1214
      11    H7      18.431702   17.362096   23.482840 H          1 MOL1         0.0787
      12    C5      19.633100   19.175898   23.341731 C.3        1 MOL1        -0.1765
      13    H8      19.291056   20.219467   23.314318 H          1 MOL1         0.0830
      14    H9      19.910016   18.938995   24.377125 H          1 MOL1         0.0830
      15    O1      17.289120   18.935417   22.734513 O.3        1 MOL1        -0.5512
      16    H10     17.059955   19.216246   23.645637 H          1 MOL1         0.3776
@<TRIPOS>BOND
    1     1     2    1
    2     1     3    1
    3     1     4    1
    4     4     5    1
    5     4     6    1
    6     4     7    1
    7     7     8    1
    8     7     9    1
    9     7    10    1
   10    10    11    1
   11     1    12    1
   12    10    12    1
   13    12    13    1
   14    12    14    1
   15    10    15    1
   16    15    16    1
@<TRIPOS>SUBSTRUCTURE
       1 MOL1            1 RESIDUE      1      MOL     
@<SCITEGIC>MOL_PROPERTY
VConf Rank
SciTegic.value.IntegerValue
17

@<SCITEGIC>MOL_PROPERTY
Conf_Id
SciTegic.value.IntegerValue
33

@<SCITEGIC>MOL_PROPERTY
Delta U+W
SciTegic.value.DoubleValue
0.015

@<SCITEGIC>MOL_PROPERTY
U+W
SciTegic.value.DoubleValue
3.025

@<SCITEGIC>MOL_PROPERTY
Grad RMS
SciTegic.value.DoubleValue
0.000000

@<SCITEGIC>MOL_PROPERTY
U
SciTegic.value.DoubleValue
5.843

@<SCITEGIC>MOL_PROPERTY
W
SciTegic.value.DoubleValue
-2.819

@<SCITEGIC>MOL_PROPERTY
W(PB)
SciTegic.value.DoubleValue
-4.568

@<SCITEGIC>MOL_PROPERTY
W(SA)
SciTegic.value.DoubleValue
1.750

@<SCITEGIC>MOL_PROPERTY
Valence
SciTegic.value.DoubleValue
13.789

@<SCITEGIC>MOL_PROPERTY
Coulomb
SciTegic.value.DoubleValue
-8.574

@<SCITEGIC>MOL_PROPERTY
VdW
SciTegic.value.DoubleValue
0.628

@<SCITEGIC>MOL_PROPERTY
VdW6
SciTegic.value.DoubleValue
-3.284

@<SCITEGIC>MOL_PROPERTY
VdW12
SciTegic.value.DoubleValue
3.913

@<SCITEGIC>MOL_PROPERTY
Bond
SciTegic.value.DoubleValue
0.054

@<SCITEGIC>MOL_PROPERTY
Angle
SciTegic.value.DoubleValue
4.033

@<SCITEGIC>MOL_PROPERTY
Pdih
SciTegic.value.DoubleValue
9.702

@<SCITEGIC>MOL_PROPERTY
Idih
SciTegic.value.DoubleValue
0.000

@<SCITEGIC>MOL_PROPERTY
Tether
SciTegic.value.DoubleValue
0.000

@<TRIPOS>MOLECULE
guest-4_confgen4.mol2 : confsearch ligand conformer 18
          16          16           1
SMALL
USER_CHARGES
 
@<TRIPOS>ATOM
       1    C1      18.825237   18.474359   23.466707 C.3        1 MOL1        -0.1689
       2    H1      17.846368   17.975335   23.462536 H          1 MOL1         0.0830
       3    H2      19.075875   18.707832   24.510579 H          1 MOL1         0.0830
       4    C2      18.768378   19.749590   22.597470 C.3        1 MOL1        -0.1689
       5    H3      17.761720   19.868313   22.173478 H          1 MOL1         0.0830
       6    H4      18.990281   20.650069   23.186449 H          1 MOL1         0.0830
       7    C3      19.803018   19.556207   21.468507 C.3        1 MOL1        -0.1765
       8    H5      20.737732   20.066383   21.736184 H          1 MOL1         0.0830
       9    H6      19.457934   19.971162   20.512089 H          1 MOL1         0.0830
      10    C4      20.065282   18.046423   21.386253 C.3        1 MOL1         0.1214
      11    H7      21.073531   17.831121   21.004073 H          1 MOL1         0.0787
      12    C5      19.892978   17.558799   22.831068 C.3        1 MOL1        -0.1765
      13    H8      19.614861   16.497619   22.881589 H          1 MOL1         0.0830
      14    H9      20.845051   17.680416   23.364348 H          1 MOL1         0.0830
      15    O1      19.073735   17.443388   20.567724 O.3        1 MOL1        -0.5512
      16    H10     18.219769   17.686747   20.980860 H          1 MOL1         0.3776
@<TRIPOS>BOND
    1     1     2    1
    2     1     3    1
    3     1     4    1
    4     4     5    1
    5     4     6    1
    6     4     7    1
    7     7     8    1
    8     7     9    1
    9     7    10    1
   10    10    11    1
   11     1    12    1
   12    10    12    1
   13    12    13    1
   14    12    14    1
   15    10    15    1
   16    15    16    1
@<TRIPOS>SUBSTRUCTURE
       1 MOL1            1 RESIDUE      1      MOL     
@<SCITEGIC>MOL_PROPERTY
VConf Rank
SciTegic.value.IntegerValue
18

@<SCITEGIC>MOL_PROPERTY
Conf_Id
SciTegic.value.IntegerValue
20

@<SCITEGIC>MOL_PROPERTY
Delta U+W
SciTegic.value.DoubleValue
-0.483

@<SCITEGIC>MOL_PROPERTY
U+W
SciTegic.value.DoubleValue
2.527

@<SCITEGIC>MOL_PROPERTY
Grad RMS
SciTegic.value.DoubleValue
0.000000

@<SCITEGIC>MOL_PROPERTY
U
SciTegic.value.DoubleValue
4.508

@<SCITEGIC>MOL_PROPERTY
W
SciTegic.value.DoubleValue
-1.981

@<SCITEGIC>MOL_PROPERTY
W(PB)
SciTegic.value.DoubleValue
-3.712

@<SCITEGIC>MOL_PROPERTY
W(SA)
SciTegic.value.DoubleValue
1.732

@<SCITEGIC>MOL_PROPERTY
Valence
SciTegic.value.DoubleValue
14.705

@<SCITEGIC>MOL_PROPERTY
Coulomb
SciTegic.value.DoubleValue
-10.687

@<SCITEGIC>MOL_PROPERTY
VdW
SciTegic.value.DoubleValue
0.490

@<SCITEGIC>MOL_PROPERTY
VdW6
SciTegic.value.DoubleValue
-3.745

@<SCITEGIC>MOL_PROPERTY
VdW12
SciTegic.value.DoubleValue
4.235

@<SCITEGIC>MOL_PROPERTY
Bond
SciTegic.value.DoubleValue
0.068

@<SCITEGIC>MOL_PROPERTY
Angle
SciTegic.value.DoubleValue
3.901

@<SCITEGIC>MOL_PROPERTY
Pdih
SciTegic.value.DoubleValue
10.737

@<SCITEGIC>MOL_PROPERTY
Idih
SciTegic.value.DoubleValue
0.000

@<SCITEGIC>MOL_PROPERTY
Tether
SciTegic.value.DoubleValue
0.000

@<TRIPOS>MOLECULE
guest-4_confgen4.mol2 : confsearch ligand conformer 19
          16          16           1
SMALL
USER_CHARGES
 
@<TRIPOS>ATOM
       1    C1      20.297157   19.381179   21.574004 C.3        1 MOL1        -0.1689
       2    H1      21.000224   19.758729   22.329536 H          1 MOL1         0.0830
       3    H2      20.628258   19.735434   20.588347 H          1 MOL1         0.0830
       4    C2      18.875182   19.846192   21.916752 C.3        1 MOL1        -0.1689
       5    H3      18.852033   20.878379   22.292005 H          1 MOL1         0.0830
       6    H4      18.242415   19.792372   21.019904 H          1 MOL1         0.0830
       7    C3      18.382057   18.830872   22.963896 C.3        1 MOL1        -0.1765
       8    H5      17.291954   18.709226   22.922379 H          1 MOL1         0.0830
       9    H6      18.643526   19.189440   23.968807 H          1 MOL1         0.0830
      10    C4      19.112652   17.505394   22.662201 C.3        1 MOL1         0.1214
      11    H7      18.416373   16.787577   22.204541 H          1 MOL1         0.0787
      12    C5      20.230016   17.844887   21.654195 C.3        1 MOL1        -0.1765
      13    H8      21.197328   17.412487   21.942916 H          1 MOL1         0.0830
      14    H9      19.961799   17.436000   20.671367 H          1 MOL1         0.0830
      15    O1      19.673942   16.971577   23.855466 O.3        1 MOL1        -0.5512
      16    H10     18.924650   16.785788   24.460095 H          1 MOL1         0.3776
@<TRIPOS>BOND
    1     1     2    1
    2     1     3    1
    3     1     4    1
    4     4     5    1
    5     4     6    1
    6     4     7    1
    7     7     8    1
    8     7     9    1
    9     7    10    1
   10    10    11    1
   11     1    12    1
   12    10    12    1
   13    12    13    1
   14    12    14    1
   15    10    15    1
   16    15    16    1
@<TRIPOS>SUBSTRUCTURE
       1 MOL1            1 RESIDUE      1      MOL     
@<SCITEGIC>MOL_PROPERTY
VConf Rank
SciTegic.value.IntegerValue
19

@<SCITEGIC>MOL_PROPERTY
Conf_Id
SciTegic.value.IntegerValue
59

@<SCITEGIC>MOL_PROPERTY
Delta U+W
SciTegic.value.DoubleValue
0.000

@<SCITEGIC>MOL_PROPERTY
U+W
SciTegic.value.DoubleValue
3.010

@<SCITEGIC>MOL_PROPERTY
Grad RMS
SciTegic.value.DoubleValue
0.000000

@<SCITEGIC>MOL_PROPERTY
U
SciTegic.value.DoubleValue
5.843

@<SCITEGIC>MOL_PROPERTY
W
SciTegic.value.DoubleValue
-2.833

@<SCITEGIC>MOL_PROPERTY
W(PB)
SciTegic.value.DoubleValue
-4.568

@<SCITEGIC>MOL_PROPERTY
W(SA)
SciTegic.value.DoubleValue
1.735

@<SCITEGIC>MOL_PROPERTY
Valence
SciTegic.value.DoubleValue
13.789

@<SCITEGIC>MOL_PROPERTY
Coulomb
SciTegic.value.DoubleValue
-8.574

@<SCITEGIC>MOL_PROPERTY
VdW
SciTegic.value.DoubleValue
0.628

@<SCITEGIC>MOL_PROPERTY
VdW6
SciTegic.value.DoubleValue
-3.284

@<SCITEGIC>MOL_PROPERTY
VdW12
SciTegic.value.DoubleValue
3.912

@<SCITEGIC>MOL_PROPERTY
Bond
SciTegic.value.DoubleValue
0.054

@<SCITEGIC>MOL_PROPERTY
Angle
SciTegic.value.DoubleValue
4.034

@<SCITEGIC>MOL_PROPERTY
Pdih
SciTegic.value.DoubleValue
9.702

@<SCITEGIC>MOL_PROPERTY
Idih
SciTegic.value.DoubleValue
0.000

@<SCITEGIC>MOL_PROPERTY
Tether
SciTegic.value.DoubleValue
0.000

@<TRIPOS>MOLECULE
guest-4_confgen4.mol2 : confsearch ligand conformer 20
          16          16           1
SMALL
USER_CHARGES
 
@<TRIPOS>ATOM
       1    C1      19.589156   18.201757   20.923729 C.3        1 MOL1        -0.1689
       2    H1      18.971245   17.801430   20.108448 H          1 MOL1         0.0830
       3    H2      20.577454   18.453117   20.514208 H          1 MOL1         0.0830
       4    C2      19.747743   17.204833   22.079895 C.3        1 MOL1        -0.1689
       5    H3      18.794677   16.685349   22.251590 H          1 MOL1         0.0830
       6    H4      20.520072   16.449764   21.879843 H          1 MOL1         0.0830
       7    C3      20.084657   18.080953   23.300542 C.3        1 MOL1        -0.1765
       8    H5      21.173061   18.200495   23.379093 H          1 MOL1         0.0830
       9    H6      19.730550   17.625704   24.235088 H          1 MOL1         0.0830
      10    C4      19.444483   19.460475   23.041902 C.3        1 MOL1         0.1214
      11    H7      20.202399   20.244857   23.182704 H          1 MOL1         0.0787
      12    C5      18.963076   19.448193   21.575672 C.3        1 MOL1        -0.1765
      13    H8      17.868207   19.368187   21.535144 H          1 MOL1         0.0830
      14    H9      19.253804   20.365686   21.047912 H          1 MOL1         0.0830
      15    O1      18.342457   19.662010   23.918726 O.3        1 MOL1        -0.5512
      16    H10     17.969574   20.543101   23.703862 H          1 MOL1         0.3776
@<TRIPOS>BOND
    1     1     2    1
    2     1     3    1
    3     1     4    1
    4     4     5    1
    5     4     6    1
    6     4     7    1
    7     7     8    1
    8     7     9    1
    9     7    10    1
   10    10    11    1
   11     1    12    1
   12    10    12    1
   13    12    13    1
   14    12    14    1
   15    10    15    1
   16    15    16    1
@<TRIPOS>SUBSTRUCTURE
       1 MOL1            1 RESIDUE      1      MOL     
@<SCITEGIC>MOL_PROPERTY
VConf Rank
SciTegic.value.IntegerValue
20

@<SCITEGIC>MOL_PROPERTY
Conf_Id
SciTegic.value.IntegerValue
33

@<SCITEGIC>MOL_PROPERTY
Delta U+W
SciTegic.value.DoubleValue
0.015

@<SCITEGIC>MOL_PROPERTY
U+W
SciTegic.value.DoubleValue
3.025

@<SCITEGIC>MOL_PROPERTY
Grad RMS
SciTegic.value.DoubleValue
0.000000

@<SCITEGIC>MOL_PROPERTY
U
SciTegic.value.DoubleValue
5.843

@<SCITEGIC>MOL_PROPERTY
W
SciTegic.value.DoubleValue
-2.819

@<SCITEGIC>MOL_PROPERTY
W(PB)
SciTegic.value.DoubleValue
-4.568

@<SCITEGIC>MOL_PROPERTY
W(SA)
SciTegic.value.DoubleValue
1.750

@<SCITEGIC>MOL_PROPERTY
Valence
SciTegic.value.DoubleValue
13.789

@<SCITEGIC>MOL_PROPERTY
Coulomb
SciTegic.value.DoubleValue
-8.574

@<SCITEGIC>MOL_PROPERTY
VdW
SciTegic.value.DoubleValue
0.628

@<SCITEGIC>MOL_PROPERTY
VdW6
SciTegic.value.DoubleValue
-3.284

@<SCITEGIC>MOL_PROPERTY
VdW12
SciTegic.value.DoubleValue
3.913

@<SCITEGIC>MOL_PROPERTY
Bond
SciTegic.value.DoubleValue
0.054

@<SCITEGIC>MOL_PROPERTY
Angle
SciTegic.value.DoubleValue
4.033

@<SCITEGIC>MOL_PROPERTY
Pdih
SciTegic.value.DoubleValue
9.702

@<SCITEGIC>MOL_PROPERTY
Idih
SciTegic.value.DoubleValue
0.000

@<SCITEGIC>MOL_PROPERTY
Tether
SciTegic.value.DoubleValue
0.000

@<TRIPOS>MOLECULE
guest-4_confgen4.mol2 : confsearch ligand conformer 21
          16          16           1
SMALL
USER_CHARGES
 
@<TRIPOS>ATOM
       1    C1      18.330449   17.989759   22.807763 C.3        1 MOL1        -0.1689
       2    H1      18.131788   18.274985   23.850071 H          1 MOL1         0.0830
       3    H2      17.564802   17.260244   22.510123 H          1 MOL1         0.0830
       4    C2      19.753146   17.401376   22.686273 C.3        1 MOL1        -0.1689
       5    H3      20.242633   17.400862   23.669954 H          1 MOL1         0.0830
       6    H4      19.731768   16.364375   22.324098 H          1 MOL1         0.0830
       7    C3      20.522479   18.314781   21.708390 C.3        1 MOL1        -0.1765
       8    H5      20.509461   17.870678   20.704287 H          1 MOL1         0.0830
       9    H6      21.572484   18.447514   22.001438 H          1 MOL1         0.0830
      10    C4      19.755750   19.643704   21.675459 C.3        1 MOL1         0.1214
      11    H7      19.889338   20.164245   20.716202 H          1 MOL1         0.0787
      12    C5      18.293138   19.235908   21.897775 C.3        1 MOL1        -0.1765
      13    H8      17.695594   20.049459   22.330304 H          1 MOL1         0.0830
      14    H9      17.845999   18.970680   20.930644 H          1 MOL1         0.0830
      15    O1      20.183988   20.457678   22.757524 O.3        1 MOL1        -0.5512
      16    H10     20.028933   19.917514   23.559611 H          1 MOL1         0.3776
@<TRIPOS>BOND
    1     1     2    1
    2     1     3    1
    3     1     4    1
    4     4     5    1
    5     4     6    1
    6     4     7    1
    7     7     8    1
    8     7     9    1
    9     7    10    1
   10    10    11    1
   11     1    12    1
   12    10    12    1
   13    12    13    1
   14    12    14    1
   15    10    15    1
   16    15    16    1
@<TRIPOS>SUBSTRUCTURE
       1 MOL1            1 RESIDUE      1      MOL     
@<SCITEGIC>MOL_PROPERTY
VConf Rank
SciTegic.value.IntegerValue
21

@<SCITEGIC>MOL_PROPERTY
Conf_Id
SciTegic.value.IntegerValue
20

@<SCITEGIC>MOL_PROPERTY
Delta U+W
SciTegic.value.DoubleValue
-0.483

@<SCITEGIC>MOL_PROPERTY
U+W
SciTegic.value.DoubleValue
2.527

@<SCITEGIC>MOL_PROPERTY
Grad RMS
SciTegic.value.DoubleValue
0.000000

@<SCITEGIC>MOL_PROPERTY
U
SciTegic.value.DoubleValue
4.508

@<SCITEGIC>MOL_PROPERTY
W
SciTegic.value.DoubleValue
-1.981

@<SCITEGIC>MOL_PROPERTY
W(PB)
SciTegic.value.DoubleValue
-3.712

@<SCITEGIC>MOL_PROPERTY
W(SA)
SciTegic.value.DoubleValue
1.732

@<SCITEGIC>MOL_PROPERTY
Valence
SciTegic.value.DoubleValue
14.705

@<SCITEGIC>MOL_PROPERTY
Coulomb
SciTegic.value.DoubleValue
-10.687

@<SCITEGIC>MOL_PROPERTY
VdW
SciTegic.value.DoubleValue
0.490

@<SCITEGIC>MOL_PROPERTY
VdW6
SciTegic.value.DoubleValue
-3.745

@<SCITEGIC>MOL_PROPERTY
VdW12
SciTegic.value.DoubleValue
4.235

@<SCITEGIC>MOL_PROPERTY
Bond
SciTegic.value.DoubleValue
0.068

@<SCITEGIC>MOL_PROPERTY
Angle
SciTegic.value.DoubleValue
3.901

@<SCITEGIC>MOL_PROPERTY
Pdih
SciTegic.value.DoubleValue
10.737

@<SCITEGIC>MOL_PROPERTY
Idih
SciTegic.value.DoubleValue
0.000

@<SCITEGIC>MOL_PROPERTY
Tether
SciTegic.value.DoubleValue
0.000

@<TRIPOS>MOLECULE
guest-4_confgen4.mol2 : confsearch ligand conformer 22
          16          16           1
SMALL
USER_CHARGES
 
@<TRIPOS>ATOM
       1    C1      20.395947   17.709545   22.882761 C.3        1 MOL1        -0.1689
       2    H1      20.318672   17.856615   23.969075 H          1 MOL1         0.0830
       3    H2      21.172793   16.956752   22.691825 H          1 MOL1         0.0830
       4    C2      20.700084   19.051327   22.202429 C.3        1 MOL1        -0.1689
       5    H3      21.413928   19.658335   22.775775 H          1 MOL1         0.0830
       6    H4      21.124912   18.872098   21.204921 H          1 MOL1         0.0830
       7    C3      19.326113   19.733135   22.068646 C.3        1 MOL1        -0.1765
       8    H5      19.293281   20.402159   21.199063 H          1 MOL1         0.0830
       9    H6      19.130938   20.336175   22.965883 H          1 MOL1         0.0830
      10    C4      18.287052   18.598179   21.950731 C.3        1 MOL1         0.1214
      11    H7      17.921678   18.528448   20.915763 H          1 MOL1         0.0787
      12    C5      19.024193   17.294240   22.319786 C.3        1 MOL1        -0.1765
      13    H8      18.459695   16.685443   23.038624 H          1 MOL1         0.0830
      14    H9      19.165087   16.693451   21.411886 H          1 MOL1         0.0830
      15    O1      17.209013   18.824039   22.851125 O.3        1 MOL1        -0.5512
      16    H10     16.786180   19.665591   22.578117 H          1 MOL1         0.3776
@<TRIPOS>BOND
    1     1     2    1
    2     1     3    1
    3     1     4    1
    4     4     5    1
    5     4     6    1
    6     4     7    1
    7     7     8    1
    8     7     9    1
    9     7    10    1
   10    10    11    1
   11     1    12    1
   12    10    12    1
   13    12    13    1
   14    12    14    1
   15    10    15    1
   16    15    16    1
@<TRIPOS>SUBSTRUCTURE
       1 MOL1            1 RESIDUE      1      MOL     
@<SCITEGIC>MOL_PROPERTY
VConf Rank
SciTegic.value.IntegerValue
22

@<SCITEGIC>MOL_PROPERTY
Conf_Id
SciTegic.value.IntegerValue
59

@<SCITEGIC>MOL_PROPERTY
Delta U+W
SciTegic.value.DoubleValue
0.000

@<SCITEGIC>MOL_PROPERTY
U+W
SciTegic.value.DoubleValue
3.010

@<SCITEGIC>MOL_PROPERTY
Grad RMS
SciTegic.value.DoubleValue
0.000000

@<SCITEGIC>MOL_PROPERTY
U
SciTegic.value.DoubleValue
5.843

@<SCITEGIC>MOL_PROPERTY
W
SciTegic.value.DoubleValue
-2.833

@<SCITEGIC>MOL_PROPERTY
W(PB)
SciTegic.value.DoubleValue
-4.568

@<SCITEGIC>MOL_PROPERTY
W(SA)
SciTegic.value.DoubleValue
1.735

@<SCITEGIC>MOL_PROPERTY
Valence
SciTegic.value.DoubleValue
13.789

@<SCITEGIC>MOL_PROPERTY
Coulomb
SciTegic.value.DoubleValue
-8.574

@<SCITEGIC>MOL_PROPERTY
VdW
SciTegic.value.DoubleValue
0.628

@<SCITEGIC>MOL_PROPERTY
VdW6
SciTegic.value.DoubleValue
-3.284

@<SCITEGIC>MOL_PROPERTY
VdW12
SciTegic.value.DoubleValue
3.912

@<SCITEGIC>MOL_PROPERTY
Bond
SciTegic.value.DoubleValue
0.054

@<SCITEGIC>MOL_PROPERTY
Angle
SciTegic.value.DoubleValue
4.034

@<SCITEGIC>MOL_PROPERTY
Pdih
SciTegic.value.DoubleValue
9.702

@<SCITEGIC>MOL_PROPERTY
Idih
SciTegic.value.DoubleValue
0.000

@<SCITEGIC>MOL_PROPERTY
Tether
SciTegic.value.DoubleValue
0.000

@<TRIPOS>MOLECULE
guest-4_confgen4.mol2 : confsearch ligand conformer 23
          16          16           1
SMALL
USER_CHARGES
 
@<TRIPOS>ATOM
       1    C1      19.677882   17.195686   22.238439 C.3        1 MOL1        -0.1689
       2    H1      19.787425   16.397690   21.491471 H          1 MOL1         0.0830
       3    H2      19.923060   16.778688   23.225162 H          1 MOL1         0.0830
       4    C2      18.259430   17.781429   22.263468 C.3        1 MOL1        -0.1689
       5    H3      17.878310   17.867401   21.236319 H          1 MOL1         0.0830
       6    H4      17.559437   17.161038   22.839459 H          1 MOL1         0.0830
       7    C3      18.433600   19.186813   22.868147 C.3        1 MOL1        -0.1765
       8    H5      18.329267   19.133784   23.959654 H          1 MOL1         0.0830
       9    H6      17.673263   19.885161   22.493692 H          1 MOL1         0.0830
      10    C4      19.866710   19.640334   22.521285 C.3        1 MOL1         0.1214
      11    H7      20.373345   19.976170   23.437829 H          1 MOL1         0.0787
      12    C5      20.586030   18.403420   21.943048 C.3        1 MOL1        -0.1765
      13    H8      20.709297   18.508099   20.856480 H          1 MOL1         0.0830
      14    H9      21.582591   18.273302   22.384389 H          1 MOL1         0.0830
      15    O1      19.830654   20.683653   21.554805 O.3        1 MOL1        -0.5512
      16    H10     20.762313   20.923244   21.364711 H          1 MOL1         0.3776
@<TRIPOS>BOND
    1     1     2    1
    2     1     3    1
    3     1     4    1
    4     4     5    1
    5     4     6    1
    6     4     7    1
    7     7     8    1
    8     7     9    1
    9     7    10    1
   10    10    11    1
   11     1    12    1
   12    10    12    1
   13    12    13    1
   14    12    14    1
   15    10    15    1
   16    15    16    1
@<TRIPOS>SUBSTRUCTURE
       1 MOL1            1 RESIDUE      1      MOL     
@<SCITEGIC>MOL_PROPERTY
VConf Rank
SciTegic.value.IntegerValue
23

@<SCITEGIC>MOL_PROPERTY
Conf_Id
SciTegic.value.IntegerValue
33

@<SCITEGIC>MOL_PROPERTY
Delta U+W
SciTegic.value.DoubleValue
0.015

@<SCITEGIC>MOL_PROPERTY
U+W
SciTegic.value.DoubleValue
3.025

@<SCITEGIC>MOL_PROPERTY
Grad RMS
SciTegic.value.DoubleValue
0.000000

@<SCITEGIC>MOL_PROPERTY
U
SciTegic.value.DoubleValue
5.843

@<SCITEGIC>MOL_PROPERTY
W
SciTegic.value.DoubleValue
-2.819

@<SCITEGIC>MOL_PROPERTY
W(PB)
SciTegic.value.DoubleValue
-4.568

@<SCITEGIC>MOL_PROPERTY
W(SA)
SciTegic.value.DoubleValue
1.750

@<SCITEGIC>MOL_PROPERTY
Valence
SciTegic.value.DoubleValue
13.789

@<SCITEGIC>MOL_PROPERTY
Coulomb
SciTegic.value.DoubleValue
-8.574

@<SCITEGIC>MOL_PROPERTY
VdW
SciTegic.value.DoubleValue
0.628

@<SCITEGIC>MOL_PROPERTY
VdW6
SciTegic.value.DoubleValue
-3.284

@<SCITEGIC>MOL_PROPERTY
VdW12
SciTegic.value.DoubleValue
3.913

@<SCITEGIC>MOL_PROPERTY
Bond
SciTegic.value.DoubleValue
0.054

@<SCITEGIC>MOL_PROPERTY
Angle
SciTegic.value.DoubleValue
4.033

@<SCITEGIC>MOL_PROPERTY
Pdih
SciTegic.value.DoubleValue
9.702

@<SCITEGIC>MOL_PROPERTY
Idih
SciTegic.value.DoubleValue
0.000

@<SCITEGIC>MOL_PROPERTY
Tether
SciTegic.value.DoubleValue
0.000

@<TRIPOS>MOLECULE
guest-4_confgen4.mol2 : confsearch ligand conformer 24
          16          16           1
SMALL
USER_CHARGES
 
@<TRIPOS>ATOM
       1    C1      18.707022   17.509576   21.907442 C.3        1 MOL1        -0.1689
       2    H1      17.691748   17.699292   21.532671 H          1 MOL1         0.0830
       3    H2      18.881086   16.425675   21.864344 H          1 MOL1         0.0830
       4    C2      18.844826   18.050041   23.347556 C.3        1 MOL1        -0.1689
       5    H3      17.895948   18.500371   23.670140 H          1 MOL1         0.0830
       6    H4      19.091987   17.248995   24.057651 H          1 MOL1         0.0830
       7    C3      19.956810   19.119827   23.309004 C.3        1 MOL1        -0.1765
       8    H5      20.905190   18.675206   23.638410 H          1 MOL1         0.0830
       9    H6      19.739387   19.970177   23.969033 H          1 MOL1         0.0830
      10    C4      20.088668   19.543197   21.839867 C.3        1 MOL1         0.1214
      11    H7      21.104189   19.896710   21.610242 H          1 MOL1         0.0787
      12    C5      19.741762   18.272196   21.052994 C.3        1 MOL1        -0.1765
      13    H8      19.365896   18.496122   20.045727 H          1 MOL1         0.0830
      14    H9      20.648119   17.662169   20.943425 H          1 MOL1         0.0830
      15    O1      19.125968   20.547427   21.554318 O.3        1 MOL1        -0.5512
      16    H10     18.263146   20.146781   21.787089 H          1 MOL1         0.3776
@<TRIPOS>BOND
    1     1     2    1
    2     1     3    1
    3     1     4    1
    4     4     5    1
    5     4     6    1
    6     4     7    1
    7     7     8    1
    8     7     9    1
    9     7    10    1
   10    10    11    1
   11     1    12    1
   12    10    12    1
   13    12    13    1
   14    12    14    1
   15    10    15    1
   16    15    16    1
@<TRIPOS>SUBSTRUCTURE
       1 MOL1            1 RESIDUE      1      MOL     
@<SCITEGIC>MOL_PROPERTY
VConf Rank
SciTegic.value.IntegerValue
24

@<SCITEGIC>MOL_PROPERTY
Conf_Id
SciTegic.value.IntegerValue
20

@<SCITEGIC>MOL_PROPERTY
Delta U+W
SciTegic.value.DoubleValue
-0.483

@<SCITEGIC>MOL_PROPERTY
U+W
SciTegic.value.DoubleValue
2.527

@<SCITEGIC>MOL_PROPERTY
Grad RMS
SciTegic.value.DoubleValue
0.000000

@<SCITEGIC>MOL_PROPERTY
U
SciTegic.value.DoubleValue
4.508

@<SCITEGIC>MOL_PROPERTY
W
SciTegic.value.DoubleValue
-1.981

@<SCITEGIC>MOL_PROPERTY
W(PB)
SciTegic.value.DoubleValue
-3.712

@<SCITEGIC>MOL_PROPERTY
W(SA)
SciTegic.value.DoubleValue
1.732

@<SCITEGIC>MOL_PROPERTY
Valence
SciTegic.value.DoubleValue
14.705

@<SCITEGIC>MOL_PROPERTY
Coulomb
SciTegic.value.DoubleValue
-10.687

@<SCITEGIC>MOL_PROPERTY
VdW
SciTegic.value.DoubleValue
0.490

@<SCITEGIC>MOL_PROPERTY
VdW6
SciTegic.value.DoubleValue
-3.745

@<SCITEGIC>MOL_PROPERTY
VdW12
SciTegic.value.DoubleValue
4.235

@<SCITEGIC>MOL_PROPERTY
Bond
SciTegic.value.DoubleValue
0.068

@<SCITEGIC>MOL_PROPERTY
Angle
SciTegic.value.DoubleValue
3.901

@<SCITEGIC>MOL_PROPERTY
Pdih
SciTegic.value.DoubleValue
10.737

@<SCITEGIC>MOL_PROPERTY
Idih
SciTegic.value.DoubleValue
0.000

@<SCITEGIC>MOL_PROPERTY
Tether
SciTegic.value.DoubleValue
0.000

@<TRIPOS>MOLECULE
guest-4_confgen4.mol2 : confsearch ligand conformer 25
          16          16           1
SMALL
USER_CHARGES
 
@<TRIPOS>ATOM
       1    C1      20.149196   17.709221   21.434341 C.3        1 MOL1        -0.1689
       2    H1      19.557632   17.626747   20.511883 H          1 MOL1         0.0830
       3    H2      21.097296   17.175223   21.284024 H          1 MOL1         0.0830
       4    C2      19.342407   17.150444   22.614420 C.3        1 MOL1        -0.1689
       5    H3      18.778374   16.247179   22.344721 H          1 MOL1         0.0830
       6    H4      20.022067   16.897394   23.440043 H          1 MOL1         0.0830
       7    C3      18.422898   18.311915   23.033997 C.3        1 MOL1        -0.1765
       8    H5      18.185407   18.268814   24.104784 H          1 MOL1         0.0830
       9    H6      17.478752   18.247521   22.476119 H          1 MOL1         0.0830
      10    C4      19.171038   19.611923   22.670757 C.3        1 MOL1         0.1214
      11    H7      19.551802   20.094409   23.582757 H          1 MOL1         0.0787
      12    C5      20.359947   19.194747   21.780649 C.3        1 MOL1        -0.1765
      13    H8      20.440952   19.813035   20.876669 H          1 MOL1         0.0830
      14    H9      21.291442   19.311895   22.349573 H          1 MOL1         0.0830
      15    O1      18.309422   20.491420   21.958023 O.3        1 MOL1        -0.5512
      16    H10     17.570935   20.713647   22.563650 H          1 MOL1         0.3776
@<TRIPOS>BOND
    1     1     2    1
    2     1     3    1
    3     1     4    1
    4     4     5    1
    5     4     6    1
    6     4     7    1
    7     7     8    1
    8     7     9    1
    9     7    10    1
   10    10    11    1
   11     1    12    1
   12    10    12    1
   13    12    13    1
   14    12    14    1
   15    10    15    1
   16    15    16    1
@<TRIPOS>SUBSTRUCTURE
       1 MOL1            1 RESIDUE      1      MOL     
@<SCITEGIC>MOL_PROPERTY
VConf Rank
SciTegic.value.IntegerValue
25

@<SCITEGIC>MOL_PROPERTY
Conf_Id
SciTegic.value.IntegerValue
59

@<SCITEGIC>MOL_PROPERTY
Delta U+W
SciTegic.value.DoubleValue
0.000

@<SCITEGIC>MOL_PROPERTY
U+W
SciTegic.value.DoubleValue
3.010

@<SCITEGIC>MOL_PROPERTY
Grad RMS
SciTegic.value.DoubleValue
0.000000

@<SCITEGIC>MOL_PROPERTY
U
SciTegic.value.DoubleValue
5.843

@<SCITEGIC>MOL_PROPERTY
W
SciTegic.value.DoubleValue
-2.833

@<SCITEGIC>MOL_PROPERTY
W(PB)
SciTegic.value.DoubleValue
-4.568

@<SCITEGIC>MOL_PROPERTY
W(SA)
SciTegic.value.DoubleValue
1.735

@<SCITEGIC>MOL_PROPERTY
Valence
SciTegic.value.DoubleValue
13.789

@<SCITEGIC>MOL_PROPERTY
Coulomb
SciTegic.value.DoubleValue
-8.574

@<SCITEGIC>MOL_PROPERTY
VdW
SciTegic.value.DoubleValue
0.628

@<SCITEGIC>MOL_PROPERTY
VdW6
SciTegic.value.DoubleValue
-3.284

@<SCITEGIC>MOL_PROPERTY
VdW12
SciTegic.value.DoubleValue
3.912

@<SCITEGIC>MOL_PROPERTY
Bond
SciTegic.value.DoubleValue
0.054

@<SCITEGIC>MOL_PROPERTY
Angle
SciTegic.value.DoubleValue
4.034

@<SCITEGIC>MOL_PROPERTY
Pdih
SciTegic.value.DoubleValue
9.702

@<SCITEGIC>MOL_PROPERTY
Idih
SciTegic.value.DoubleValue
0.000

@<SCITEGIC>MOL_PROPERTY
Tether
SciTegic.value.DoubleValue
0.000

@<TRIPOS>MOLECULE
guest-4_confgen4.mol2 : confsearch ligand conformer 26
          16          16           1
SMALL
USER_CHARGES
 
@<TRIPOS>ATOM
       1    C1      19.294094   17.219555   21.982518 C.3        1 MOL1        -0.1689
       2    H1      19.842532   16.274243   22.093692 H          1 MOL1         0.0830
       3    H2      18.282788   16.989383   21.619333 H          1 MOL1         0.0830
       4    C2      19.984975   18.184530   21.009259 C.3        1 MOL1        -0.1689
       5    H3      21.073226   18.138139   21.154992 H          1 MOL1         0.0830
       6    H4      19.768036   17.947672   19.958793 H          1 MOL1         0.0830
       7    C3      19.469132   19.577120   21.416294 C.3        1 MOL1        -0.1765
       8    H5      18.556731   19.811294   20.852582 H          1 MOL1         0.0830
       9    H6      20.206624   20.361091   21.198315 H          1 MOL1         0.0830
      10    C4      19.125928   19.497324   22.918173 C.3        1 MOL1         0.1214
      11    H7      18.104553   19.872567   23.077880 H          1 MOL1         0.0787
      12    C5      19.206816   18.005183   23.303799 C.3        1 MOL1        -0.1765
      13    H8      20.109492   17.814511   23.900122 H          1 MOL1         0.0830
      14    H9      18.338086   17.694530   23.898483 H          1 MOL1         0.0830
      15    O1      20.063814   20.251843   23.676439 O.3        1 MOL1        -0.5512
      16    H10     19.805789   20.156925   24.617685 H          1 MOL1         0.3776
@<TRIPOS>BOND
    1     1     2    1
    2     1     3    1
    3     1     4    1
    4     4     5    1
    5     4     6    1
    6     4     7    1
    7     7     8    1
    8     7     9    1
    9     7    10    1
   10    10    11    1
   11     1    12    1
   12    10    12    1
   13    12    13    1
   14    12    14    1
   15    10    15    1
   16    15    16    1
@<TRIPOS>SUBSTRUCTURE
       1 MOL1            1 RESIDUE      1      MOL     
@<SCITEGIC>MOL_PROPERTY
VConf Rank
SciTegic.value.IntegerValue
26

@<SCITEGIC>MOL_PROPERTY
Conf_Id
SciTegic.value.IntegerValue
33

@<SCITEGIC>MOL_PROPERTY
Delta U+W
SciTegic.value.DoubleValue
0.015

@<SCITEGIC>MOL_PROPERTY
U+W
SciTegic.value.DoubleValue
3.025

@<SCITEGIC>MOL_PROPERTY
Grad RMS
SciTegic.value.DoubleValue
0.000000

@<SCITEGIC>MOL_PROPERTY
U
SciTegic.value.DoubleValue
5.843

@<SCITEGIC>MOL_PROPERTY
W
SciTegic.value.DoubleValue
-2.819

@<SCITEGIC>MOL_PROPERTY
W(PB)
SciTegic.value.DoubleValue
-4.568

@<SCITEGIC>MOL_PROPERTY
W(SA)
SciTegic.value.DoubleValue
1.750

@<SCITEGIC>MOL_PROPERTY
Valence
SciTegic.value.DoubleValue
13.789

@<SCITEGIC>MOL_PROPERTY
Coulomb
SciTegic.value.DoubleValue
-8.574

@<SCITEGIC>MOL_PROPERTY
VdW
SciTegic.value.DoubleValue
0.628

@<SCITEGIC>MOL_PROPERTY
VdW6
SciTegic.value.DoubleValue
-3.284

@<SCITEGIC>MOL_PROPERTY
VdW12
SciTegic.value.DoubleValue
3.913

@<SCITEGIC>MOL_PROPERTY
Bond
SciTegic.value.DoubleValue
0.054

@<SCITEGIC>MOL_PROPERTY
Angle
SciTegic.value.DoubleValue
4.033

@<SCITEGIC>MOL_PROPERTY
Pdih
SciTegic.value.DoubleValue
9.702

@<SCITEGIC>MOL_PROPERTY
Idih
SciTegic.value.DoubleValue
0.000

@<SCITEGIC>MOL_PROPERTY
Tether
SciTegic.value.DoubleValue
0.000

@<TRIPOS>MOLECULE
guest-4_confgen4.mol2 : confsearch ligand conformer 27
          16          16           1
SMALL
USER_CHARGES
 
@<TRIPOS>ATOM
       1    C1      19.550396   19.342931   23.361963 C.3        1 MOL1        -0.1689
       2    H1      19.919514   20.360951   23.175912 H          1 MOL1         0.0830
       3    H2      19.410906   19.231908   24.446035 H          1 MOL1         0.0830
       4    C2      20.557344   18.310125   22.810250 C.3        1 MOL1        -0.1689
       5    H3      21.414285   18.828270   22.358139 H          1 MOL1         0.0830
       6    H4      20.943835   17.658154   23.605585 H          1 MOL1         0.0830
       7    C3      19.803477   17.492434   21.739968 C.3        1 MOL1        -0.1765
       8    H5      19.444357   16.553358   22.181318 H          1 MOL1         0.0830
       9    H6      20.443034   17.236557   20.884690 H          1 MOL1         0.0830
      10    C4      18.594871   18.343588   21.327899 C.3        1 MOL1         0.1214
      11    H7      17.761430   17.718995   20.975422 H          1 MOL1         0.0787
      12    C5      18.225512   19.109738   22.605218 C.3        1 MOL1        -0.1765
      13    H8      17.698564   20.048752   22.389385 H          1 MOL1         0.0830
      14    H9      17.559469   18.485491   23.215402 H          1 MOL1         0.0830
      15    O1      18.993672   19.268371   20.326628 O.3        1 MOL1        -0.5512
      16    H10     19.731087   19.774141   20.726101 H          1 MOL1         0.3776
@<TRIPOS>BOND
    1     1     2    1
    2     1     3    1
    3     1     4    1
    4     4     5    1
    5     4     6    1
    6     4     7    1
    7     7     8    1
    8     7     9    1
    9     7    10    1
   10    10    11    1
   11     1    12    1
   12    10    12    1
   13    12    13    1
   14    12    14    1
   15    10    15    1
   16    15    16    1
@<TRIPOS>SUBSTRUCTURE
       1 MOL1            1 RESIDUE      1      MOL     
@<SCITEGIC>MOL_PROPERTY
VConf Rank
SciTegic.value.IntegerValue
27

@<SCITEGIC>MOL_PROPERTY
Conf_Id
SciTegic.value.IntegerValue
20

@<SCITEGIC>MOL_PROPERTY
Delta U+W
SciTegic.value.DoubleValue
-0.483

@<SCITEGIC>MOL_PROPERTY
U+W
SciTegic.value.DoubleValue
2.527

@<SCITEGIC>MOL_PROPERTY
Grad RMS
SciTegic.value.DoubleValue
0.000000

@<SCITEGIC>MOL_PROPERTY
U
SciTegic.value.DoubleValue
4.508

@<SCITEGIC>MOL_PROPERTY
W
SciTegic.value.DoubleValue
-1.981

@<SCITEGIC>MOL_PROPERTY
W(PB)
SciTegic.value.DoubleValue
-3.712

@<SCITEGIC>MOL_PROPERTY
W(SA)
SciTegic.value.DoubleValue
1.732

@<SCITEGIC>MOL_PROPERTY
Valence
SciTegic.value.DoubleValue
14.705

@<SCITEGIC>MOL_PROPERTY
Coulomb
SciTegic.value.DoubleValue
-10.687

@<SCITEGIC>MOL_PROPERTY
VdW
SciTegic.value.DoubleValue
0.490

@<SCITEGIC>MOL_PROPERTY
VdW6
SciTegic.value.DoubleValue
-3.745

@<SCITEGIC>MOL_PROPERTY
VdW12
SciTegic.value.DoubleValue
4.235

@<SCITEGIC>MOL_PROPERTY
Bond
SciTegic.value.DoubleValue
0.068

@<SCITEGIC>MOL_PROPERTY
Angle
SciTegic.value.DoubleValue
3.901

@<SCITEGIC>MOL_PROPERTY
Pdih
SciTegic.value.DoubleValue
10.737

@<SCITEGIC>MOL_PROPERTY
Idih
SciTegic.value.DoubleValue
0.000

@<SCITEGIC>MOL_PROPERTY
Tether
SciTegic.value.DoubleValue
0.000

@<TRIPOS>MOLECULE
guest-4_confgen4.mol2 : confsearch ligand conformer 28
          16          16           1
SMALL
USER_CHARGES
 
@<TRIPOS>ATOM
       1    C1      19.994910   19.699002   22.944528 C.3        1 MOL1        -0.1689
       2    H1      19.722539   19.626637   24.006721 H          1 MOL1         0.0830
       3    H2      20.667979   20.558084   22.819627 H          1 MOL1         0.0830
       4    C2      18.722848   19.822526   22.094630 C.3        1 MOL1        -0.1689
       5    H3      17.967960   20.468308   22.563533 H          1 MOL1         0.0830
       6    H4      18.974385   20.245517   21.112065 H          1 MOL1         0.0830
       7    C3      18.231567   18.372958   21.927437 C.3        1 MOL1        -0.1765
       8    H5      17.685991   18.240601   20.984211 H          1 MOL1         0.0830
       9    H6      17.547929   18.123893   22.750474 H          1 MOL1         0.0830
      10    C4      19.487787   17.478471   21.986477 C.3        1 MOL1         0.1214
      11    H7      19.730166   17.103197   20.981519 H          1 MOL1         0.0787
      12    C5      20.637923   18.377141   22.485890 C.3        1 MOL1        -0.1765
      13    H8      21.214190   17.906318   23.293519 H          1 MOL1         0.0830
      14    H9      21.327142   18.571850   21.653936 H          1 MOL1         0.0830
      15    O1      19.280225   16.399619   22.890293 O.3        1 MOL1        -0.5512
      16    H10     18.536025   15.871411   22.531552 H          1 MOL1         0.3776
@<TRIPOS>BOND
    1     1     2    1
    2     1     3    1
    3     1     4    1
    4     4     5    1
    5     4     6    1
    6     4     7    1
    7     7     8    1
    8     7     9    1
    9     7    10    1
   10    10    11    1
   11     1    12    1
   12    10    12    1
   13    12    13    1
   14    12    14    1
   15    10    15    1
   16    15    16    1
@<TRIPOS>SUBSTRUCTURE
       1 MOL1            1 RESIDUE      1      MOL     
@<SCITEGIC>MOL_PROPERTY
VConf Rank
SciTegic.value.IntegerValue
28

@<SCITEGIC>MOL_PROPERTY
Conf_Id
SciTegic.value.IntegerValue
59

@<SCITEGIC>MOL_PROPERTY
Delta U+W
SciTegic.value.DoubleValue
0.000

@<SCITEGIC>MOL_PROPERTY
U+W
SciTegic.value.DoubleValue
3.010

@<SCITEGIC>MOL_PROPERTY
Grad RMS
SciTegic.value.DoubleValue
0.000000

@<SCITEGIC>MOL_PROPERTY
U
SciTegic.value.DoubleValue
5.843

@<SCITEGIC>MOL_PROPERTY
W
SciTegic.value.DoubleValue
-2.833

@<SCITEGIC>MOL_PROPERTY
W(PB)
SciTegic.value.DoubleValue
-4.568

@<SCITEGIC>MOL_PROPERTY
W(SA)
SciTegic.value.DoubleValue
1.735

@<SCITEGIC>MOL_PROPERTY
Valence
SciTegic.value.DoubleValue
13.789

@<SCITEGIC>MOL_PROPERTY
Coulomb
SciTegic.value.DoubleValue
-8.574

@<SCITEGIC>MOL_PROPERTY
VdW
SciTegic.value.DoubleValue
0.628

@<SCITEGIC>MOL_PROPERTY
VdW6
SciTegic.value.DoubleValue
-3.284

@<SCITEGIC>MOL_PROPERTY
VdW12
SciTegic.value.DoubleValue
3.912

@<SCITEGIC>MOL_PROPERTY
Bond
SciTegic.value.DoubleValue
0.054

@<SCITEGIC>MOL_PROPERTY
Angle
SciTegic.value.DoubleValue
4.034

@<SCITEGIC>MOL_PROPERTY
Pdih
SciTegic.value.DoubleValue
9.702

@<SCITEGIC>MOL_PROPERTY
Idih
SciTegic.value.DoubleValue
0.000

@<SCITEGIC>MOL_PROPERTY
Tether
SciTegic.value.DoubleValue
0.000

@<TRIPOS>MOLECULE
guest-4_confgen4.mol2 : confsearch ligand conformer 29
          16          16           1
SMALL
USER_CHARGES
 
@<TRIPOS>ATOM
       1    C1      19.278991   19.825248   21.544579 C.3        1 MOL1        -0.1689
       2    H1      18.559502   20.649989   21.450261 H          1 MOL1         0.0830
       3    H2      20.173649   20.081249   20.960053 H          1 MOL1         0.0830
       4    C2      18.704722   18.490052   21.051433 C.3        1 MOL1        -0.1689
       5    H3      17.653504   18.404787   21.360222 H          1 MOL1         0.0830
       6    H4      18.751407   18.391402   19.958396 H          1 MOL1         0.0830
       7    C3      19.542957   17.419660   21.774412 C.3        1 MOL1        -0.1765
       8    H5      20.417324   17.161390   21.162969 H          1 MOL1         0.0830
       9    H6      18.967525   16.499018   21.939693 H          1 MOL1         0.0830
      10    C4      20.023038   18.055246   23.095529 C.3        1 MOL1         0.1214
      11    H7      21.111648   17.927467   23.185643 H          1 MOL1         0.0787
      12    C5      19.672710   19.555720   23.008462 C.3        1 MOL1        -0.1765
      13    H8      18.820485   19.786210   23.662196 H          1 MOL1         0.0830
      14    H9      20.516143   20.185618   23.319421 H          1 MOL1         0.0830
      15    O1      19.352933   17.457940   24.199197 O.3        1 MOL1        -0.5512
      16    H10     19.686078   17.904916   25.005892 H          1 MOL1         0.3776
@<TRIPOS>BOND
    1     1     2    1
    2     1     3    1
    3     1     4    1
    4     4     5    1
    5     4     6    1
    6     4     7    1
    7     7     8    1
    8     7     9    1
    9     7    10    1
   10    10    11    1
   11     1    12    1
   12    10    12    1
   13    12    13    1
   14    12    14    1
   15    10    15    1
   16    15    16    1
@<TRIPOS>SUBSTRUCTURE
       1 MOL1            1 RESIDUE      1      MOL     
@<SCITEGIC>MOL_PROPERTY
VConf Rank
SciTegic.value.IntegerValue
29

@<SCITEGIC>MOL_PROPERTY
Conf_Id
SciTegic.value.IntegerValue
33

@<SCITEGIC>MOL_PROPERTY
Delta U+W
SciTegic.value.DoubleValue
0.015

@<SCITEGIC>MOL_PROPERTY
U+W
SciTegic.value.DoubleValue
3.025

@<SCITEGIC>MOL_PROPERTY
Grad RMS
SciTegic.value.DoubleValue
0.000000

@<SCITEGIC>MOL_PROPERTY
U
SciTegic.value.DoubleValue
5.843

@<SCITEGIC>MOL_PROPERTY
W
SciTegic.value.DoubleValue
-2.819

@<SCITEGIC>MOL_PROPERTY
W(PB)
SciTegic.value.DoubleValue
-4.568

@<SCITEGIC>MOL_PROPERTY
W(SA)
SciTegic.value.DoubleValue
1.750

@<SCITEGIC>MOL_PROPERTY
Valence
SciTegic.value.DoubleValue
13.789

@<SCITEGIC>MOL_PROPERTY
Coulomb
SciTegic.value.DoubleValue
-8.574

@<SCITEGIC>MOL_PROPERTY
VdW
SciTegic.value.DoubleValue
0.628

@<SCITEGIC>MOL_PROPERTY
VdW6
SciTegic.value.DoubleValue
-3.284

@<SCITEGIC>MOL_PROPERTY
VdW12
SciTegic.value.DoubleValue
3.913

@<SCITEGIC>MOL_PROPERTY
Bond
SciTegic.value.DoubleValue
0.054

@<SCITEGIC>MOL_PROPERTY
Angle
SciTegic.value.DoubleValue
4.033

@<SCITEGIC>MOL_PROPERTY
Pdih
SciTegic.value.DoubleValue
9.702

@<SCITEGIC>MOL_PROPERTY
Idih
SciTegic.value.DoubleValue
0.000

@<SCITEGIC>MOL_PROPERTY
Tether
SciTegic.value.DoubleValue
0.000

@<TRIPOS>MOLECULE
guest-4_confgen4.mol2 : confsearch ligand conformer 30
          16          16           1
SMALL
USER_CHARGES
 
@<TRIPOS>ATOM
       1    C1      19.364908   19.003474   23.534888 C.3        1 MOL1        -0.1689
       2    H1      20.194531   19.668487   23.811855 H          1 MOL1         0.0830
       3    H2      18.735111   18.867855   24.424809 H          1 MOL1         0.0830
       4    C2      19.920085   17.656905   23.021515 C.3        1 MOL1        -0.1689
       5    H3      21.018352   17.669826   23.051019 H          1 MOL1         0.0830
       6    H4      19.579861   16.816751   23.642312 H          1 MOL1         0.0830
       7    C3      19.427542   17.506635   21.566435 C.3        1 MOL1        -0.1765
       8    H5      18.530594   16.873627   21.546281 H          1 MOL1         0.0830
       9    H6      20.180843   17.039438   20.918153 H          1 MOL1         0.0830
      10    C4      19.051705   18.918468   21.096896 C.3        1 MOL1         0.1214
      11    H7      18.272967   18.892944   20.321075 H          1 MOL1         0.0787
      12    C5      18.556709   19.615755   22.371151 C.3        1 MOL1        -0.1765
      13    H8      18.666016   20.707159   22.317359 H          1 MOL1         0.0830
      14    H9      17.490261   19.393135   22.508081 H          1 MOL1         0.0830
      15    O1      20.216275   19.579654   20.624228 O.3        1 MOL1        -0.5512
      16    H10     20.845992   19.553650   21.373856 H          1 MOL1         0.3776
@<TRIPOS>BOND
    1     1     2    1
    2     1     3    1
    3     1     4    1
    4     4     5    1
    5     4     6    1
    6     4     7    1
    7     7     8    1
    8     7     9    1
    9     7    10    1
   10    10    11    1
   11     1    12    1
   12    10    12    1
   13    12    13    1
   14    12    14    1
   15    10    15    1
   16    15    16    1
@<TRIPOS>SUBSTRUCTURE
       1 MOL1            1 RESIDUE      1      MOL     
@<SCITEGIC>MOL_PROPERTY
VConf Rank
SciTegic.value.IntegerValue
30

@<SCITEGIC>MOL_PROPERTY
Conf_Id
SciTegic.value.IntegerValue
20

@<SCITEGIC>MOL_PROPERTY
Delta U+W
SciTegic.value.DoubleValue
-0.483

@<SCITEGIC>MOL_PROPERTY
U+W
SciTegic.value.DoubleValue
2.527

@<SCITEGIC>MOL_PROPERTY
Grad RMS
SciTegic.value.DoubleValue
0.000000

@<SCITEGIC>MOL_PROPERTY
U
SciTegic.value.DoubleValue
4.508

@<SCITEGIC>MOL_PROPERTY
W
SciTegic.value.DoubleValue
-1.981

@<SCITEGIC>MOL_PROPERTY
W(PB)
SciTegic.value.DoubleValue
-3.712

@<SCITEGIC>MOL_PROPERTY
W(SA)
SciTegic.value.DoubleValue
1.732

@<SCITEGIC>MOL_PROPERTY
Valence
SciTegic.value.DoubleValue
14.705

@<SCITEGIC>MOL_PROPERTY
Coulomb
SciTegic.value.DoubleValue
-10.687

@<SCITEGIC>MOL_PROPERTY
VdW
SciTegic.value.DoubleValue
0.490

@<SCITEGIC>MOL_PROPERTY
VdW6
SciTegic.value.DoubleValue
-3.745

@<SCITEGIC>MOL_PROPERTY
VdW12
SciTegic.value.DoubleValue
4.235

@<SCITEGIC>MOL_PROPERTY
Bond
SciTegic.value.DoubleValue
0.068

@<SCITEGIC>MOL_PROPERTY
Angle
SciTegic.value.DoubleValue
3.901

@<SCITEGIC>MOL_PROPERTY
Pdih
SciTegic.value.DoubleValue
10.737

@<SCITEGIC>MOL_PROPERTY
Idih
SciTegic.value.DoubleValue
0.000

@<SCITEGIC>MOL_PROPERTY
Tether
SciTegic.value.DoubleValue
0.000

@<TRIPOS>MOLECULE
guest-4_confgen4.mol2 : confsearch ligand conformer 31
          16          16           1
SMALL
USER_CHARGES
 
@<TRIPOS>ATOM
       1    C1      19.409641   19.146880   23.640674 C.3        1 MOL1        -0.1689
       2    H1      20.151523   18.550520   24.189896 H          1 MOL1         0.0830
       3    H2      19.068251   19.959749   24.295916 H          1 MOL1         0.0830
       4    C2      18.258695   18.240787   23.182366 C.3        1 MOL1        -0.1689
       5    H3      17.983593   17.497489   23.943015 H          1 MOL1         0.0830
       6    H4      17.372164   18.851861   22.962650 H          1 MOL1         0.0830
       7    C3      18.776482   17.589401   21.886932 C.3        1 MOL1        -0.1765
       8    H5      17.953149   17.349079   21.201941 H          1 MOL1         0.0830
       9    H6      19.294723   16.652659   22.133359 H          1 MOL1         0.0830
      10    C4      19.762297   18.596362   21.257744 C.3        1 MOL1         0.1214
      11    H7      19.304448   19.071715   20.378010 H          1 MOL1         0.0787
      12    C5      20.033357   19.668738   22.333091 C.3        1 MOL1        -0.1765
      13    H8      21.104773   19.878496   22.451801 H          1 MOL1         0.0830
      14    H9      19.540931   20.604335   22.037700 H          1 MOL1         0.0830
      15    O1      20.973781   17.940681   20.902391 O.3        1 MOL1        -0.5512
      16    H10     20.741759   17.266783   20.228923 H          1 MOL1         0.3776
@<TRIPOS>BOND
    1     1     2    1
    2     1     3    1
    3     1     4    1
    4     4     5    1
    5     4     6    1
    6     4     7    1
    7     7     8    1
    8     7     9    1
    9     7    10    1
   10    10    11    1
   11     1    12    1
   12    10    12    1
   13    12    13    1
   14    12    14    1
   15    10    15    1
   16    15    16    1
@<TRIPOS>SUBSTRUCTURE
       1 MOL1            1 RESIDUE      1      MOL     
@<SCITEGIC>MOL_PROPERTY
VConf Rank
SciTegic.value.IntegerValue
31

@<SCITEGIC>MOL_PROPERTY
Conf_Id
SciTegic.value.IntegerValue
59

@<SCITEGIC>MOL_PROPERTY
Delta U+W
SciTegic.value.DoubleValue
0.000

@<SCITEGIC>MOL_PROPERTY
U+W
SciTegic.value.DoubleValue
3.010

@<SCITEGIC>MOL_PROPERTY
Grad RMS
SciTegic.value.DoubleValue
0.000000

@<SCITEGIC>MOL_PROPERTY
U
SciTegic.value.DoubleValue
5.843

@<SCITEGIC>MOL_PROPERTY
W
SciTegic.value.DoubleValue
-2.833

@<SCITEGIC>MOL_PROPERTY
W(PB)
SciTegic.value.DoubleValue
-4.568

@<SCITEGIC>MOL_PROPERTY
W(SA)
SciTegic.value.DoubleValue
1.735

@<SCITEGIC>MOL_PROPERTY
Valence
SciTegic.value.DoubleValue
13.789

@<SCITEGIC>MOL_PROPERTY
Coulomb
SciTegic.value.DoubleValue
-8.574

@<SCITEGIC>MOL_PROPERTY
VdW
SciTegic.value.DoubleValue
0.628

@<SCITEGIC>MOL_PROPERTY
VdW6
SciTegic.value.DoubleValue
-3.284

@<SCITEGIC>MOL_PROPERTY
VdW12
SciTegic.value.DoubleValue
3.912

@<SCITEGIC>MOL_PROPERTY
Bond
SciTegic.value.DoubleValue
0.054

@<SCITEGIC>MOL_PROPERTY
Angle
SciTegic.value.DoubleValue
4.034

@<SCITEGIC>MOL_PROPERTY
Pdih
SciTegic.value.DoubleValue
9.702

@<SCITEGIC>MOL_PROPERTY
Idih
SciTegic.value.DoubleValue
0.000

@<SCITEGIC>MOL_PROPERTY
Tether
SciTegic.value.DoubleValue
0.000

@<TRIPOS>MOLECULE
guest-4_confgen4.mol2 : confsearch ligand conformer 32
          16          16           1
SMALL
USER_CHARGES
 
@<TRIPOS>ATOM
       1    C1      20.013384   18.759919   23.605271 C.3        1 MOL1        -0.1689
       2    H1      20.485965   18.144620   24.382982 H          1 MOL1         0.0830
       3    H2      20.104735   19.814879   23.899101 H          1 MOL1         0.0830
       4    C2      18.533696   18.407289   23.400569 C.3        1 MOL1        -0.1689
       5    H3      18.402649   17.317975   23.463022 H          1 MOL1         0.0830
       6    H4      17.882993   18.875792   24.151391 H          1 MOL1         0.0830
       7    C3      18.218466   18.883416   21.970531 C.3        1 MOL1        -0.1765
       8    H5      17.869344   19.923843   21.997185 H          1 MOL1         0.0830
       9    H6      17.427830   18.277781   21.507801 H          1 MOL1         0.0830
      10    C4      19.543287   18.817427   21.182946 C.3        1 MOL1         0.1214
      11    H7      19.719160   19.782786   20.686287 H          1 MOL1         0.0787
      12    C5      20.652993   18.547490   22.220936 C.3        1 MOL1        -0.1765
      13    H8      21.006495   17.510591   22.139338 H          1 MOL1         0.0830
      14    H9      21.515074   19.210303   22.071468 H          1 MOL1         0.0830
      15    O1      19.495368   17.762272   20.229924 O.3        1 MOL1        -0.5512
      16    H10     20.361178   17.759528   19.769605 H          1 MOL1         0.3776
@<TRIPOS>BOND
    1     1     2    1
    2     1     3    1
    3     1     4    1
    4     4     5    1
    5     4     6    1
    6     4     7    1
    7     7     8    1
    8     7     9    1
    9     7    10    1
   10    10    11    1
   11     1    12    1
   12    10    12    1
   13    12    13    1
   14    12    14    1
   15    10    15    1
   16    15    16    1
@<TRIPOS>SUBSTRUCTURE
       1 MOL1            1 RESIDUE      1      MOL     
@<SCITEGIC>MOL_PROPERTY
VConf Rank
SciTegic.value.IntegerValue
32

@<SCITEGIC>MOL_PROPERTY
Conf_Id
SciTegic.value.IntegerValue
33

@<SCITEGIC>MOL_PROPERTY
Delta U+W
SciTegic.value.DoubleValue
0.015

@<SCITEGIC>MOL_PROPERTY
U+W
SciTegic.value.DoubleValue
3.025

@<SCITEGIC>MOL_PROPERTY
Grad RMS
SciTegic.value.DoubleValue
0.000000

@<SCITEGIC>MOL_PROPERTY
U
SciTegic.value.DoubleValue
5.843

@<SCITEGIC>MOL_PROPERTY
W
SciTegic.value.DoubleValue
-2.819

@<SCITEGIC>MOL_PROPERTY
W(PB)
SciTegic.value.DoubleValue
-4.568

@<SCITEGIC>MOL_PROPERTY
W(SA)
SciTegic.value.DoubleValue
1.750

@<SCITEGIC>MOL_PROPERTY
Valence
SciTegic.value.DoubleValue
13.789

@<SCITEGIC>MOL_PROPERTY
Coulomb
SciTegic.value.DoubleValue
-8.574

@<SCITEGIC>MOL_PROPERTY
VdW
SciTegic.value.DoubleValue
0.628

@<SCITEGIC>MOL_PROPERTY
VdW6
SciTegic.value.DoubleValue
-3.284

@<SCITEGIC>MOL_PROPERTY
VdW12
SciTegic.value.DoubleValue
3.913

@<SCITEGIC>MOL_PROPERTY
Bond
SciTegic.value.DoubleValue
0.054

@<SCITEGIC>MOL_PROPERTY
Angle
SciTegic.value.DoubleValue
4.033

@<SCITEGIC>MOL_PROPERTY
Pdih
SciTegic.value.DoubleValue
9.702

@<SCITEGIC>MOL_PROPERTY
Idih
SciTegic.value.DoubleValue
0.000

@<SCITEGIC>MOL_PROPERTY
Tether
SciTegic.value.DoubleValue
0.000

@<TRIPOS>MOLECULE
guest-4_confgen4.mol2 : confsearch ligand conformer 33
          16          16           1
SMALL
USER_CHARGES
 
@<TRIPOS>ATOM
       1    C1      18.143771   18.943077   22.645765 C.3        1 MOL1        -0.1689
       2    H1      17.766884   19.875491   22.203286 H          1 MOL1         0.0830
       3    H2      17.352296   18.536089   23.289911 H          1 MOL1         0.0830
       4    C2      19.436026   19.224861   23.443071 C.3        1 MOL1        -0.1689
       5    H3      19.683967   20.293808   23.387347 H          1 MOL1         0.0830
       6    H4      19.320855   18.964310   24.504131 H          1 MOL1         0.0830
       7    C3      20.549594   18.384135   22.783084 C.3        1 MOL1        -0.1765
       8    H5      20.687797   17.451672   23.346142 H          1 MOL1         0.0830
       9    H6      21.513483   18.910091   22.765955 H          1 MOL1         0.0830
      10    C4      20.047290   18.045108   21.373210 C.3        1 MOL1         0.1214
      11    H7      20.479983   17.103731   21.005012 H          1 MOL1         0.0787
      12    C5      18.524730   17.941709   21.534689 C.3        1 MOL1        -0.1765
      13    H8      17.992306   18.140228   20.594945 H          1 MOL1         0.0830
      14    H9      18.268525   16.923228   21.855122 H          1 MOL1         0.0830
      15    O1      20.352734   19.120034   20.496829 O.3        1 MOL1        -0.5512
      16    H10     19.931513   19.906192   20.901416 H          1 MOL1         0.3776
@<TRIPOS>BOND
    1     1     2    1
    2     1     3    1
    3     1     4    1
    4     4     5    1
    5     4     6    1
    6     4     7    1
    7     7     8    1
    8     7     9    1
    9     7    10    1
   10    10    11    1
   11     1    12    1
   12    10    12    1
   13    12    13    1
   14    12    14    1
   15    10    15    1
   16    15    16    1
@<TRIPOS>SUBSTRUCTURE
       1 MOL1            1 RESIDUE      1      MOL     
@<SCITEGIC>MOL_PROPERTY
VConf Rank
SciTegic.value.IntegerValue
33

@<SCITEGIC>MOL_PROPERTY
Conf_Id
SciTegic.value.IntegerValue
20

@<SCITEGIC>MOL_PROPERTY
Delta U+W
SciTegic.value.DoubleValue
-0.483

@<SCITEGIC>MOL_PROPERTY
U+W
SciTegic.value.DoubleValue
2.527

@<SCITEGIC>MOL_PROPERTY
Grad RMS
SciTegic.value.DoubleValue
0.000000

@<SCITEGIC>MOL_PROPERTY
U
SciTegic.value.DoubleValue
4.508

@<SCITEGIC>MOL_PROPERTY
W
SciTegic.value.DoubleValue
-1.981

@<SCITEGIC>MOL_PROPERTY
W(PB)
SciTegic.value.DoubleValue
-3.712

@<SCITEGIC>MOL_PROPERTY
W(SA)
SciTegic.value.DoubleValue
1.732

@<SCITEGIC>MOL_PROPERTY
Valence
SciTegic.value.DoubleValue
14.705

@<SCITEGIC>MOL_PROPERTY
Coulomb
SciTegic.value.DoubleValue
-10.687

@<SCITEGIC>MOL_PROPERTY
VdW
SciTegic.value.DoubleValue
0.490

@<SCITEGIC>MOL_PROPERTY
VdW6
SciTegic.value.DoubleValue
-3.745

@<SCITEGIC>MOL_PROPERTY
VdW12
SciTegic.value.DoubleValue
4.235

@<SCITEGIC>MOL_PROPERTY
Bond
SciTegic.value.DoubleValue
0.068

@<SCITEGIC>MOL_PROPERTY
Angle
SciTegic.value.DoubleValue
3.901

@<SCITEGIC>MOL_PROPERTY
Pdih
SciTegic.value.DoubleValue
10.737

@<SCITEGIC>MOL_PROPERTY
Idih
SciTegic.value.DoubleValue
0.000

@<SCITEGIC>MOL_PROPERTY
Tether
SciTegic.value.DoubleValue
0.000

@<TRIPOS>MOLECULE
guest-4_confgen4.mol2 : confsearch ligand conformer 34
          16          16           1
SMALL
USER_CHARGES
 
@<TRIPOS>ATOM
       1    C1      19.989205   18.750875   23.609024 C.3        1 MOL1        -0.1689
       2    H1      19.251849   18.394368   24.341749 H          1 MOL1         0.0830
       3    H2      20.897588   19.046927   24.151091 H          1 MOL1         0.0830
       4    C2      19.389149   19.906015   22.795812 C.3        1 MOL1        -0.1689
       5    H3      18.785738   20.583771   23.414925 H          1 MOL1         0.0830
       6    H4      20.196361   20.490617   22.332914 H          1 MOL1         0.0830
       7    C3      18.555464   19.212512   21.702844 C.3        1 MOL1        -0.1765
       8    H5      18.499807   19.823425   20.792606 H          1 MOL1         0.0830
       9    H6      17.531327   19.059301   22.069526 H          1 MOL1         0.0830
      10    C4      19.235831   17.853774   21.433379 C.3        1 MOL1         0.1214
      11    H7      19.764613   17.882239   20.469482 H          1 MOL1         0.0787
      12    C5      20.258543   17.647087   22.569678 C.3        1 MOL1        -0.1765
      13    H8      20.189193   16.646035   23.015892 H          1 MOL1         0.0830
      14    H9      21.272182   17.762172   22.164250 H          1 MOL1         0.0830
      15    O1      18.269634   16.809664   21.446984 O.3        1 MOL1        -0.5512
      16    H10     17.643083   16.996752   20.716255 H          1 MOL1         0.3776
@<TRIPOS>BOND
    1     1     2    1
    2     1     3    1
    3     1     4    1
    4     4     5    1
    5     4     6    1
    6     4     7    1
    7     7     8    1
    8     7     9    1
    9     7    10    1
   10    10    11    1
   11     1    12    1
   12    10    12    1
   13    12    13    1
   14    12    14    1
   15    10    15    1
   16    15    16    1
@<TRIPOS>SUBSTRUCTURE
       1 MOL1            1 RESIDUE      1      MOL     
@<SCITEGIC>MOL_PROPERTY
VConf Rank
SciTegic.value.IntegerValue
34

@<SCITEGIC>MOL_PROPERTY
Conf_Id
SciTegic.value.IntegerValue
59

@<SCITEGIC>MOL_PROPERTY
Delta U+W
SciTegic.value.DoubleValue
0.000

@<SCITEGIC>MOL_PROPERTY
U+W
SciTegic.value.DoubleValue
3.010

@<SCITEGIC>MOL_PROPERTY
Grad RMS
SciTegic.value.DoubleValue
0.000000

@<SCITEGIC>MOL_PROPERTY
U
SciTegic.value.DoubleValue
5.843

@<SCITEGIC>MOL_PROPERTY
W
SciTegic.value.DoubleValue
-2.833

@<SCITEGIC>MOL_PROPERTY
W(PB)
SciTegic.value.DoubleValue
-4.568

@<SCITEGIC>MOL_PROPERTY
W(SA)
SciTegic.value.DoubleValue
1.735

@<SCITEGIC>MOL_PROPERTY
Valence
SciTegic.value.DoubleValue
13.789

@<SCITEGIC>MOL_PROPERTY
Coulomb
SciTegic.value.DoubleValue
-8.574

@<SCITEGIC>MOL_PROPERTY
VdW
SciTegic.value.DoubleValue
0.628

@<SCITEGIC>MOL_PROPERTY
VdW6
SciTegic.value.DoubleValue
-3.284

@<SCITEGIC>MOL_PROPERTY
VdW12
SciTegic.value.DoubleValue
3.912

@<SCITEGIC>MOL_PROPERTY
Bond
SciTegic.value.DoubleValue
0.054

@<SCITEGIC>MOL_PROPERTY
Angle
SciTegic.value.DoubleValue
4.034

@<SCITEGIC>MOL_PROPERTY
Pdih
SciTegic.value.DoubleValue
9.702

@<SCITEGIC>MOL_PROPERTY
Idih
SciTegic.value.DoubleValue
0.000

@<SCITEGIC>MOL_PROPERTY
Tether
SciTegic.value.DoubleValue
0.000

@<TRIPOS>MOLECULE
guest-4_confgen4.mol2 : confsearch ligand conformer 35
          16          16           1
SMALL
USER_CHARGES
 
@<TRIPOS>ATOM
       1    C1      20.225847   18.976291   23.445326 C.3        1 MOL1        -0.1689
       2    H1      20.538069   19.879214   23.987551 H          1 MOL1         0.0830
       3    H2      20.515972   18.099933   24.041518 H          1 MOL1         0.0830
       4    C2      20.859430   18.884430   22.050384 C.3        1 MOL1        -0.1689
       5    H3      20.880569   19.881651   21.589101 H          1 MOL1         0.0830
       6    H4      21.887070   18.497568   22.080994 H          1 MOL1         0.0830
       7    C3      19.910221   17.968716   21.255685 C.3        1 MOL1        -0.1765
       8    H5      20.228477   16.923867   21.365635 H          1 MOL1         0.0830
       9    H6      19.919177   18.209390   20.184230 H          1 MOL1         0.0830
      10    C4      18.510416   18.136709   21.881882 C.3        1 MOL1         0.1214
      11    H7      18.096105   17.145383   22.116694 H          1 MOL1         0.0787
      12    C5      18.709461   18.947061   23.180129 C.3        1 MOL1        -0.1765
      13    H8      18.344017   19.974489   23.047369 H          1 MOL1         0.0830
      14    H9      18.163658   18.501225   24.021660 H          1 MOL1         0.0830
      15    O1      17.655242   18.841325   20.989642 O.3        1 MOL1        -0.5512
      16    H10     16.788884   18.928660   21.440558 H          1 MOL1         0.3776
@<TRIPOS>BOND
    1     1     2    1
    2     1     3    1
    3     1     4    1
    4     4     5    1
    5     4     6    1
    6     4     7    1
    7     7     8    1
    8     7     9    1
    9     7    10    1
   10    10    11    1
   11     1    12    1
   12    10    12    1
   13    12    13    1
   14    12    14    1
   15    10    15    1
   16    15    16    1
@<TRIPOS>SUBSTRUCTURE
       1 MOL1            1 RESIDUE      1      MOL     
@<SCITEGIC>MOL_PROPERTY
VConf Rank
SciTegic.value.IntegerValue
35

@<SCITEGIC>MOL_PROPERTY
Conf_Id
SciTegic.value.IntegerValue
33

@<SCITEGIC>MOL_PROPERTY
Delta U+W
SciTegic.value.DoubleValue
0.015

@<SCITEGIC>MOL_PROPERTY
U+W
SciTegic.value.DoubleValue
3.025

@<SCITEGIC>MOL_PROPERTY
Grad RMS
SciTegic.value.DoubleValue
0.000000

@<SCITEGIC>MOL_PROPERTY
U
SciTegic.value.DoubleValue
5.843

@<SCITEGIC>MOL_PROPERTY
W
SciTegic.value.DoubleValue
-2.819

@<SCITEGIC>MOL_PROPERTY
W(PB)
SciTegic.value.DoubleValue
-4.568

@<SCITEGIC>MOL_PROPERTY
W(SA)
SciTegic.value.DoubleValue
1.750

@<SCITEGIC>MOL_PROPERTY
Valence
SciTegic.value.DoubleValue
13.789

@<SCITEGIC>MOL_PROPERTY
Coulomb
SciTegic.value.DoubleValue
-8.574

@<SCITEGIC>MOL_PROPERTY
VdW
SciTegic.value.DoubleValue
0.628

@<SCITEGIC>MOL_PROPERTY
VdW6
SciTegic.value.DoubleValue
-3.284

@<SCITEGIC>MOL_PROPERTY
VdW12
SciTegic.value.DoubleValue
3.913

@<SCITEGIC>MOL_PROPERTY
Bond
SciTegic.value.DoubleValue
0.054

@<SCITEGIC>MOL_PROPERTY
Angle
SciTegic.value.DoubleValue
4.033

@<SCITEGIC>MOL_PROPERTY
Pdih
SciTegic.value.DoubleValue
9.702

@<SCITEGIC>MOL_PROPERTY
Idih
SciTegic.value.DoubleValue
0.000

@<SCITEGIC>MOL_PROPERTY
Tether
SciTegic.value.DoubleValue
0.000

@<TRIPOS>MOLECULE
guest-4_confgen4.mol2 : confsearch ligand conformer 36
          16          16           1
SMALL
USER_CHARGES
 
@<TRIPOS>ATOM
       1    C1      20.629607   18.417905   21.831472 C.3        1 MOL1        -0.1689
       2    H1      20.955937   17.368842   21.845655 H          1 MOL1         0.0830
       3    H2      21.459959   19.019955   21.437711 H          1 MOL1         0.0830
       4    C2      20.230668   18.863157   23.255417 C.3        1 MOL1        -0.1689
       5    H3      20.364925   18.029918   23.958919 H          1 MOL1         0.0830
       6    H4      20.851686   19.698819   23.606138 H          1 MOL1         0.0830
       7    C3      18.742881   19.268355   23.186557 C.3        1 MOL1        -0.1765
       8    H5      18.664083   20.358318   23.079830 H          1 MOL1         0.0830
       9    H6      18.190764   18.980429   24.091141 H          1 MOL1         0.0830
      10    C4      18.178776   18.602024   21.924503 C.3        1 MOL1         0.1214
      11    H7      17.333586   19.170361   21.510221 H          1 MOL1         0.0787
      12    C5      19.368235   18.571939   20.955360 C.3        1 MOL1        -0.1765
      13    H8      19.278020   17.769716   20.210844 H          1 MOL1         0.0830
      14    H9      19.411614   19.526460   20.414407 H          1 MOL1         0.0830
      15    O1      17.791975   17.270545   22.231676 O.3        1 MOL1        -0.5512
      16    H10     18.599036   16.847020   22.590064 H          1 MOL1         0.3776
@<TRIPOS>BOND
    1     1     2    1
    2     1     3    1
    3     1     4    1
    4     4     5    1
    5     4     6    1
    6     4     7    1
    7     7     8    1
    8     7     9    1
    9     7    10    1
   10    10    11    1
   11     1    12    1
   12    10    12    1
   13    12    13    1
   14    12    14    1
   15    10    15    1
   16    15    16    1
@<TRIPOS>SUBSTRUCTURE
       1 MOL1            1 RESIDUE      1      MOL     
@<SCITEGIC>MOL_PROPERTY
VConf Rank
SciTegic.value.IntegerValue
36

@<SCITEGIC>MOL_PROPERTY
Conf_Id
SciTegic.value.IntegerValue
20

@<SCITEGIC>MOL_PROPERTY
Delta U+W
SciTegic.value.DoubleValue
-0.483

@<SCITEGIC>MOL_PROPERTY
U+W
SciTegic.value.DoubleValue
2.527

@<SCITEGIC>MOL_PROPERTY
Grad RMS
SciTegic.value.DoubleValue
0.000000

@<SCITEGIC>MOL_PROPERTY
U
SciTegic.value.DoubleValue
4.508

@<SCITEGIC>MOL_PROPERTY
W
SciTegic.value.DoubleValue
-1.981

@<SCITEGIC>MOL_PROPERTY
W(PB)
SciTegic.value.DoubleValue
-3.712

@<SCITEGIC>MOL_PROPERTY
W(SA)
SciTegic.value.DoubleValue
1.732

@<SCITEGIC>MOL_PROPERTY
Valence
SciTegic.value.DoubleValue
14.705

@<SCITEGIC>MOL_PROPERTY
Coulomb
SciTegic.value.DoubleValue
-10.687

@<SCITEGIC>MOL_PROPERTY
VdW
SciTegic.value.DoubleValue
0.490

@<SCITEGIC>MOL_PROPERTY
VdW6
SciTegic.value.DoubleValue
-3.745

@<SCITEGIC>MOL_PROPERTY
VdW12
SciTegic.value.DoubleValue
4.235

@<SCITEGIC>MOL_PROPERTY
Bond
SciTegic.value.DoubleValue
0.068

@<SCITEGIC>MOL_PROPERTY
Angle
SciTegic.value.DoubleValue
3.901

@<SCITEGIC>MOL_PROPERTY
Pdih
SciTegic.value.DoubleValue
10.737

@<SCITEGIC>MOL_PROPERTY
Idih
SciTegic.value.DoubleValue
0.000

@<SCITEGIC>MOL_PROPERTY
Tether
SciTegic.value.DoubleValue
0.000

@<TRIPOS>MOLECULE
guest-4_confgen4.mol2 : confsearch ligand conformer 37
          16          16           1
SMALL
USER_CHARGES
 
@<TRIPOS>ATOM
       1    C1      18.740124   19.476661   21.375696 C.3        1 MOL1        -0.1689
       2    H1      19.536272   19.732728   20.662776 H          1 MOL1         0.0830
       3    H2      17.815065   19.972159   21.051055 H          1 MOL1         0.0830
       4    C2      19.163135   19.894027   22.790826 C.3        1 MOL1        -0.1689
       5    H3      19.688554   20.858681   22.802586 H          1 MOL1         0.0830
       6    H4      18.274887   19.978731   23.432283 H          1 MOL1         0.0830
       7    C3      20.051931   18.736713   23.281971 C.3        1 MOL1        -0.1765
       8    H5      20.003965   18.629381   24.373312 H          1 MOL1         0.0830
       9    H6      21.096371   18.939481   23.008449 H          1 MOL1         0.0830
      10    C4      19.548137   17.466700   22.564379 C.3        1 MOL1         0.1214
      11    H7      18.995616   16.829644   23.270352 H          1 MOL1         0.0787
      12    C5      18.590661   17.946078   21.453851 C.3        1 MOL1        -0.1765
      13    H8      18.801566   17.469418   20.487241 H          1 MOL1         0.0830
      14    H9      17.560610   17.690299   21.734302 H          1 MOL1         0.0830
      15    O1      20.642436   16.757121   21.996142 O.3        1 MOL1        -0.5512
      16    H10     21.220238   16.487713   22.741190 H          1 MOL1         0.3776
@<TRIPOS>BOND
    1     1     2    1
    2     1     3    1
    3     1     4    1
    4     4     5    1
    5     4     6    1
    6     4     7    1
    7     7     8    1
    8     7     9    1
    9     7    10    1
   10    10    11    1
   11     1    12    1
   12    10    12    1
   13    12    13    1
   14    12    14    1
   15    10    15    1
   16    15    16    1
@<TRIPOS>SUBSTRUCTURE
       1 MOL1            1 RESIDUE      1      MOL     
@<SCITEGIC>MOL_PROPERTY
VConf Rank
SciTegic.value.IntegerValue
37

@<SCITEGIC>MOL_PROPERTY
Conf_Id
SciTegic.value.IntegerValue
59

@<SCITEGIC>MOL_PROPERTY
Delta U+W
SciTegic.value.DoubleValue
0.000

@<SCITEGIC>MOL_PROPERTY
U+W
SciTegic.value.DoubleValue
3.010

@<SCITEGIC>MOL_PROPERTY
Grad RMS
SciTegic.value.DoubleValue
0.000000

@<SCITEGIC>MOL_PROPERTY
U
SciTegic.value.DoubleValue
5.843

@<SCITEGIC>MOL_PROPERTY
W
SciTegic.value.DoubleValue
-2.833

@<SCITEGIC>MOL_PROPERTY
W(PB)
SciTegic.value.DoubleValue
-4.568

@<SCITEGIC>MOL_PROPERTY
W(SA)
SciTegic.value.DoubleValue
1.735

@<SCITEGIC>MOL_PROPERTY
Valence
SciTegic.value.DoubleValue
13.789

@<SCITEGIC>MOL_PROPERTY
Coulomb
SciTegic.value.DoubleValue
-8.574

@<SCITEGIC>MOL_PROPERTY
VdW
SciTegic.value.DoubleValue
0.628

@<SCITEGIC>MOL_PROPERTY
VdW6
SciTegic.value.DoubleValue
-3.284

@<SCITEGIC>MOL_PROPERTY
VdW12
SciTegic.value.DoubleValue
3.912

@<SCITEGIC>MOL_PROPERTY
Bond
SciTegic.value.DoubleValue
0.054

@<SCITEGIC>MOL_PROPERTY
Angle
SciTegic.value.DoubleValue
4.034

@<SCITEGIC>MOL_PROPERTY
Pdih
SciTegic.value.DoubleValue
9.702

@<SCITEGIC>MOL_PROPERTY
Idih
SciTegic.value.DoubleValue
0.000

@<SCITEGIC>MOL_PROPERTY
Tether
SciTegic.value.DoubleValue
0.000

@<TRIPOS>MOLECULE
guest-4_confgen4.mol2 : confsearch ligand conformer 38
          16          16           1
SMALL
USER_CHARGES
 
@<TRIPOS>ATOM
       1    C1      18.642115   19.753102   22.613366 C.3        1 MOL1        -0.1689
       2    H1      18.697255   20.671037   23.214295 H          1 MOL1         0.0830
       3    H2      17.728883   19.795960   22.003617 H          1 MOL1         0.0830
       4    C2      18.624559   18.487232   23.481117 C.3        1 MOL1        -0.1689
       5    H3      19.318639   18.609123   24.324370 H          1 MOL1         0.0830
       6    H4      17.626677   18.269556   23.885456 H          1 MOL1         0.0830
       7    C3      19.136496   17.373867   22.548693 C.3        1 MOL1        -0.1765
       8    H5      18.288784   16.912876   22.025286 H          1 MOL1         0.0830
       9    H6      19.652951   16.582991   23.108880 H          1 MOL1         0.0830
      10    C4      20.056256   18.054847   21.514234 C.3        1 MOL1         0.1214
      11    H7      19.745564   17.759140   20.501541 H          1 MOL1         0.0787
      12    C5      19.869667   19.575367   21.701151 C.3        1 MOL1        -0.1765
      13    H8      20.751956   20.009835   22.190625 H          1 MOL1         0.0830
      14    H9      19.731965   20.086158   20.739394 H          1 MOL1         0.0830
      15    O1      21.411921   17.693929   21.750472 O.3        1 MOL1        -0.5512
      16    H10     21.948929   18.160891   21.075862 H          1 MOL1         0.3776
@<TRIPOS>BOND
    1     1     2    1
    2     1     3    1
    3     1     4    1
    4     4     5    1
    5     4     6    1
    6     4     7    1
    7     7     8    1
    8     7     9    1
    9     7    10    1
   10    10    11    1
   11     1    12    1
   12    10    12    1
   13    12    13    1
   14    12    14    1
   15    10    15    1
   16    15    16    1
@<TRIPOS>SUBSTRUCTURE
       1 MOL1            1 RESIDUE      1      MOL     
@<SCITEGIC>MOL_PROPERTY
VConf Rank
SciTegic.value.IntegerValue
38

@<SCITEGIC>MOL_PROPERTY
Conf_Id
SciTegic.value.IntegerValue
33

@<SCITEGIC>MOL_PROPERTY
Delta U+W
SciTegic.value.DoubleValue
0.015

@<SCITEGIC>MOL_PROPERTY
U+W
SciTegic.value.DoubleValue
3.025

@<SCITEGIC>MOL_PROPERTY
Grad RMS
SciTegic.value.DoubleValue
0.000000

@<SCITEGIC>MOL_PROPERTY
U
SciTegic.value.DoubleValue
5.843

@<SCITEGIC>MOL_PROPERTY
W
SciTegic.value.DoubleValue
-2.819

@<SCITEGIC>MOL_PROPERTY
W(PB)
SciTegic.value.DoubleValue
-4.568

@<SCITEGIC>MOL_PROPERTY
W(SA)
SciTegic.value.DoubleValue
1.750

@<SCITEGIC>MOL_PROPERTY
Valence
SciTegic.value.DoubleValue
13.789

@<SCITEGIC>MOL_PROPERTY
Coulomb
SciTegic.value.DoubleValue
-8.574

@<SCITEGIC>MOL_PROPERTY
VdW
SciTegic.value.DoubleValue
0.628

@<SCITEGIC>MOL_PROPERTY
VdW6
SciTegic.value.DoubleValue
-3.284

@<SCITEGIC>MOL_PROPERTY
VdW12
SciTegic.value.DoubleValue
3.913

@<SCITEGIC>MOL_PROPERTY
Bond
SciTegic.value.DoubleValue
0.054

@<SCITEGIC>MOL_PROPERTY
Angle
SciTegic.value.DoubleValue
4.033

@<SCITEGIC>MOL_PROPERTY
Pdih
SciTegic.value.DoubleValue
9.702

@<SCITEGIC>MOL_PROPERTY
Idih
SciTegic.value.DoubleValue
0.000

@<SCITEGIC>MOL_PROPERTY
Tether
SciTegic.value.DoubleValue
0.000

@<TRIPOS>MOLECULE
guest-4_confgen4.mol2 : confsearch ligand conformer 39
          16          16           1
SMALL
USER_CHARGES
 
@<TRIPOS>ATOM
       1    C1      20.091782   19.537224   21.612757 C.3        1 MOL1        -0.1689
       2    H1      20.224059   20.474942   22.169906 H          1 MOL1         0.0830
       3    H2      20.623034   19.639861   20.656601 H          1 MOL1         0.0830
       4    C2      18.587418   19.260595   21.399717 C.3        1 MOL1        -0.1689
       5    H3      17.991667   20.064956   21.852829 H          1 MOL1         0.0830
       6    H4      18.331913   19.217515   20.332074 H          1 MOL1         0.0830
       7    C3      18.286519   17.916742   22.096822 C.3        1 MOL1        -0.1765
       8    H5      18.297927   17.107766   21.354496 H          1 MOL1         0.0830
       9    H6      17.301422   17.910992   22.582163 H          1 MOL1         0.0830
      10    C4      19.428524   17.691518   23.096868 C.3        1 MOL1         0.1214
      11    H7      19.598893   16.621178   23.282153 H          1 MOL1         0.0787
      12    C5      20.643698   18.349534   22.429542 C.3        1 MOL1        -0.1765
      13    H8      21.400716   18.663160   23.160682 H          1 MOL1         0.0830
      14    H9      21.113952   17.625061   21.751587 H          1 MOL1         0.0830
      15    O1      19.132447   18.374233   24.306431 O.3        1 MOL1        -0.5512
      16    H10     18.997780   19.308487   24.045286 H          1 MOL1         0.3776
@<TRIPOS>BOND
    1     1     2    1
    2     1     3    1
    3     1     4    1
    4     4     5    1
    5     4     6    1
    6     4     7    1
    7     7     8    1
    8     7     9    1
    9     7    10    1
   10    10    11    1
   11     1    12    1
   12    10    12    1
   13    12    13    1
   14    12    14    1
   15    10    15    1
   16    15    16    1
@<TRIPOS>SUBSTRUCTURE
       1 MOL1            1 RESIDUE      1      MOL     
@<SCITEGIC>MOL_PROPERTY
VConf Rank
SciTegic.value.IntegerValue
39

@<SCITEGIC>MOL_PROPERTY
Conf_Id
SciTegic.value.IntegerValue
20

@<SCITEGIC>MOL_PROPERTY
Delta U+W
SciTegic.value.DoubleValue
-0.483

@<SCITEGIC>MOL_PROPERTY
U+W
SciTegic.value.DoubleValue
2.527

@<SCITEGIC>MOL_PROPERTY
Grad RMS
SciTegic.value.DoubleValue
0.000000

@<SCITEGIC>MOL_PROPERTY
U
SciTegic.value.DoubleValue
4.508

@<SCITEGIC>MOL_PROPERTY
W
SciTegic.value.DoubleValue
-1.981

@<SCITEGIC>MOL_PROPERTY
W(PB)
SciTegic.value.DoubleValue
-3.712

@<SCITEGIC>MOL_PROPERTY
W(SA)
SciTegic.value.DoubleValue
1.732

@<SCITEGIC>MOL_PROPERTY
Valence
SciTegic.value.DoubleValue
14.705

@<SCITEGIC>MOL_PROPERTY
Coulomb
SciTegic.value.DoubleValue
-10.687

@<SCITEGIC>MOL_PROPERTY
VdW
SciTegic.value.DoubleValue
0.490

@<SCITEGIC>MOL_PROPERTY
VdW6
SciTegic.value.DoubleValue
-3.745

@<SCITEGIC>MOL_PROPERTY
VdW12
SciTegic.value.DoubleValue
4.235

@<SCITEGIC>MOL_PROPERTY
Bond
SciTegic.value.DoubleValue
0.068

@<SCITEGIC>MOL_PROPERTY
Angle
SciTegic.value.DoubleValue
3.901

@<SCITEGIC>MOL_PROPERTY
Pdih
SciTegic.value.DoubleValue
10.737

@<SCITEGIC>MOL_PROPERTY
Idih
SciTegic.value.DoubleValue
0.000

@<SCITEGIC>MOL_PROPERTY
Tether
SciTegic.value.DoubleValue
0.000

@<TRIPOS>MOLECULE
guest-4_confgen4.mol2 : confsearch ligand conformer 40
          16          16           1
SMALL
USER_CHARGES
 
@<TRIPOS>ATOM
       1    C1      19.471833   18.172571   23.712442 C.3        1 MOL1        -0.1689
       2    H1      18.883287   17.249030   23.803887 H          1 MOL1         0.0830
       3    H2      19.935995   18.382602   24.685625 H          1 MOL1         0.0830
       4    C2      18.564666   19.315598   23.236770 C.3        1 MOL1        -0.1689
       5    H3      17.571520   19.283549   23.705165 H          1 MOL1         0.0830
       6    H4      19.028516   20.281542   23.480537 H          1 MOL1         0.0830
       7    C3      18.497630   19.140823   21.708530 C.3        1 MOL1        -0.1765
       8    H5      18.344057   20.102019   21.201221 H          1 MOL1         0.0830
       9    H6      17.652657   18.486409   21.454468 H          1 MOL1         0.0830
      10    C4      19.828736   18.483321   21.287190 C.3        1 MOL1         0.1214
      11    H7      20.471501   19.222043   20.786529 H          1 MOL1         0.0787
      12    C5      20.511457   18.012257   22.587892 C.3        1 MOL1        -0.1765
      13    H8      20.874367   16.978174   22.517257 H          1 MOL1         0.0830
      14    H9      21.376763   18.656360   22.791503 H          1 MOL1         0.0830
      15    O1      19.579210   17.372602   20.434002 O.3        1 MOL1        -0.5512
      16    H10     19.137371   17.726633   19.633395 H          1 MOL1         0.3776
@<TRIPOS>BOND
    1     1     2    1
    2     1     3    1
    3     1     4    1
    4     4     5    1
    5     4     6    1
    6     4     7    1
    7     7     8    1
    8     7     9    1
    9     7    10    1
   10    10    11    1
   11     1    12    1
   12    10    12    1
   13    12    13    1
   14    12    14    1
   15    10    15    1
   16    15    16    1
@<TRIPOS>SUBSTRUCTURE
       1 MOL1            1 RESIDUE      1      MOL     
@<SCITEGIC>MOL_PROPERTY
VConf Rank
SciTegic.value.IntegerValue
40

@<SCITEGIC>MOL_PROPERTY
Conf_Id
SciTegic.value.IntegerValue
59

@<SCITEGIC>MOL_PROPERTY
Delta U+W
SciTegic.value.DoubleValue
0.000

@<SCITEGIC>MOL_PROPERTY
U+W
SciTegic.value.DoubleValue
3.010

@<SCITEGIC>MOL_PROPERTY
Grad RMS
SciTegic.value.DoubleValue
0.000000

@<SCITEGIC>MOL_PROPERTY
U
SciTegic.value.DoubleValue
5.843

@<SCITEGIC>MOL_PROPERTY
W
SciTegic.value.DoubleValue
-2.833

@<SCITEGIC>MOL_PROPERTY
W(PB)
SciTegic.value.DoubleValue
-4.568

@<SCITEGIC>MOL_PROPERTY
W(SA)
SciTegic.value.DoubleValue
1.735

@<SCITEGIC>MOL_PROPERTY
Valence
SciTegic.value.DoubleValue
13.789

@<SCITEGIC>MOL_PROPERTY
Coulomb
SciTegic.value.DoubleValue
-8.574

@<SCITEGIC>MOL_PROPERTY
VdW
SciTegic.value.DoubleValue
0.628

@<SCITEGIC>MOL_PROPERTY
VdW6
SciTegic.value.DoubleValue
-3.284

@<SCITEGIC>MOL_PROPERTY
VdW12
SciTegic.value.DoubleValue
3.912

@<SCITEGIC>MOL_PROPERTY
Bond
SciTegic.value.DoubleValue
0.054

@<SCITEGIC>MOL_PROPERTY
Angle
SciTegic.value.DoubleValue
4.034

@<SCITEGIC>MOL_PROPERTY
Pdih
SciTegic.value.DoubleValue
9.702

@<SCITEGIC>MOL_PROPERTY
Idih
SciTegic.value.DoubleValue
0.000

@<SCITEGIC>MOL_PROPERTY
Tether
SciTegic.value.DoubleValue
0.000

@<TRIPOS>MOLECULE
guest-4_confgen4.mol2 : confsearch ligand conformer 41
          16          16           1
SMALL
USER_CHARGES
 
@<TRIPOS>ATOM
       1    C1      20.269357   19.524914   23.040447 C.3        1 MOL1        -0.1689
       2    H1      21.251522   19.552542   23.531719 H          1 MOL1         0.0830
       3    H2      19.853673   20.542164   23.046015 H          1 MOL1         0.0830
       4    C2      19.294863   18.565180   23.736865 C.3        1 MOL1        -0.1689
       5    H3      19.831754   17.659425   24.051564 H          1 MOL1         0.0830
       6    H4      18.826574   19.013274   24.623746 H          1 MOL1         0.0830
       7    C3      18.266884   18.203473   22.648976 C.3        1 MOL1        -0.1765
       8    H5      17.434344   18.918461   22.676463 H          1 MOL1         0.0830
       9    H6      17.849924   17.199491   22.804487 H          1 MOL1         0.0830
      10    C4      18.995535   18.331680   21.295303 C.3        1 MOL1         0.1214
      11    H7      18.401307   18.966027   20.621496 H          1 MOL1         0.0787
      12    C5      20.352215   19.003963   21.593949 C.3        1 MOL1        -0.1765
      13    H8      21.165764   18.269661   21.518327 H          1 MOL1         0.0830
      14    H9      20.564345   19.816146   20.886696 H          1 MOL1         0.0830
      15    O1      19.200478   17.044700   20.724709 O.3        1 MOL1        -0.5512
      16    H10     19.674077   17.184810   19.877595 H          1 MOL1         0.3776
@<TRIPOS>BOND
    1     1     2    1
    2     1     3    1
    3     1     4    1
    4     4     5    1
    5     4     6    1
    6     4     7    1
    7     7     8    1
    8     7     9    1
    9     7    10    1
   10    10    11    1
   11     1    12    1
   12    10    12    1
   13    12    13    1
   14    12    14    1
   15    10    15    1
   16    15    16    1
@<TRIPOS>SUBSTRUCTURE
       1 MOL1            1 RESIDUE      1      MOL     
@<SCITEGIC>MOL_PROPERTY
VConf Rank
SciTegic.value.IntegerValue
41

@<SCITEGIC>MOL_PROPERTY
Conf_Id
SciTegic.value.IntegerValue
33

@<SCITEGIC>MOL_PROPERTY
Delta U+W
SciTegic.value.DoubleValue
0.015

@<SCITEGIC>MOL_PROPERTY
U+W
SciTegic.value.DoubleValue
3.025

@<SCITEGIC>MOL_PROPERTY
Grad RMS
SciTegic.value.DoubleValue
0.000000

@<SCITEGIC>MOL_PROPERTY
U
SciTegic.value.DoubleValue
5.843

@<SCITEGIC>MOL_PROPERTY
W
SciTegic.value.DoubleValue
-2.819

@<SCITEGIC>MOL_PROPERTY
W(PB)
SciTegic.value.DoubleValue
-4.568

@<SCITEGIC>MOL_PROPERTY
W(SA)
SciTegic.value.DoubleValue
1.750

@<SCITEGIC>MOL_PROPERTY
Valence
SciTegic.value.DoubleValue
13.789

@<SCITEGIC>MOL_PROPERTY
Coulomb
SciTegic.value.DoubleValue
-8.574

@<SCITEGIC>MOL_PROPERTY
VdW
SciTegic.value.DoubleValue
0.628

@<SCITEGIC>MOL_PROPERTY
VdW6
SciTegic.value.DoubleValue
-3.284

@<SCITEGIC>MOL_PROPERTY
VdW12
SciTegic.value.DoubleValue
3.913

@<SCITEGIC>MOL_PROPERTY
Bond
SciTegic.value.DoubleValue
0.054

@<SCITEGIC>MOL_PROPERTY
Angle
SciTegic.value.DoubleValue
4.033

@<SCITEGIC>MOL_PROPERTY
Pdih
SciTegic.value.DoubleValue
9.702

@<SCITEGIC>MOL_PROPERTY
Idih
SciTegic.value.DoubleValue
0.000

@<SCITEGIC>MOL_PROPERTY
Tether
SciTegic.value.DoubleValue
0.000

@<TRIPOS>MOLECULE
guest-4_confgen4.mol2 : confsearch ligand conformer 42
          16          16           1
SMALL
USER_CHARGES
 
@<TRIPOS>ATOM
       1    C1      18.812425   18.637812   23.468099 C.3        1 MOL1        -0.1689
       2    H1      17.782386   18.256293   23.494373 H          1 MOL1         0.0830
       3    H2      19.087702   18.924991   24.492183 H          1 MOL1         0.0830
       4    C2      18.904102   19.836111   22.498204 C.3        1 MOL1        -0.1689
       5    H3      17.918228   20.035201   22.055889 H          1 MOL1         0.0830
       6    H4      19.228329   20.749921   23.014757 H          1 MOL1         0.0830
       7    C3      19.910162   19.433520   21.399023 C.3        1 MOL1        -0.1765
       8    H5      20.897457   19.852611   21.634036 H          1 MOL1         0.0830
       9    H6      19.616053   19.806286   20.408795 H          1 MOL1         0.0830
      10    C4      19.995999   17.901915   21.441591 C.3        1 MOL1         0.1214
      11    H7      20.972812   17.541432   21.088220 H          1 MOL1         0.0787
      12    C5      19.767461   17.556595   22.919252 C.3        1 MOL1        -0.1765
      13    H8      19.368375   16.542208   23.052487 H          1 MOL1         0.0830
      14    H9      20.726857   17.610626   23.450536 H          1 MOL1         0.0830
      15    O1      18.941873   17.352625   20.664478 O.3        1 MOL1        -0.5512
      16    H10     18.121532   17.725616   21.047991 H          1 MOL1         0.3776
@<TRIPOS>BOND
    1     1     2    1
    2     1     3    1
    3     1     4    1
    4     4     5    1
    5     4     6    1
    6     4     7    1
    7     7     8    1
    8     7     9    1
    9     7    10    1
   10    10    11    1
   11     1    12    1
   12    10    12    1
   13    12    13    1
   14    12    14    1
   15    10    15    1
   16    15    16    1
@<TRIPOS>SUBSTRUCTURE
       1 MOL1            1 RESIDUE      1      MOL     
@<SCITEGIC>MOL_PROPERTY
VConf Rank
SciTegic.value.IntegerValue
42

@<SCITEGIC>MOL_PROPERTY
Conf_Id
SciTegic.value.IntegerValue
20

@<SCITEGIC>MOL_PROPERTY
Delta U+W
SciTegic.value.DoubleValue
-0.483

@<SCITEGIC>MOL_PROPERTY
U+W
SciTegic.value.DoubleValue
2.527

@<SCITEGIC>MOL_PROPERTY
Grad RMS
SciTegic.value.DoubleValue
0.000000

@<SCITEGIC>MOL_PROPERTY
U
SciTegic.value.DoubleValue
4.508

@<SCITEGIC>MOL_PROPERTY
W
SciTegic.value.DoubleValue
-1.981

@<SCITEGIC>MOL_PROPERTY
W(PB)
SciTegic.value.DoubleValue
-3.712

@<SCITEGIC>MOL_PROPERTY
W(SA)
SciTegic.value.DoubleValue
1.732

@<SCITEGIC>MOL_PROPERTY
Valence
SciTegic.value.DoubleValue
14.705

@<SCITEGIC>MOL_PROPERTY
Coulomb
SciTegic.value.DoubleValue
-10.687

@<SCITEGIC>MOL_PROPERTY
VdW
SciTegic.value.DoubleValue
0.490

@<SCITEGIC>MOL_PROPERTY
VdW6
SciTegic.value.DoubleValue
-3.745

@<SCITEGIC>MOL_PROPERTY
VdW12
SciTegic.value.DoubleValue
4.235

@<SCITEGIC>MOL_PROPERTY
Bond
SciTegic.value.DoubleValue
0.068

@<SCITEGIC>MOL_PROPERTY
Angle
SciTegic.value.DoubleValue
3.901

@<SCITEGIC>MOL_PROPERTY
Pdih
SciTegic.value.DoubleValue
10.737

@<SCITEGIC>MOL_PROPERTY
Idih
SciTegic.value.DoubleValue
0.000

@<SCITEGIC>MOL_PROPERTY
Tether
SciTegic.value.DoubleValue
0.000

@<TRIPOS>MOLECULE
guest-4_confgen4.mol2 : confsearch ligand conformer 43
          16          16           1
SMALL
USER_CHARGES
 
@<TRIPOS>ATOM
       1    C1      20.117884   18.205299   21.124705 C.3        1 MOL1        -0.1689
       2    H1      21.044365   17.750681   21.502372 H          1 MOL1         0.0830
       3    H2      20.131467   18.153353   20.027544 H          1 MOL1         0.0830
       4    C2      20.003810   19.645834   21.641982 C.3        1 MOL1        -0.1689
       5    H3      20.970091   20.168383   21.640030 H          1 MOL1         0.0830
       6    H4      19.305926   20.211651   21.009184 H          1 MOL1         0.0830
       7    C3      19.420024   19.498912   23.059079 C.3        1 MOL1        -0.1765
       8    H5      18.825523   20.377487   23.341072 H          1 MOL1         0.0830
       9    H6      20.241386   19.401117   23.781979 H          1 MOL1         0.0830
      10    C4      18.563735   18.215061   23.045725 C.3        1 MOL1         0.1214
      11    H7      17.495196   18.475281   23.050922 H          1 MOL1         0.0787
      12    C5      18.902842   17.480322   21.732333 C.3        1 MOL1        -0.1765
      13    H8      19.107267   16.413274   21.892463 H          1 MOL1         0.0830
      14    H9      18.047840   17.557230   21.048127 H          1 MOL1         0.0830
      15    O1      18.888155   17.396929   24.163446 O.3        1 MOL1        -0.5512
      16    H10     18.664057   17.914721   24.965447 H          1 MOL1         0.3776
@<TRIPOS>BOND
    1     1     2    1
    2     1     3    1
    3     1     4    1
    4     4     5    1
    5     4     6    1
    6     4     7    1
    7     7     8    1
    8     7     9    1
    9     7    10    1
   10    10    11    1
   11     1    12    1
   12    10    12    1
   13    12    13    1
   14    12    14    1
   15    10    15    1
   16    15    16    1
@<TRIPOS>SUBSTRUCTURE
       1 MOL1            1 RESIDUE      1      MOL     
@<SCITEGIC>MOL_PROPERTY
VConf Rank
SciTegic.value.IntegerValue
43

@<SCITEGIC>MOL_PROPERTY
Conf_Id
SciTegic.value.IntegerValue
59

@<SCITEGIC>MOL_PROPERTY
Delta U+W
SciTegic.value.DoubleValue
0.000

@<SCITEGIC>MOL_PROPERTY
U+W
SciTegic.value.DoubleValue
3.010

@<SCITEGIC>MOL_PROPERTY
Grad RMS
SciTegic.value.DoubleValue
0.000000

@<SCITEGIC>MOL_PROPERTY
U
SciTegic.value.DoubleValue
5.843

@<SCITEGIC>MOL_PROPERTY
W
SciTegic.value.DoubleValue
-2.833

@<SCITEGIC>MOL_PROPERTY
W(PB)
SciTegic.value.DoubleValue
-4.568

@<SCITEGIC>MOL_PROPERTY
W(SA)
SciTegic.value.DoubleValue
1.735

@<SCITEGIC>MOL_PROPERTY
Valence
SciTegic.value.DoubleValue
13.789

@<SCITEGIC>MOL_PROPERTY
Coulomb
SciTegic.value.DoubleValue
-8.574

@<SCITEGIC>MOL_PROPERTY
VdW
SciTegic.value.DoubleValue
0.628

@<SCITEGIC>MOL_PROPERTY
VdW6
SciTegic.value.DoubleValue
-3.284

@<SCITEGIC>MOL_PROPERTY
VdW12
SciTegic.value.DoubleValue
3.912

@<SCITEGIC>MOL_PROPERTY
Bond
SciTegic.value.DoubleValue
0.054

@<SCITEGIC>MOL_PROPERTY
Angle
SciTegic.value.DoubleValue
4.034

@<SCITEGIC>MOL_PROPERTY
Pdih
SciTegic.value.DoubleValue
9.702

@<SCITEGIC>MOL_PROPERTY
Idih
SciTegic.value.DoubleValue
0.000

@<SCITEGIC>MOL_PROPERTY
Tether
SciTegic.value.DoubleValue
0.000

@<TRIPOS>MOLECULE
guest-4_confgen4.mol2 : confsearch ligand conformer 44
          16          16           1
SMALL
USER_CHARGES
 
@<TRIPOS>ATOM
       1    C1      19.585327   19.921299   22.866127 C.3        1 MOL1        -0.1689
       2    H1      19.844600   20.387164   23.826599 H          1 MOL1         0.0830
       3    H2      19.514236   20.713667   22.108025 H          1 MOL1         0.0830
       4    C2      18.260955   19.148255   22.930690 C.3        1 MOL1        -0.1689
       5    H3      18.190338   18.618217   23.890769 H          1 MOL1         0.0830
       6    H4      17.386242   19.805871   22.835498 H          1 MOL1         0.0830
       7    C3      18.355262   18.125971   21.783032 C.3        1 MOL1        -0.1765
       8    H5      17.945368   18.564851   20.864090 H          1 MOL1         0.0830
       9    H6      17.780823   17.216357   22.003582 H          1 MOL1         0.0830
      10    C4      19.855933   17.834897   21.575523 C.3        1 MOL1         0.1214
      11    H7      20.106947   17.961544   20.512287 H          1 MOL1         0.0787
      12    C5      20.621211   18.870675   22.425964 C.3        1 MOL1        -0.1765
      13    H8      21.051419   18.389950   23.315124 H          1 MOL1         0.0830
      14    H9      21.442351   19.329543   21.860265 H          1 MOL1         0.0830
      15    O1      20.164891   16.516662   22.012215 O.3        1 MOL1        -0.5512
      16    H10     21.126713   16.390989   21.868569 H          1 MOL1         0.3776
@<TRIPOS>BOND
    1     1     2    1
    2     1     3    1
    3     1     4    1
    4     4     5    1
    5     4     6    1
    6     4     7    1
    7     7     8    1
    8     7     9    1
    9     7    10    1
   10    10    11    1
   11     1    12    1
   12    10    12    1
   13    12    13    1
   14    12    14    1
   15    10    15    1
   16    15    16    1
@<TRIPOS>SUBSTRUCTURE
       1 MOL1            1 RESIDUE      1      MOL     
@<SCITEGIC>MOL_PROPERTY
VConf Rank
SciTegic.value.IntegerValue
44

@<SCITEGIC>MOL_PROPERTY
Conf_Id
SciTegic.value.IntegerValue
33

@<SCITEGIC>MOL_PROPERTY
Delta U+W
SciTegic.value.DoubleValue
0.015

@<SCITEGIC>MOL_PROPERTY
U+W
SciTegic.value.DoubleValue
3.025

@<SCITEGIC>MOL_PROPERTY
Grad RMS
SciTegic.value.DoubleValue
0.000000

@<SCITEGIC>MOL_PROPERTY
U
SciTegic.value.DoubleValue
5.843

@<SCITEGIC>MOL_PROPERTY
W
SciTegic.value.DoubleValue
-2.819

@<SCITEGIC>MOL_PROPERTY
W(PB)
SciTegic.value.DoubleValue
-4.568

@<SCITEGIC>MOL_PROPERTY
W(SA)
SciTegic.value.DoubleValue
1.750

@<SCITEGIC>MOL_PROPERTY
Valence
SciTegic.value.DoubleValue
13.789

@<SCITEGIC>MOL_PROPERTY
Coulomb
SciTegic.value.DoubleValue
-8.574

@<SCITEGIC>MOL_PROPERTY
VdW
SciTegic.value.DoubleValue
0.628

@<SCITEGIC>MOL_PROPERTY
VdW6
SciTegic.value.DoubleValue
-3.284

@<SCITEGIC>MOL_PROPERTY
VdW12
SciTegic.value.DoubleValue
3.913

@<SCITEGIC>MOL_PROPERTY
Bond
SciTegic.value.DoubleValue
0.054

@<SCITEGIC>MOL_PROPERTY
Angle
SciTegic.value.DoubleValue
4.033

@<SCITEGIC>MOL_PROPERTY
Pdih
SciTegic.value.DoubleValue
9.702

@<SCITEGIC>MOL_PROPERTY
Idih
SciTegic.value.DoubleValue
0.000

@<SCITEGIC>MOL_PROPERTY
Tether
SciTegic.value.DoubleValue
0.000

@<TRIPOS>MOLECULE
guest-4_confgen4.mol2 : confsearch ligand conformer 45
          16          16           1
SMALL
USER_CHARGES
 
@<TRIPOS>ATOM
       1    C1      18.903540   18.118117   23.405916 C.3        1 MOL1        -0.1689
       2    H1      18.377154   18.853559   24.029832 H          1 MOL1         0.0830
       3    H2      18.866287   17.151565   23.926865 H          1 MOL1         0.0830
       4    C2      20.358107   18.578162   23.165883 C.3        1 MOL1        -0.1689
       5    H3      20.535999   19.535707   23.674498 H          1 MOL1         0.0830
       6    H4      21.081771   17.851745   23.560381 H          1 MOL1         0.0830
       7    C3      20.517486   18.747279   21.639963 C.3        1 MOL1        -0.1765
       8    H5      20.983308   17.847066   21.217770 H          1 MOL1         0.0830
       9    H6      21.152178   19.605028   21.380277 H          1 MOL1         0.0830
      10    C4      19.096563   18.883966   21.076679 C.3        1 MOL1         0.1214
      11    H7      19.037417   18.529481   20.037533 H          1 MOL1         0.0787
      12    C5      18.238946   18.025329   22.015930 C.3        1 MOL1        -0.1765
      13    H8      17.189770   18.349239   22.033712 H          1 MOL1         0.0830
      14    H9      18.261372   16.984372   21.667321 H          1 MOL1         0.0830
      15    O1      18.683231   20.239139   21.173993 O.3        1 MOL1        -0.5512
      16    H10     18.768625   20.464010   22.123363 H          1 MOL1         0.3776
@<TRIPOS>BOND
    1     1     2    1
    2     1     3    1
    3     1     4    1
    4     4     5    1
    5     4     6    1
    6     4     7    1
    7     7     8    1
    8     7     9    1
    9     7    10    1
   10    10    11    1
   11     1    12    1
   12    10    12    1
   13    12    13    1
   14    12    14    1
   15    10    15    1
   16    15    16    1
@<TRIPOS>SUBSTRUCTURE
       1 MOL1            1 RESIDUE      1      MOL     
@<SCITEGIC>MOL_PROPERTY
VConf Rank
SciTegic.value.IntegerValue
45

@<SCITEGIC>MOL_PROPERTY
Conf_Id
SciTegic.value.IntegerValue
20

@<SCITEGIC>MOL_PROPERTY
Delta U+W
SciTegic.value.DoubleValue
-0.483

@<SCITEGIC>MOL_PROPERTY
U+W
SciTegic.value.DoubleValue
2.527

@<SCITEGIC>MOL_PROPERTY
Grad RMS
SciTegic.value.DoubleValue
0.000000

@<SCITEGIC>MOL_PROPERTY
U
SciTegic.value.DoubleValue
4.508

@<SCITEGIC>MOL_PROPERTY
W
SciTegic.value.DoubleValue
-1.981

@<SCITEGIC>MOL_PROPERTY
W(PB)
SciTegic.value.DoubleValue
-3.712

@<SCITEGIC>MOL_PROPERTY
W(SA)
SciTegic.value.DoubleValue
1.732

@<SCITEGIC>MOL_PROPERTY
Valence
SciTegic.value.DoubleValue
14.705

@<SCITEGIC>MOL_PROPERTY
Coulomb
SciTegic.value.DoubleValue
-10.687

@<SCITEGIC>MOL_PROPERTY
VdW
SciTegic.value.DoubleValue
0.490

@<SCITEGIC>MOL_PROPERTY
VdW6
SciTegic.value.DoubleValue
-3.745

@<SCITEGIC>MOL_PROPERTY
VdW12
SciTegic.value.DoubleValue
4.235

@<SCITEGIC>MOL_PROPERTY
Bond
SciTegic.value.DoubleValue
0.068

@<SCITEGIC>MOL_PROPERTY
Angle
SciTegic.value.DoubleValue
3.901

@<SCITEGIC>MOL_PROPERTY
Pdih
SciTegic.value.DoubleValue
10.737

@<SCITEGIC>MOL_PROPERTY
Idih
SciTegic.value.DoubleValue
0.000

@<SCITEGIC>MOL_PROPERTY
Tether
SciTegic.value.DoubleValue
0.000

@<TRIPOS>MOLECULE
guest-4_confgen4.mol2 : confsearch ligand conformer 46
          16          16           1
SMALL
USER_CHARGES
 
@<TRIPOS>ATOM
       1    C1      19.323833   17.543107   21.269909 C.3        1 MOL1        -0.1689
       2    H1      18.333264   17.647449   20.805621 H          1 MOL1         0.0830
       3    H2      19.881254   16.771476   20.721719 H          1 MOL1         0.0830
       4    C2      19.161253   17.203131   22.757763 C.3        1 MOL1        -0.1689
       5    H3      18.339307   16.496893   22.937740 H          1 MOL1         0.0830
       6    H4      20.089451   16.754191   23.137931 H          1 MOL1         0.0830
       7    C3      18.924074   18.563877   23.437964 C.3        1 MOL1        -0.1765
       8    H5      19.291009   18.564574   24.472471 H          1 MOL1         0.0830
       9    H6      17.846279   18.774968   23.462098 H          1 MOL1         0.0830
      10    C4      19.655537   19.614362   22.575919 C.3        1 MOL1         0.1214
      11    H7      20.567740   19.952820   23.088609 H          1 MOL1         0.0787
      12    C5      20.042956   18.904698   21.262101 C.3        1 MOL1        -0.1765
      13    H8      19.778946   19.496236   20.375307 H          1 MOL1         0.0830
      14    H9      21.129307   18.747548   21.247038 H          1 MOL1         0.0830
      15    O1      18.793486   20.713006   22.304372 O.3        1 MOL1        -0.5512
      16    H10     18.571871   21.117199   23.169847 H          1 MOL1         0.3776
@<TRIPOS>BOND
    1     1     2    1
    2     1     3    1
    3     1     4    1
    4     4     5    1
    5     4     6    1
    6     4     7    1
    7     7     8    1
    8     7     9    1
    9     7    10    1
   10    10    11    1
   11     1    12    1
   12    10    12    1
   13    12    13    1
   14    12    14    1
   15    10    15    1
   16    15    16    1
@<TRIPOS>SUBSTRUCTURE
       1 MOL1            1 RESIDUE      1      MOL     
@<SCITEGIC>MOL_PROPERTY
VConf Rank
SciTegic.value.IntegerValue
46

@<SCITEGIC>MOL_PROPERTY
Conf_Id
SciTegic.value.IntegerValue
59

@<SCITEGIC>MOL_PROPERTY
Delta U+W
SciTegic.value.DoubleValue
0.000

@<SCITEGIC>MOL_PROPERTY
U+W
SciTegic.value.DoubleValue
3.010

@<SCITEGIC>MOL_PROPERTY
Grad RMS
SciTegic.value.DoubleValue
0.000000

@<SCITEGIC>MOL_PROPERTY
U
SciTegic.value.DoubleValue
5.843

@<SCITEGIC>MOL_PROPERTY
W
SciTegic.value.DoubleValue
-2.833

@<SCITEGIC>MOL_PROPERTY
W(PB)
SciTegic.value.DoubleValue
-4.568

@<SCITEGIC>MOL_PROPERTY
W(SA)
SciTegic.value.DoubleValue
1.735

@<SCITEGIC>MOL_PROPERTY
Valence
SciTegic.value.DoubleValue
13.789

@<SCITEGIC>MOL_PROPERTY
Coulomb
SciTegic.value.DoubleValue
-8.574

@<SCITEGIC>MOL_PROPERTY
VdW
SciTegic.value.DoubleValue
0.628

@<SCITEGIC>MOL_PROPERTY
VdW6
SciTegic.value.DoubleValue
-3.284

@<SCITEGIC>MOL_PROPERTY
VdW12
SciTegic.value.DoubleValue
3.912

@<SCITEGIC>MOL_PROPERTY
Bond
SciTegic.value.DoubleValue
0.054

@<SCITEGIC>MOL_PROPERTY
Angle
SciTegic.value.DoubleValue
4.034

@<SCITEGIC>MOL_PROPERTY
Pdih
SciTegic.value.DoubleValue
9.702

@<SCITEGIC>MOL_PROPERTY
Idih
SciTegic.value.DoubleValue
0.000

@<SCITEGIC>MOL_PROPERTY
Tether
SciTegic.value.DoubleValue
0.000

@<TRIPOS>MOLECULE
guest-4_confgen4.mol2 : confsearch ligand conformer 47
          16          16           1
SMALL
USER_CHARGES
 
@<TRIPOS>ATOM
       1    C1      18.656837   18.441332   21.109605 C.3        1 MOL1        -0.1689
       2    H1      18.775513   18.121882   20.065275 H          1 MOL1         0.0830
       3    H2      17.583306   18.558341   21.313228 H          1 MOL1         0.0830
       4    C2      19.384743   19.760318   21.403126 C.3        1 MOL1        -0.1689
       5    H3      20.351380   19.771719   20.880477 H          1 MOL1         0.0830
       6    H4      18.808701   20.638222   21.080478 H          1 MOL1         0.0830
       7    C3      19.621380   19.739443   22.924522 C.3        1 MOL1        -0.1765
       8    H5      18.769210   20.205193   23.436349 H          1 MOL1         0.0830
       9    H6      20.524064   20.300440   23.201042 H          1 MOL1         0.0830
      10    C4      19.705367   18.255112   23.336232 C.3        1 MOL1         0.1214
      11    H7      19.016370   18.070744   24.173376 H          1 MOL1         0.0787
      12    C5      19.268941   17.436607   22.102815 C.3        1 MOL1        -0.1765
      13    H8      20.139552   16.952507   21.639709 H          1 MOL1         0.0830
      14    H9      18.550844   16.651646   22.373038 H          1 MOL1         0.0830
      15    O1      21.039765   17.921593   23.699611 O.3        1 MOL1        -0.5512
      16    H10     21.036644   16.970812   23.939476 H          1 MOL1         0.3776
@<TRIPOS>BOND
    1     1     2    1
    2     1     3    1
    3     1     4    1
    4     4     5    1
    5     4     6    1
    6     4     7    1
    7     7     8    1
    8     7     9    1
    9     7    10    1
   10    10    11    1
   11     1    12    1
   12    10    12    1
   13    12    13    1
   14    12    14    1
   15    10    15    1
   16    15    16    1
@<TRIPOS>SUBSTRUCTURE
       1 MOL1            1 RESIDUE      1      MOL     
@<SCITEGIC>MOL_PROPERTY
VConf Rank
SciTegic.value.IntegerValue
47

@<SCITEGIC>MOL_PROPERTY
Conf_Id
SciTegic.value.IntegerValue
33

@<SCITEGIC>MOL_PROPERTY
Delta U+W
SciTegic.value.DoubleValue
0.015

@<SCITEGIC>MOL_PROPERTY
U+W
SciTegic.value.DoubleValue
3.025

@<SCITEGIC>MOL_PROPERTY
Grad RMS
SciTegic.value.DoubleValue
0.000000

@<SCITEGIC>MOL_PROPERTY
U
SciTegic.value.DoubleValue
5.843

@<SCITEGIC>MOL_PROPERTY
W
SciTegic.value.DoubleValue
-2.819

@<SCITEGIC>MOL_PROPERTY
W(PB)
SciTegic.value.DoubleValue
-4.568

@<SCITEGIC>MOL_PROPERTY
W(SA)
SciTegic.value.DoubleValue
1.750

@<SCITEGIC>MOL_PROPERTY
Valence
SciTegic.value.DoubleValue
13.789

@<SCITEGIC>MOL_PROPERTY
Coulomb
SciTegic.value.DoubleValue
-8.574

@<SCITEGIC>MOL_PROPERTY
VdW
SciTegic.value.DoubleValue
0.628

@<SCITEGIC>MOL_PROPERTY
VdW6
SciTegic.value.DoubleValue
-3.284

@<SCITEGIC>MOL_PROPERTY
VdW12
SciTegic.value.DoubleValue
3.913

@<SCITEGIC>MOL_PROPERTY
Bond
SciTegic.value.DoubleValue
0.054

@<SCITEGIC>MOL_PROPERTY
Angle
SciTegic.value.DoubleValue
4.033

@<SCITEGIC>MOL_PROPERTY
Pdih
SciTegic.value.DoubleValue
9.702

@<SCITEGIC>MOL_PROPERTY
Idih
SciTegic.value.DoubleValue
0.000

@<SCITEGIC>MOL_PROPERTY
Tether
SciTegic.value.DoubleValue
0.000

@<TRIPOS>MOLECULE
guest-4_confgen4.mol2 : confsearch ligand conformer 48
          16          16           1
SMALL
USER_CHARGES
 
@<TRIPOS>ATOM
       1    C1      20.519146   19.103409   22.748072 C.3        1 MOL1        -0.1689
       2    H1      21.348874   19.124049   22.028105 H          1 MOL1         0.0830
       3    H2      20.886445   19.528522   23.692195 H          1 MOL1         0.0830
       4    C2      20.020971   17.653478   22.933930 C.3        1 MOL1        -0.1689
       5    H3      20.610280   16.972268   22.304728 H          1 MOL1         0.0830
       6    H4      20.126735   17.320469   23.975524 H          1 MOL1         0.0830
       7    C3      18.541396   17.639351   22.494504 C.3        1 MOL1        -0.1765
       8    H5      17.895383   17.723036   23.378407 H          1 MOL1         0.0830
       9    H6      18.271758   16.712909   21.970095 H          1 MOL1         0.0830
      10    C4      18.347019   18.882342   21.615764 C.3        1 MOL1         0.1214
      11    H7      17.308876   19.243082   21.649068 H          1 MOL1         0.0787
      12    C5      19.321545   19.911257   22.204480 C.3        1 MOL1        -0.1765
      13    H8      19.628039   20.663980   21.465917 H          1 MOL1         0.0830
      14    H9      18.827715   20.437113   23.032265 H          1 MOL1         0.0830
      15    O1      18.735461   18.578938   20.283898 O.3        1 MOL1        -0.5512
      16    H10     19.662109   18.269560   20.352964 H          1 MOL1         0.3776
@<TRIPOS>BOND
    1     1     2    1
    2     1     3    1
    3     1     4    1
    4     4     5    1
    5     4     6    1
    6     4     7    1
    7     7     8    1
    8     7     9    1
    9     7    10    1
   10    10    11    1
   11     1    12    1
   12    10    12    1
   13    12    13    1
   14    12    14    1
   15    10    15    1
   16    15    16    1
@<TRIPOS>SUBSTRUCTURE
       1 MOL1            1 RESIDUE      1      MOL     
@<SCITEGIC>MOL_PROPERTY
VConf Rank
SciTegic.value.IntegerValue
48

@<SCITEGIC>MOL_PROPERTY
Conf_Id
SciTegic.value.IntegerValue
20

@<SCITEGIC>MOL_PROPERTY
Delta U+W
SciTegic.value.DoubleValue
-0.483

@<SCITEGIC>MOL_PROPERTY
U+W
SciTegic.value.DoubleValue
2.527

@<SCITEGIC>MOL_PROPERTY
Grad RMS
SciTegic.value.DoubleValue
0.000000

@<SCITEGIC>MOL_PROPERTY
U
SciTegic.value.DoubleValue
4.508

@<SCITEGIC>MOL_PROPERTY
W
SciTegic.value.DoubleValue
-1.981

@<SCITEGIC>MOL_PROPERTY
W(PB)
SciTegic.value.DoubleValue
-3.712

@<SCITEGIC>MOL_PROPERTY
W(SA)
SciTegic.value.DoubleValue
1.732

@<SCITEGIC>MOL_PROPERTY
Valence
SciTegic.value.DoubleValue
14.705

@<SCITEGIC>MOL_PROPERTY
Coulomb
SciTegic.value.DoubleValue
-10.687

@<SCITEGIC>MOL_PROPERTY
VdW
SciTegic.value.DoubleValue
0.490

@<SCITEGIC>MOL_PROPERTY
VdW6
SciTegic.value.DoubleValue
-3.745

@<SCITEGIC>MOL_PROPERTY
VdW12
SciTegic.value.DoubleValue
4.235

@<SCITEGIC>MOL_PROPERTY
Bond
SciTegic.value.DoubleValue
0.068

@<SCITEGIC>MOL_PROPERTY
Angle
SciTegic.value.DoubleValue
3.901

@<SCITEGIC>MOL_PROPERTY
Pdih
SciTegic.value.DoubleValue
10.737

@<SCITEGIC>MOL_PROPERTY
Idih
SciTegic.value.DoubleValue
0.000

@<SCITEGIC>MOL_PROPERTY
Tether
SciTegic.value.DoubleValue
0.000

@<TRIPOS>MOLECULE
guest-4_confgen4.mol2 : confsearch ligand conformer 49
          16          16           1
SMALL
USER_CHARGES
 
@<TRIPOS>ATOM
       1    C1      19.131555   19.424900   21.172181 C.3        1 MOL1        -0.1689
       2    H1      20.124681   19.817192   20.912403 H          1 MOL1         0.0830
       3    H2      18.408611   19.804579   20.437443 H          1 MOL1         0.0830
       4    C2      18.776861   19.833208   22.608567 C.3        1 MOL1        -0.1689
       5    H3      19.094421   20.858568   22.842130 H          1 MOL1         0.0830
       6    H4      17.689413   19.768914   22.753304 H          1 MOL1         0.0830
       7    C3      19.482465   18.786230   23.489768 C.3        1 MOL1        -0.1765
       8    H5      18.942796   18.625698   24.432017 H          1 MOL1         0.0830
       9    H6      20.492951   19.140071   23.735737 H          1 MOL1         0.0830
      10    C4      19.558139   17.492450   22.651862 C.3        1 MOL1         0.1214
      11    H7      18.833870   16.756261   23.029988 H          1 MOL1         0.0787
      12    C5      19.178517   17.886219   21.209410 C.3        1 MOL1        -0.1765
      13    H8      19.883216   17.485238   20.468711 H          1 MOL1         0.0830
      14    H9      18.184727   17.481546   20.977674 H          1 MOL1         0.0830
      15    O1      20.878114   16.962844   22.684616 O.3        1 MOL1        -0.5512
      16    H10     21.069230   16.741616   23.620600 H          1 MOL1         0.3776
@<TRIPOS>BOND
    1     1     2    1
    2     1     3    1
    3     1     4    1
    4     4     5    1
    5     4     6    1
    6     4     7    1
    7     7     8    1
    8     7     9    1
    9     7    10    1
   10    10    11    1
   11     1    12    1
   12    10    12    1
   13    12    13    1
   14    12    14    1
   15    10    15    1
   16    15    16    1
@<TRIPOS>SUBSTRUCTURE
       1 MOL1            1 RESIDUE      1      MOL     
@<SCITEGIC>MOL_PROPERTY
VConf Rank
SciTegic.value.IntegerValue
49

@<SCITEGIC>MOL_PROPERTY
Conf_Id
SciTegic.value.IntegerValue
59

@<SCITEGIC>MOL_PROPERTY
Delta U+W
SciTegic.value.DoubleValue
0.000

@<SCITEGIC>MOL_PROPERTY
U+W
SciTegic.value.DoubleValue
3.010

@<SCITEGIC>MOL_PROPERTY
Grad RMS
SciTegic.value.DoubleValue
0.000000

@<SCITEGIC>MOL_PROPERTY
U
SciTegic.value.DoubleValue
5.843

@<SCITEGIC>MOL_PROPERTY
W
SciTegic.value.DoubleValue
-2.833

@<SCITEGIC>MOL_PROPERTY
W(PB)
SciTegic.value.DoubleValue
-4.568

@<SCITEGIC>MOL_PROPERTY
W(SA)
SciTegic.value.DoubleValue
1.735

@<SCITEGIC>MOL_PROPERTY
Valence
SciTegic.value.DoubleValue
13.789

@<SCITEGIC>MOL_PROPERTY
Coulomb
SciTegic.value.DoubleValue
-8.574

@<SCITEGIC>MOL_PROPERTY
VdW
SciTegic.value.DoubleValue
0.628

@<SCITEGIC>MOL_PROPERTY
VdW6
SciTegic.value.DoubleValue
-3.284

@<SCITEGIC>MOL_PROPERTY
VdW12
SciTegic.value.DoubleValue
3.912

@<SCITEGIC>MOL_PROPERTY
Bond
SciTegic.value.DoubleValue
0.054

@<SCITEGIC>MOL_PROPERTY
Angle
SciTegic.value.DoubleValue
4.034

@<SCITEGIC>MOL_PROPERTY
Pdih
SciTegic.value.DoubleValue
9.702

@<SCITEGIC>MOL_PROPERTY
Idih
SciTegic.value.DoubleValue
0.000

@<SCITEGIC>MOL_PROPERTY
Tether
SciTegic.value.DoubleValue
0.000

@<TRIPOS>MOLECULE
guest-4_confgen4.mol2 : confsearch ligand conformer 50
          16          16           1
SMALL
USER_CHARGES
 
@<TRIPOS>ATOM
       1    C1      18.258327   18.987377   22.995877 C.3        1 MOL1        -0.1689
       2    H1      17.322424   18.533468   23.349163 H          1 MOL1         0.0830
       3    H2      18.323734   20.004264   23.407319 H          1 MOL1         0.0830
       4    C2      18.338062   19.044086   21.464161 C.3        1 MOL1        -0.1689
       5    H3      17.924611   18.118736   21.039349 H          1 MOL1         0.0830
       6    H4      17.780972   19.893563   21.046212 H          1 MOL1         0.0830
       7    C3      19.845401   19.122820   21.159520 C.3        1 MOL1        -0.1765
       8    H5      20.158987   20.174121   21.120591 H          1 MOL1         0.0830
       9    H6      20.086357   18.666507   20.190119 H          1 MOL1         0.0830
      10    C4      20.567816   18.425473   22.330682 C.3        1 MOL1         0.1214
      11    H7      21.351475   19.090583   22.721869 H          1 MOL1         0.0787
      12    C5      19.497787   18.175425   23.414309 C.3        1 MOL1        -0.1765
      13    H8      19.237300   17.108926   23.453140 H          1 MOL1         0.0830
      14    H9      19.854270   18.471816   24.409256 H          1 MOL1         0.0830
      15    O1      21.125632   17.190553   21.897426 O.3        1 MOL1        -0.5512
      16    H10     21.559462   16.788193   22.679364 H          1 MOL1         0.3776
@<TRIPOS>BOND
    1     1     2    1
    2     1     3    1
    3     1     4    1
    4     4     5    1
    5     4     6    1
    6     4     7    1
    7     7     8    1
    8     7     9    1
    9     7    10    1
   10    10    11    1
   11     1    12    1
   12    10    12    1
   13    12    13    1
   14    12    14    1
   15    10    15    1
   16    15    16    1
@<TRIPOS>SUBSTRUCTURE
       1 MOL1            1 RESIDUE      1      MOL     
@<SCITEGIC>MOL_PROPERTY
VConf Rank
SciTegic.value.IntegerValue
50

@<SCITEGIC>MOL_PROPERTY
Conf_Id
SciTegic.value.IntegerValue
33

@<SCITEGIC>MOL_PROPERTY
Delta U+W
SciTegic.value.DoubleValue
0.015

@<SCITEGIC>MOL_PROPERTY
U+W
SciTegic.value.DoubleValue
3.025

@<SCITEGIC>MOL_PROPERTY
Grad RMS
SciTegic.value.DoubleValue
0.000000

@<SCITEGIC>MOL_PROPERTY
U
SciTegic.value.DoubleValue
5.843

@<SCITEGIC>MOL_PROPERTY
W
SciTegic.value.DoubleValue
-2.819

@<SCITEGIC>MOL_PROPERTY
W(PB)
SciTegic.value.DoubleValue
-4.568

@<SCITEGIC>MOL_PROPERTY
W(SA)
SciTegic.value.DoubleValue
1.750

@<SCITEGIC>MOL_PROPERTY
Valence
SciTegic.value.DoubleValue
13.789

@<SCITEGIC>MOL_PROPERTY
Coulomb
SciTegic.value.DoubleValue
-8.574

@<SCITEGIC>MOL_PROPERTY
VdW
SciTegic.value.DoubleValue
0.628

@<SCITEGIC>MOL_PROPERTY
VdW6
SciTegic.value.DoubleValue
-3.284

@<SCITEGIC>MOL_PROPERTY
VdW12
SciTegic.value.DoubleValue
3.913

@<SCITEGIC>MOL_PROPERTY
Bond
SciTegic.value.DoubleValue
0.054

@<SCITEGIC>MOL_PROPERTY
Angle
SciTegic.value.DoubleValue
4.033

@<SCITEGIC>MOL_PROPERTY
Pdih
SciTegic.value.DoubleValue
9.702

@<SCITEGIC>MOL_PROPERTY
Idih
SciTegic.value.DoubleValue
0.000

@<SCITEGIC>MOL_PROPERTY
Tether
SciTegic.value.DoubleValue
0.000

@<TRIPOS>MOLECULE
guest-4_confgen4.mol2 : confsearch ligand conformer 51
          16          16           1
SMALL
USER_CHARGES
 
@<TRIPOS>ATOM
       1    C1      19.793047   18.825486   23.509738 C.3        1 MOL1        -0.1689
       2    H1      20.859779   19.074203   23.596063 H          1 MOL1         0.0830
       3    H2      19.363312   18.845353   24.520644 H          1 MOL1         0.0830
       4    C2      19.628756   17.438850   22.849989 C.3        1 MOL1        -0.1689
       5    H3      20.615981   17.016019   22.617983 H          1 MOL1         0.0830
       6    H4      19.112155   16.733632   23.515414 H          1 MOL1         0.0830
       7    C3      18.826717   17.664637   21.550685 C.3        1 MOL1        -0.1765
       8    H5      17.766728   17.441635   21.730449 H          1 MOL1         0.0830
       9    H6      19.169978   17.018184   20.731981 H          1 MOL1         0.0830
      10    C4      18.972383   19.154905   21.214717 C.3        1 MOL1         0.1214
      11    H7      18.108508   19.527731   20.645768 H          1 MOL1         0.0787
      12    C5      19.083053   19.836938   22.584951 C.3        1 MOL1        -0.1765
      13    H8      19.615291   20.795979   22.530487 H          1 MOL1         0.0830
      14    H9      18.072997   20.036580   22.966464 H          1 MOL1         0.0830
      15    O1      20.179062   19.355955   20.493391 O.3        1 MOL1        -0.5512
      16    H10     20.884007   18.997677   21.071190 H          1 MOL1         0.3776
@<TRIPOS>BOND
    1     1     2    1
    2     1     3    1
    3     1     4    1
    4     4     5    1
    5     4     6    1
    6     4     7    1
    7     7     8    1
    8     7     9    1
    9     7    10    1
   10    10    11    1
   11     1    12    1
   12    10    12    1
   13    12    13    1
   14    12    14    1
   15    10    15    1
   16    15    16    1
@<TRIPOS>SUBSTRUCTURE
       1 MOL1            1 RESIDUE      1      MOL     
@<SCITEGIC>MOL_PROPERTY
VConf Rank
SciTegic.value.IntegerValue
51

@<SCITEGIC>MOL_PROPERTY
Conf_Id
SciTegic.value.IntegerValue
20

@<SCITEGIC>MOL_PROPERTY
Delta U+W
SciTegic.value.DoubleValue
-0.483

@<SCITEGIC>MOL_PROPERTY
U+W
SciTegic.value.DoubleValue
2.527

@<SCITEGIC>MOL_PROPERTY
Grad RMS
SciTegic.value.DoubleValue
0.000000

@<SCITEGIC>MOL_PROPERTY
U
SciTegic.value.DoubleValue
4.508

@<SCITEGIC>MOL_PROPERTY
W
SciTegic.value.DoubleValue
-1.981

@<SCITEGIC>MOL_PROPERTY
W(PB)
SciTegic.value.DoubleValue
-3.712

@<SCITEGIC>MOL_PROPERTY
W(SA)
SciTegic.value.DoubleValue
1.732

@<SCITEGIC>MOL_PROPERTY
Valence
SciTegic.value.DoubleValue
14.705

@<SCITEGIC>MOL_PROPERTY
Coulomb
SciTegic.value.DoubleValue
-10.687

@<SCITEGIC>MOL_PROPERTY
VdW
SciTegic.value.DoubleValue
0.490

@<SCITEGIC>MOL_PROPERTY
VdW6
SciTegic.value.DoubleValue
-3.745

@<SCITEGIC>MOL_PROPERTY
VdW12
SciTegic.value.DoubleValue
4.235

@<SCITEGIC>MOL_PROPERTY
Bond
SciTegic.value.DoubleValue
0.068

@<SCITEGIC>MOL_PROPERTY
Angle
SciTegic.value.DoubleValue
3.901

@<SCITEGIC>MOL_PROPERTY
Pdih
SciTegic.value.DoubleValue
10.737

@<SCITEGIC>MOL_PROPERTY
Idih
SciTegic.value.DoubleValue
0.000

@<SCITEGIC>MOL_PROPERTY
Tether
SciTegic.value.DoubleValue
0.000

@<TRIPOS>MOLECULE
guest-4_confgen4.mol2 : confsearch ligand conformer 52
          16          16           1
SMALL
USER_CHARGES
 
@<TRIPOS>ATOM
       1    C1      19.698778   18.307206   23.705803 C.3        1 MOL1        -0.1689
       2    H1      19.550651   17.227549   23.847498 H          1 MOL1         0.0830
       3    H2      20.089317   18.726859   24.642827 H          1 MOL1         0.0830
       4    C2      18.374916   18.956424   23.279620 C.3        1 MOL1        -0.1689
       5    H3      17.512206   18.536519   23.814569 H          1 MOL1         0.0830
       6    H4      18.411292   20.036252   23.480308 H          1 MOL1         0.0830
       7    C3      18.299119   18.710983   21.761539 C.3        1 MOL1        -0.1765
       8    H5      17.733500   19.503544   21.254816 H          1 MOL1         0.0830
       9    H6      17.787051   17.757588   21.572833 H          1 MOL1         0.0830
      10    C4      19.756572   18.643884   21.258540 C.3        1 MOL1         0.1214
      11    H7      20.007020   19.561840   20.707041 H          1 MOL1         0.0787
      12    C5      20.645820   18.545870   22.515307 C.3        1 MOL1        -0.1765
      13    H8      21.398881   17.750887   22.432104 H          1 MOL1         0.0830
      14    H9      21.177754   19.496305   22.652422 H          1 MOL1         0.0830
      15    O1      19.940079   17.497018   20.437009 O.3        1 MOL1        -0.5512
      16    H10     19.346611   17.606806   19.664174 H          1 MOL1         0.3776
@<TRIPOS>BOND
    1     1     2    1
    2     1     3    1
    3     1     4    1
    4     4     5    1
    5     4     6    1
    6     4     7    1
    7     7     8    1
    8     7     9    1
    9     7    10    1
   10    10    11    1
   11     1    12    1
   12    10    12    1
   13    12    13    1
   14    12    14    1
   15    10    15    1
   16    15    16    1
@<TRIPOS>SUBSTRUCTURE
       1 MOL1            1 RESIDUE      1      MOL     
@<SCITEGIC>MOL_PROPERTY
VConf Rank
SciTegic.value.IntegerValue
52

@<SCITEGIC>MOL_PROPERTY
Conf_Id
SciTegic.value.IntegerValue
59

@<SCITEGIC>MOL_PROPERTY
Delta U+W
SciTegic.value.DoubleValue
0.000

@<SCITEGIC>MOL_PROPERTY
U+W
SciTegic.value.DoubleValue
3.010

@<SCITEGIC>MOL_PROPERTY
Grad RMS
SciTegic.value.DoubleValue
0.000000

@<SCITEGIC>MOL_PROPERTY
U
SciTegic.value.DoubleValue
5.843

@<SCITEGIC>MOL_PROPERTY
W
SciTegic.value.DoubleValue
-2.833

@<SCITEGIC>MOL_PROPERTY
W(PB)
SciTegic.value.DoubleValue
-4.568

@<SCITEGIC>MOL_PROPERTY
W(SA)
SciTegic.value.DoubleValue
1.735

@<SCITEGIC>MOL_PROPERTY
Valence
SciTegic.value.DoubleValue
13.789

@<SCITEGIC>MOL_PROPERTY
Coulomb
SciTegic.value.DoubleValue
-8.574

@<SCITEGIC>MOL_PROPERTY
VdW
SciTegic.value.DoubleValue
0.628

@<SCITEGIC>MOL_PROPERTY
VdW6
SciTegic.value.DoubleValue
-3.284

@<SCITEGIC>MOL_PROPERTY
VdW12
SciTegic.value.DoubleValue
3.912

@<SCITEGIC>MOL_PROPERTY
Bond
SciTegic.value.DoubleValue
0.054

@<SCITEGIC>MOL_PROPERTY
Angle
SciTegic.value.DoubleValue
4.034

@<SCITEGIC>MOL_PROPERTY
Pdih
SciTegic.value.DoubleValue
9.702

@<SCITEGIC>MOL_PROPERTY
Idih
SciTegic.value.DoubleValue
0.000

@<SCITEGIC>MOL_PROPERTY
Tether
SciTegic.value.DoubleValue
0.000

@<TRIPOS>MOLECULE
guest-4_confgen4.mol2 : confsearch ligand conformer 53
          16          16           1
SMALL
USER_CHARGES
 
@<TRIPOS>ATOM
       1    C1      20.370381   19.581591   22.819245 C.3        1 MOL1        -0.1689
       2    H1      20.355577   20.508737   23.408262 H          1 MOL1         0.0830
       3    H2      21.416486   19.266663   22.700471 H          1 MOL1         0.0830
       4    C2      19.723979   19.756728   21.438224 C.3        1 MOL1        -0.1689
       5    H3      18.833693   20.394901   21.526565 H          1 MOL1         0.0830
       6    H4      20.406475   20.216931   20.710863 H          1 MOL1         0.0830
       7    C3      19.300160   18.334326   21.028068 C.3        1 MOL1        -0.1765
       8    H5      20.118269   17.849970   20.479268 H          1 MOL1         0.0830
       9    H6      18.420010   18.348211   20.371439 H          1 MOL1         0.0830
      10    C4      19.042796   17.557761   22.335932 C.3        1 MOL1         0.1214
      11    H7      19.605279   16.612956   22.314155 H          1 MOL1         0.0787
      12    C5      19.558781   18.453418   23.481923 C.3        1 MOL1        -0.1765
      13    H8      18.714889   18.889045   24.034062 H          1 MOL1         0.0830
      14    H9      20.170190   17.884716   24.194386 H          1 MOL1         0.0830
      15    O1      17.650637   17.311351   22.494270 O.3        1 MOL1        -0.5512
      16    H10     17.545015   16.828606   23.341224 H          1 MOL1         0.3776
@<TRIPOS>BOND
    1     1     2    1
    2     1     3    1
    3     1     4    1
    4     4     5    1
    5     4     6    1
    6     4     7    1
    7     7     8    1
    8     7     9    1
    9     7    10    1
   10    10    11    1
   11     1    12    1
   12    10    12    1
   13    12    13    1
   14    12    14    1
   15    10    15    1
   16    15    16    1
@<TRIPOS>SUBSTRUCTURE
       1 MOL1            1 RESIDUE      1      MOL     
@<SCITEGIC>MOL_PROPERTY
VConf Rank
SciTegic.value.IntegerValue
53

@<SCITEGIC>MOL_PROPERTY
Conf_Id
SciTegic.value.IntegerValue
33

@<SCITEGIC>MOL_PROPERTY
Delta U+W
SciTegic.value.DoubleValue
0.015

@<SCITEGIC>MOL_PROPERTY
U+W
SciTegic.value.DoubleValue
3.025

@<SCITEGIC>MOL_PROPERTY
Grad RMS
SciTegic.value.DoubleValue
0.000000

@<SCITEGIC>MOL_PROPERTY
U
SciTegic.value.DoubleValue
5.843

@<SCITEGIC>MOL_PROPERTY
W
SciTegic.value.DoubleValue
-2.819

@<SCITEGIC>MOL_PROPERTY
W(PB)
SciTegic.value.DoubleValue
-4.568

@<SCITEGIC>MOL_PROPERTY
W(SA)
SciTegic.value.DoubleValue
1.750

@<SCITEGIC>MOL_PROPERTY
Valence
SciTegic.value.DoubleValue
13.789

@<SCITEGIC>MOL_PROPERTY
Coulomb
SciTegic.value.DoubleValue
-8.574

@<SCITEGIC>MOL_PROPERTY
VdW
SciTegic.value.DoubleValue
0.628

@<SCITEGIC>MOL_PROPERTY
VdW6
SciTegic.value.DoubleValue
-3.284

@<SCITEGIC>MOL_PROPERTY
VdW12
SciTegic.value.DoubleValue
3.913

@<SCITEGIC>MOL_PROPERTY
Bond
SciTegic.value.DoubleValue
0.054

@<SCITEGIC>MOL_PROPERTY
Angle
SciTegic.value.DoubleValue
4.033

@<SCITEGIC>MOL_PROPERTY
Pdih
SciTegic.value.DoubleValue
9.702

@<SCITEGIC>MOL_PROPERTY
Idih
SciTegic.value.DoubleValue
0.000

@<SCITEGIC>MOL_PROPERTY
Tether
SciTegic.value.DoubleValue
0.000

@<TRIPOS>MOLECULE
guest-4_confgen4.mol2 : confsearch ligand conformer 54
          16          16           1
SMALL
USER_CHARGES
 
@<TRIPOS>ATOM
       1    C1      18.576932   19.471638   22.891247 C.3        1 MOL1        -0.1689
       2    H1      18.420759   20.419541   22.358033 H          1 MOL1         0.0830
       3    H2      17.988598   19.509853   23.818286 H          1 MOL1         0.0830
       4    C2      20.080890   19.273550   23.180889 C.3        1 MOL1        -0.1689
       5    H3      20.652466   20.126071   22.788798 H          1 MOL1         0.0830
       6    H4      20.279158   19.207122   24.259442 H          1 MOL1         0.0830
       7    C3      20.498230   17.974609   22.459074 C.3        1 MOL1        -0.1765
       8    H5      20.493402   17.140407   23.173010 H          1 MOL1         0.0830
       9    H6      21.507251   18.042114   22.030909 H          1 MOL1         0.0830
      10    C4      19.428374   17.720552   21.388626 C.3        1 MOL1         0.1214
      11    H7      19.331661   16.649527   21.159422 H          1 MOL1         0.0787
      12    C5      18.141665   18.284299   22.006303 C.3        1 MOL1        -0.1765
      13    H8      17.409048   18.580197   21.243597 H          1 MOL1         0.0830
      14    H9      17.678074   17.510624   22.632507 H          1 MOL1         0.0830
      15    O1      19.750155   18.461570   20.220655 O.3        1 MOL1        -0.5512
      16    H10     19.815090   19.392089   20.519118 H          1 MOL1         0.3776
@<TRIPOS>BOND
    1     1     2    1
    2     1     3    1
    3     1     4    1
    4     4     5    1
    5     4     6    1
    6     4     7    1
    7     7     8    1
    8     7     9    1
    9     7    10    1
   10    10    11    1
   11     1    12    1
   12    10    12    1
   13    12    13    1
   14    12    14    1
   15    10    15    1
   16    15    16    1
@<TRIPOS>SUBSTRUCTURE
       1 MOL1            1 RESIDUE      1      MOL     
@<SCITEGIC>MOL_PROPERTY
VConf Rank
SciTegic.value.IntegerValue
54

@<SCITEGIC>MOL_PROPERTY
Conf_Id
SciTegic.value.IntegerValue
20

@<SCITEGIC>MOL_PROPERTY
Delta U+W
SciTegic.value.DoubleValue
-0.483

@<SCITEGIC>MOL_PROPERTY
U+W
SciTegic.value.DoubleValue
2.527

@<SCITEGIC>MOL_PROPERTY
Grad RMS
SciTegic.value.DoubleValue
0.000000

@<SCITEGIC>MOL_PROPERTY
U
SciTegic.value.DoubleValue
4.508

@<SCITEGIC>MOL_PROPERTY
W
SciTegic.value.DoubleValue
-1.981

@<SCITEGIC>MOL_PROPERTY
W(PB)
SciTegic.value.DoubleValue
-3.712

@<SCITEGIC>MOL_PROPERTY
W(SA)
SciTegic.value.DoubleValue
1.732

@<SCITEGIC>MOL_PROPERTY
Valence
SciTegic.value.DoubleValue
14.705

@<SCITEGIC>MOL_PROPERTY
Coulomb
SciTegic.value.DoubleValue
-10.687

@<SCITEGIC>MOL_PROPERTY
VdW
SciTegic.value.DoubleValue
0.490

@<SCITEGIC>MOL_PROPERTY
VdW6
SciTegic.value.DoubleValue
-3.745

@<SCITEGIC>MOL_PROPERTY
VdW12
SciTegic.value.DoubleValue
4.235

@<SCITEGIC>MOL_PROPERTY
Bond
SciTegic.value.DoubleValue
0.068

@<SCITEGIC>MOL_PROPERTY
Angle
SciTegic.value.DoubleValue
3.901

@<SCITEGIC>MOL_PROPERTY
Pdih
SciTegic.value.DoubleValue
10.737

@<SCITEGIC>MOL_PROPERTY
Idih
SciTegic.value.DoubleValue
0.000

@<SCITEGIC>MOL_PROPERTY
Tether
SciTegic.value.DoubleValue
0.000

@<TRIPOS>MOLECULE
guest-4_confgen4.mol2 : confsearch ligand conformer 55
          16          16           1
SMALL
USER_CHARGES
 
@<TRIPOS>ATOM
       1    C1      18.317109   18.355538   21.318846 C.3        1 MOL1        -0.1689
       2    H1      18.731709   17.618498   20.617021 H          1 MOL1         0.0830
       3    H2      17.288126   18.584164   21.009706 H          1 MOL1         0.0830
       4    C2      19.212289   19.602033   21.343988 C.3        1 MOL1        -0.1689
       5    H3      19.583424   19.870294   20.345463 H          1 MOL1         0.0830
       6    H4      18.645840   20.455989   21.740877 H          1 MOL1         0.0830
       7    C3      20.351025   19.236390   22.313597 C.3        1 MOL1        -0.1765
       8    H5      20.750331   20.126238   22.817155 H          1 MOL1         0.0830
       9    H6      21.171485   18.770325   21.751090 H          1 MOL1         0.0830
      10    C4      19.756743   18.231927   23.323332 C.3        1 MOL1         0.1214
      11    H7      19.605864   18.721323   24.296598 H          1 MOL1         0.0787
      12    C5      18.390071   17.799730   22.753030 C.3        1 MOL1        -0.1765
      13    H8      18.256539   16.709845   22.771491 H          1 MOL1         0.0830
      14    H9      17.591636   18.244049   23.361441 H          1 MOL1         0.0830
      15    O1      20.612707   17.103222   23.454632 O.3        1 MOL1        -0.5512
      16    H10     21.464669   17.435971   23.808145 H          1 MOL1         0.3776
@<TRIPOS>BOND
    1     1     2    1
    2     1     3    1
    3     1     4    1
    4     4     5    1
    5     4     6    1
    6     4     7    1
    7     7     8    1
    8     7     9    1
    9     7    10    1
   10    10    11    1
   11     1    12    1
   12    10    12    1
   13    12    13    1
   14    12    14    1
   15    10    15    1
   16    15    16    1
@<TRIPOS>SUBSTRUCTURE
       1 MOL1            1 RESIDUE      1      MOL     
@<SCITEGIC>MOL_PROPERTY
VConf Rank
SciTegic.value.IntegerValue
55

@<SCITEGIC>MOL_PROPERTY
Conf_Id
SciTegic.value.IntegerValue
59

@<SCITEGIC>MOL_PROPERTY
Delta U+W
SciTegic.value.DoubleValue
0.000

@<SCITEGIC>MOL_PROPERTY
U+W
SciTegic.value.DoubleValue
3.010

@<SCITEGIC>MOL_PROPERTY
Grad RMS
SciTegic.value.DoubleValue
0.000000

@<SCITEGIC>MOL_PROPERTY
U
SciTegic.value.DoubleValue
5.843

@<SCITEGIC>MOL_PROPERTY
W
SciTegic.value.DoubleValue
-2.833

@<SCITEGIC>MOL_PROPERTY
W(PB)
SciTegic.value.DoubleValue
-4.568

@<SCITEGIC>MOL_PROPERTY
W(SA)
SciTegic.value.DoubleValue
1.735

@<SCITEGIC>MOL_PROPERTY
Valence
SciTegic.value.DoubleValue
13.789

@<SCITEGIC>MOL_PROPERTY
Coulomb
SciTegic.value.DoubleValue
-8.574

@<SCITEGIC>MOL_PROPERTY
VdW
SciTegic.value.DoubleValue
0.628

@<SCITEGIC>MOL_PROPERTY
VdW6
SciTegic.value.DoubleValue
-3.284

@<SCITEGIC>MOL_PROPERTY
VdW12
SciTegic.value.DoubleValue
3.912

@<SCITEGIC>MOL_PROPERTY
Bond
SciTegic.value.DoubleValue
0.054

@<SCITEGIC>MOL_PROPERTY
Angle
SciTegic.value.DoubleValue
4.034

@<SCITEGIC>MOL_PROPERTY
Pdih
SciTegic.value.DoubleValue
9.702

@<SCITEGIC>MOL_PROPERTY
Idih
SciTegic.value.DoubleValue
0.000

@<SCITEGIC>MOL_PROPERTY
Tether
SciTegic.value.DoubleValue
0.000

@<TRIPOS>MOLECULE
guest-4_confgen4.mol2 : confsearch ligand conformer 56
          16          16           1
SMALL
USER_CHARGES
 
@<TRIPOS>ATOM
       1    C1      18.267746   19.283572   22.747727 C.3        1 MOL1        -0.1689
       2    H1      17.267537   19.039839   23.131048 H          1 MOL1         0.0830
       3    H2      18.421588   20.366552   22.853125 H          1 MOL1         0.0830
       4    C2      18.444862   18.877570   21.278197 C.3        1 MOL1        -0.1689
       5    H3      17.956807   17.908770   21.102387 H          1 MOL1         0.0830
       6    H4      18.012173   19.611698   20.585031 H          1 MOL1         0.0830
       7    C3      19.967078   18.727837   21.100673 C.3        1 MOL1        -0.1765
       8    H5      20.397902   19.688250   20.789095 H          1 MOL1         0.0830
       9    H6      20.213147   17.985733   20.329472 H          1 MOL1         0.0830
      10    C4      20.535664   18.346316   22.483044 C.3        1 MOL1         0.1214
      11    H7      21.363884   19.024607   22.735021 H          1 MOL1         0.0787
      12    C5      19.381465   18.524363   23.491933 C.3        1 MOL1        -0.1765
      13    H8      19.001620   17.544725   23.812571 H          1 MOL1         0.0830
      14    H9      19.708624   19.068581   24.387277 H          1 MOL1         0.0830
      15    O1      20.976970   16.993877   22.475684 O.3        1 MOL1        -0.5512
      16    H10     21.315549   16.803620   23.376071 H          1 MOL1         0.3776
@<TRIPOS>BOND
    1     1     2    1
    2     1     3    1
    3     1     4    1
    4     4     5    1
    5     4     6    1
    6     4     7    1
    7     7     8    1
    8     7     9    1
    9     7    10    1
   10    10    11    1
   11     1    12    1
   12    10    12    1
   13    12    13    1
   14    12    14    1
   15    10    15    1
   16    15    16    1
@<TRIPOS>SUBSTRUCTURE
       1 MOL1            1 RESIDUE      1      MOL     
@<SCITEGIC>MOL_PROPERTY
VConf Rank
SciTegic.value.IntegerValue
56

@<SCITEGIC>MOL_PROPERTY
Conf_Id
SciTegic.value.IntegerValue
33

@<SCITEGIC>MOL_PROPERTY
Delta U+W
SciTegic.value.DoubleValue
0.015

@<SCITEGIC>MOL_PROPERTY
U+W
SciTegic.value.DoubleValue
3.025

@<SCITEGIC>MOL_PROPERTY
Grad RMS
SciTegic.value.DoubleValue
0.000000

@<SCITEGIC>MOL_PROPERTY
U
SciTegic.value.DoubleValue
5.843

@<SCITEGIC>MOL_PROPERTY
W
SciTegic.value.DoubleValue
-2.819

@<SCITEGIC>MOL_PROPERTY
W(PB)
SciTegic.value.DoubleValue
-4.568

@<SCITEGIC>MOL_PROPERTY
W(SA)
SciTegic.value.DoubleValue
1.750

@<SCITEGIC>MOL_PROPERTY
Valence
SciTegic.value.DoubleValue
13.789

@<SCITEGIC>MOL_PROPERTY
Coulomb
SciTegic.value.DoubleValue
-8.574

@<SCITEGIC>MOL_PROPERTY
VdW
SciTegic.value.DoubleValue
0.628

@<SCITEGIC>MOL_PROPERTY
VdW6
SciTegic.value.DoubleValue
-3.284

@<SCITEGIC>MOL_PROPERTY
VdW12
SciTegic.value.DoubleValue
3.913

@<SCITEGIC>MOL_PROPERTY
Bond
SciTegic.value.DoubleValue
0.054

@<SCITEGIC>MOL_PROPERTY
Angle
SciTegic.value.DoubleValue
4.033

@<SCITEGIC>MOL_PROPERTY
Pdih
SciTegic.value.DoubleValue
9.702

@<SCITEGIC>MOL_PROPERTY
Idih
SciTegic.value.DoubleValue
0.000

@<SCITEGIC>MOL_PROPERTY
Tether
SciTegic.value.DoubleValue
0.000

@<TRIPOS>MOLECULE
guest-4_confgen4.mol2 : confsearch ligand conformer 57
          16          16           1
SMALL
USER_CHARGES
 
@<TRIPOS>ATOM
       1    C1      18.200572   18.100414   22.629797 C.3        1 MOL1        -0.1689
       2    H1      17.331202   18.693294   22.313701 H          1 MOL1         0.0830
       3    H2      17.825118   17.218064   23.165979 H          1 MOL1         0.0830
       4    C2      19.124003   18.957372   23.523061 C.3        1 MOL1        -0.1689
       5    H3      18.701022   19.964648   23.640145 H          1 MOL1         0.0830
       6    H4      19.232414   18.522739   24.526226 H          1 MOL1         0.0830
       7    C3      20.485928   19.031682   22.800513 C.3        1 MOL1        -0.1765
       8    H5      21.167219   18.281877   23.223899 H          1 MOL1         0.0830
       9    H6      20.961995   20.015255   22.909824 H          1 MOL1         0.0830
      10    C4      20.208203   18.680239   21.332743 C.3        1 MOL1         0.1214
      11    H7      21.089591   18.234369   20.849692 H          1 MOL1         0.0787
      12    C5      19.039545   17.688043   21.401615 C.3        1 MOL1        -0.1765
      13    H8      18.447065   17.678324   20.477020 H          1 MOL1         0.0830
      14    H9      19.439040   16.676566   21.553077 H          1 MOL1         0.0830
      15    O1      19.789454   19.848959   20.643143 O.3        1 MOL1        -0.5512
      16    H10     19.009384   20.171919   21.139479 H          1 MOL1         0.3776
@<TRIPOS>BOND
    1     1     2    1
    2     1     3    1
    3     1     4    1
    4     4     5    1
    5     4     6    1
    6     4     7    1
    7     7     8    1
    8     7     9    1
    9     7    10    1
   10    10    11    1
   11     1    12    1
   12    10    12    1
   13    12    13    1
   14    12    14    1
   15    10    15    1
   16    15    16    1
@<TRIPOS>SUBSTRUCTURE
       1 MOL1            1 RESIDUE      1      MOL     
@<SCITEGIC>MOL_PROPERTY
VConf Rank
SciTegic.value.IntegerValue
57

@<SCITEGIC>MOL_PROPERTY
Conf_Id
SciTegic.value.IntegerValue
20

@<SCITEGIC>MOL_PROPERTY
Delta U+W
SciTegic.value.DoubleValue
-0.483

@<SCITEGIC>MOL_PROPERTY
U+W
SciTegic.value.DoubleValue
2.527

@<SCITEGIC>MOL_PROPERTY
Grad RMS
SciTegic.value.DoubleValue
0.000000

@<SCITEGIC>MOL_PROPERTY
U
SciTegic.value.DoubleValue
4.508

@<SCITEGIC>MOL_PROPERTY
W
SciTegic.value.DoubleValue
-1.981

@<SCITEGIC>MOL_PROPERTY
W(PB)
SciTegic.value.DoubleValue
-3.712

@<SCITEGIC>MOL_PROPERTY
W(SA)
SciTegic.value.DoubleValue
1.732

@<SCITEGIC>MOL_PROPERTY
Valence
SciTegic.value.DoubleValue
14.705

@<SCITEGIC>MOL_PROPERTY
Coulomb
SciTegic.value.DoubleValue
-10.687

@<SCITEGIC>MOL_PROPERTY
VdW
SciTegic.value.DoubleValue
0.490

@<SCITEGIC>MOL_PROPERTY
VdW6
SciTegic.value.DoubleValue
-3.745

@<SCITEGIC>MOL_PROPERTY
VdW12
SciTegic.value.DoubleValue
4.235

@<SCITEGIC>MOL_PROPERTY
Bond
SciTegic.value.DoubleValue
0.068

@<SCITEGIC>MOL_PROPERTY
Angle
SciTegic.value.DoubleValue
3.901

@<SCITEGIC>MOL_PROPERTY
Pdih
SciTegic.value.DoubleValue
10.737

@<SCITEGIC>MOL_PROPERTY
Idih
SciTegic.value.DoubleValue
0.000

@<SCITEGIC>MOL_PROPERTY
Tether
SciTegic.value.DoubleValue
0.000

@<TRIPOS>MOLECULE
guest-4_confgen4.mol2 : confsearch ligand conformer 58
          16          16           1
SMALL
USER_CHARGES
 
@<TRIPOS>ATOM
       1    C1      20.167303   19.027241   23.425472 C.3        1 MOL1        -0.1689
       2    H1      20.304731   20.101643   23.239861 H          1 MOL1         0.0830
       3    H2      20.642530   18.780162   24.384511 H          1 MOL1         0.0830
       4    C2      20.753971   18.224163   22.256449 C.3        1 MOL1        -0.1689
       5    H3      21.696285   18.651285   21.887166 H          1 MOL1         0.0830
       6    H4      20.947539   17.191268   22.577827 H          1 MOL1         0.0830
       7    C3      19.645751   18.238168   21.187707 C.3        1 MOL1        -0.1765
       8    H5      19.683661   17.339379   20.558751 H          1 MOL1         0.0830
       9    H6      19.780722   19.112066   20.535887 H          1 MOL1         0.0830
      10    C4      18.307796   18.341135   21.949911 C.3        1 MOL1         0.1214
      11    H7      17.784875   17.373956   21.924680 H          1 MOL1         0.0787
      12    C5      18.665088   18.689261   23.409700 C.3        1 MOL1        -0.1765
      13    H8      18.060085   19.518246   23.800566 H          1 MOL1         0.0830
      14    H9      18.478076   17.812232   24.042888 H          1 MOL1         0.0830
      15    O1      17.498631   19.365889   21.385093 O.3        1 MOL1        -0.5512
      16    H10     17.312523   19.099441   20.459943 H          1 MOL1         0.3776
@<TRIPOS>BOND
    1     1     2    1
    2     1     3    1
    3     1     4    1
    4     4     5    1
    5     4     6    1
    6     4     7    1
    7     7     8    1
    8     7     9    1
    9     7    10    1
   10    10    11    1
   11     1    12    1
   12    10    12    1
   13    12    13    1
   14    12    14    1
   15    10    15    1
   16    15    16    1
@<TRIPOS>SUBSTRUCTURE
       1 MOL1            1 RESIDUE      1      MOL     
@<SCITEGIC>MOL_PROPERTY
VConf Rank
SciTegic.value.IntegerValue
58

@<SCITEGIC>MOL_PROPERTY
Conf_Id
SciTegic.value.IntegerValue
59

@<SCITEGIC>MOL_PROPERTY
Delta U+W
SciTegic.value.DoubleValue
0.000

@<SCITEGIC>MOL_PROPERTY
U+W
SciTegic.value.DoubleValue
3.010

@<SCITEGIC>MOL_PROPERTY
Grad RMS
SciTegic.value.DoubleValue
0.000000

@<SCITEGIC>MOL_PROPERTY
U
SciTegic.value.DoubleValue
5.843

@<SCITEGIC>MOL_PROPERTY
W
SciTegic.value.DoubleValue
-2.833

@<SCITEGIC>MOL_PROPERTY
W(PB)
SciTegic.value.DoubleValue
-4.568

@<SCITEGIC>MOL_PROPERTY
W(SA)
SciTegic.value.DoubleValue
1.735

@<SCITEGIC>MOL_PROPERTY
Valence
SciTegic.value.DoubleValue
13.789

@<SCITEGIC>MOL_PROPERTY
Coulomb
SciTegic.value.DoubleValue
-8.574

@<SCITEGIC>MOL_PROPERTY
VdW
SciTegic.value.DoubleValue
0.628

@<SCITEGIC>MOL_PROPERTY
VdW6
SciTegic.value.DoubleValue
-3.284

@<SCITEGIC>MOL_PROPERTY
VdW12
SciTegic.value.DoubleValue
3.912

@<SCITEGIC>MOL_PROPERTY
Bond
SciTegic.value.DoubleValue
0.054

@<SCITEGIC>MOL_PROPERTY
Angle
SciTegic.value.DoubleValue
4.034

@<SCITEGIC>MOL_PROPERTY
Pdih
SciTegic.value.DoubleValue
9.702

@<SCITEGIC>MOL_PROPERTY
Idih
SciTegic.value.DoubleValue
0.000

@<SCITEGIC>MOL_PROPERTY
Tether
SciTegic.value.DoubleValue
0.000

@<TRIPOS>MOLECULE
guest-4_confgen4.mol2 : confsearch ligand conformer 59
          16          16           1
SMALL
USER_CHARGES
 
@<TRIPOS>ATOM
       1    C1      20.349754   19.730188   22.362141 C.3        1 MOL1        -0.1689
       2    H1      20.725981   20.537520   21.719158 H          1 MOL1         0.0830
       3    H2      20.696725   19.917868   23.387816 H          1 MOL1         0.0830
       4    C2      20.826579   18.346103   21.900973 C.3        1 MOL1        -0.1689
       5    H3      20.804625   18.295853   20.803397 H          1 MOL1         0.0830
       6    H4      21.848524   18.121506   22.235377 H          1 MOL1         0.0830
       7    C3      19.789533   17.367783   22.482783 C.3        1 MOL1        -0.1765
       8    H5      20.110139   17.041513   23.480703 H          1 MOL1         0.0830
       9    H6      19.683258   16.471764   21.856784 H          1 MOL1         0.0830
      10    C4      18.467734   18.152805   22.610781 C.3        1 MOL1         0.1214
      11    H7      18.074197   18.037724   23.631274 H          1 MOL1         0.0787
      12    C5      18.813306   19.632630   22.341646 C.3        1 MOL1        -0.1765
      13    H8      18.443176   19.936236   21.352905 H          1 MOL1         0.0830
      14    H9      18.359339   20.295399   23.089641 H          1 MOL1         0.0830
      15    O1      17.525517   17.686571   21.652267 O.3        1 MOL1        -0.5512
      16    H10     16.714229   18.224449   21.770713 H          1 MOL1         0.3776
@<TRIPOS>BOND
    1     1     2    1
    2     1     3    1
    3     1     4    1
    4     4     5    1
    5     4     6    1
    6     4     7    1
    7     7     8    1
    8     7     9    1
    9     7    10    1
   10    10    11    1
   11     1    12    1
   12    10    12    1
   13    12    13    1
   14    12    14    1
   15    10    15    1
   16    15    16    1
@<TRIPOS>SUBSTRUCTURE
       1 MOL1            1 RESIDUE      1      MOL     
@<SCITEGIC>MOL_PROPERTY
VConf Rank
SciTegic.value.IntegerValue
59

@<SCITEGIC>MOL_PROPERTY
Conf_Id
SciTegic.value.IntegerValue
33

@<SCITEGIC>MOL_PROPERTY
Delta U+W
SciTegic.value.DoubleValue
0.015

@<SCITEGIC>MOL_PROPERTY
U+W
SciTegic.value.DoubleValue
3.025

@<SCITEGIC>MOL_PROPERTY
Grad RMS
SciTegic.value.DoubleValue
0.000000

@<SCITEGIC>MOL_PROPERTY
U
SciTegic.value.DoubleValue
5.843

@<SCITEGIC>MOL_PROPERTY
W
SciTegic.value.DoubleValue
-2.819

@<SCITEGIC>MOL_PROPERTY
W(PB)
SciTegic.value.DoubleValue
-4.568

@<SCITEGIC>MOL_PROPERTY
W(SA)
SciTegic.value.DoubleValue
1.750

@<SCITEGIC>MOL_PROPERTY
Valence
SciTegic.value.DoubleValue
13.789

@<SCITEGIC>MOL_PROPERTY
Coulomb
SciTegic.value.DoubleValue
-8.574

@<SCITEGIC>MOL_PROPERTY
VdW
SciTegic.value.DoubleValue
0.628

@<SCITEGIC>MOL_PROPERTY
VdW6
SciTegic.value.DoubleValue
-3.284

@<SCITEGIC>MOL_PROPERTY
VdW12
SciTegic.value.DoubleValue
3.913

@<SCITEGIC>MOL_PROPERTY
Bond
SciTegic.value.DoubleValue
0.054

@<SCITEGIC>MOL_PROPERTY
Angle
SciTegic.value.DoubleValue
4.033

@<SCITEGIC>MOL_PROPERTY
Pdih
SciTegic.value.DoubleValue
9.702

@<SCITEGIC>MOL_PROPERTY
Idih
SciTegic.value.DoubleValue
0.000

@<SCITEGIC>MOL_PROPERTY
Tether
SciTegic.value.DoubleValue
0.000

@<TRIPOS>MOLECULE
guest-4_confgen4.mol2 : confsearch ligand conformer 60
          16          16           1
SMALL
USER_CHARGES
 
@<TRIPOS>ATOM
       1    C1      20.077559   18.178728   23.311542 C.3        1 MOL1        -0.1689
       2    H1      20.906463   18.837697   23.604637 H          1 MOL1         0.0830
       3    H2      20.059818   17.333339   24.012970 H          1 MOL1         0.0830
       4    C2      20.273644   17.704146   21.855059 C.3        1 MOL1        -0.1689
       5    H3      21.197977   18.132571   21.443615 H          1 MOL1         0.0830
       6    H4      20.357459   16.610388   21.794484 H          1 MOL1         0.0830
       7    C3      19.051195   18.211682   21.061043 C.3        1 MOL1        -0.1765
       8    H5      18.310408   17.405968   20.973400 H          1 MOL1         0.0830
       9    H6      19.318421   18.531829   20.045119 H          1 MOL1         0.0830
      10    C4      18.449494   19.353682   21.890974 C.3        1 MOL1         0.1214
      11    H7      17.369958   19.459428   21.710962 H          1 MOL1         0.0787
      12    C5      18.743374   18.954167   23.343206 C.3        1 MOL1        -0.1765
      13    H8      18.782641   19.822913   24.013835 H          1 MOL1         0.0830
      14    H9      17.942930   18.292620   23.699952 H          1 MOL1         0.0830
      15    O1      19.133911   20.561184   21.590442 O.3        1 MOL1        -0.5512
      16    H10     20.076501   20.373420   21.778674 H          1 MOL1         0.3776
@<TRIPOS>BOND
    1     1     2    1
    2     1     3    1
    3     1     4    1
    4     4     5    1
    5     4     6    1
    6     4     7    1
    7     7     8    1
    8     7     9    1
    9     7    10    1
   10    10    11    1
   11     1    12    1
   12    10    12    1
   13    12    13    1
   14    12    14    1
   15    10    15    1
   16    15    16    1
@<TRIPOS>SUBSTRUCTURE
       1 MOL1            1 RESIDUE      1      MOL     
@<SCITEGIC>MOL_PROPERTY
VConf Rank
SciTegic.value.IntegerValue
60

@<SCITEGIC>MOL_PROPERTY
Conf_Id
SciTegic.value.IntegerValue
20

@<SCITEGIC>MOL_PROPERTY
Delta U+W
SciTegic.value.DoubleValue
-0.483

@<SCITEGIC>MOL_PROPERTY
U+W
SciTegic.value.DoubleValue
2.527

@<SCITEGIC>MOL_PROPERTY
Grad RMS
SciTegic.value.DoubleValue
0.000000

@<SCITEGIC>MOL_PROPERTY
U
SciTegic.value.DoubleValue
4.508

@<SCITEGIC>MOL_PROPERTY
W
SciTegic.value.DoubleValue
-1.981

@<SCITEGIC>MOL_PROPERTY
W(PB)
SciTegic.value.DoubleValue
-3.712

@<SCITEGIC>MOL_PROPERTY
W(SA)
SciTegic.value.DoubleValue
1.732

@<SCITEGIC>MOL_PROPERTY
Valence
SciTegic.value.DoubleValue
14.705

@<SCITEGIC>MOL_PROPERTY
Coulomb
SciTegic.value.DoubleValue
-10.687

@<SCITEGIC>MOL_PROPERTY
VdW
SciTegic.value.DoubleValue
0.490

@<SCITEGIC>MOL_PROPERTY
VdW6
SciTegic.value.DoubleValue
-3.745

@<SCITEGIC>MOL_PROPERTY
VdW12
SciTegic.value.DoubleValue
4.235

@<SCITEGIC>MOL_PROPERTY
Bond
SciTegic.value.DoubleValue
0.068

@<SCITEGIC>MOL_PROPERTY
Angle
SciTegic.value.DoubleValue
3.901

@<SCITEGIC>MOL_PROPERTY
Pdih
SciTegic.value.DoubleValue
10.737

@<SCITEGIC>MOL_PROPERTY
Idih
SciTegic.value.DoubleValue
0.000

@<SCITEGIC>MOL_PROPERTY
Tether
SciTegic.value.DoubleValue
0.000

@<TRIPOS>MOLECULE
guest-4_confgen4.mol2 : confsearch ligand conformer 61
          16          16           1
SMALL
USER_CHARGES
 
@<TRIPOS>ATOM
       1    C1      19.093757   18.746726   20.897559 C.3        1 MOL1        -0.1689
       2    H1      19.892561   18.195716   20.381828 H          1 MOL1         0.0830
       3    H2      18.412509   19.155455   20.138951 H          1 MOL1         0.0830
       4    C2      19.710567   19.839575   21.781276 C.3        1 MOL1        -0.1689
       5    H3      20.563434   20.335727   21.298358 H          1 MOL1         0.0830
       6    H4      18.952969   20.602438   22.008676 H          1 MOL1         0.0830
       7    C3      20.114422   19.105236   23.072866 C.3        1 MOL1        -0.1765
       8    H5      20.081204   19.774740   23.942065 H          1 MOL1         0.0830
       9    H6      21.143160   18.733156   22.972675 H          1 MOL1         0.0830
      10    C4      19.131755   17.925380   23.227739 C.3        1 MOL1         0.1214
      11    H7      18.412656   18.137625   24.032330 H          1 MOL1         0.0787
      12    C5      18.377045   17.809742   21.887263 C.3        1 MOL1        -0.1765
      13    H8      18.344468   16.777085   21.514999 H          1 MOL1         0.0830
      14    H9      17.341754   18.146056   22.029203 H          1 MOL1         0.0830
      15    O1      19.845368   16.723873   23.494247 O.3        1 MOL1        -0.5512
      16    H10     20.311934   16.857005   24.346377 H          1 MOL1         0.3776
@<TRIPOS>BOND
    1     1     2    1
    2     1     3    1
    3     1     4    1
    4     4     5    1
    5     4     6    1
    6     4     7    1
    7     7     8    1
    8     7     9    1
    9     7    10    1
   10    10    11    1
   11     1    12    1
   12    10    12    1
   13    12    13    1
   14    12    14    1
   15    10    15    1
   16    15    16    1
@<TRIPOS>SUBSTRUCTURE
       1 MOL1            1 RESIDUE      1      MOL     
@<SCITEGIC>MOL_PROPERTY
VConf Rank
SciTegic.value.IntegerValue
61

@<SCITEGIC>MOL_PROPERTY
Conf_Id
SciTegic.value.IntegerValue
59

@<SCITEGIC>MOL_PROPERTY
Delta U+W
SciTegic.value.DoubleValue
0.000

@<SCITEGIC>MOL_PROPERTY
U+W
SciTegic.value.DoubleValue
3.010

@<SCITEGIC>MOL_PROPERTY
Grad RMS
SciTegic.value.DoubleValue
0.000000

@<SCITEGIC>MOL_PROPERTY
U
SciTegic.value.DoubleValue
5.843

@<SCITEGIC>MOL_PROPERTY
W
SciTegic.value.DoubleValue
-2.833

@<SCITEGIC>MOL_PROPERTY
W(PB)
SciTegic.value.DoubleValue
-4.568

@<SCITEGIC>MOL_PROPERTY
W(SA)
SciTegic.value.DoubleValue
1.735

@<SCITEGIC>MOL_PROPERTY
Valence
SciTegic.value.DoubleValue
13.789

@<SCITEGIC>MOL_PROPERTY
Coulomb
SciTegic.value.DoubleValue
-8.574

@<SCITEGIC>MOL_PROPERTY
VdW
SciTegic.value.DoubleValue
0.628

@<SCITEGIC>MOL_PROPERTY
VdW6
SciTegic.value.DoubleValue
-3.284

@<SCITEGIC>MOL_PROPERTY
VdW12
SciTegic.value.DoubleValue
3.912

@<SCITEGIC>MOL_PROPERTY
Bond
SciTegic.value.DoubleValue
0.054

@<SCITEGIC>MOL_PROPERTY
Angle
SciTegic.value.DoubleValue
4.034

@<SCITEGIC>MOL_PROPERTY
Pdih
SciTegic.value.DoubleValue
9.702

@<SCITEGIC>MOL_PROPERTY
Idih
SciTegic.value.DoubleValue
0.000

@<SCITEGIC>MOL_PROPERTY
Tether
SciTegic.value.DoubleValue
0.000

@<TRIPOS>MOLECULE
guest-4_confgen4.mol2 : confsearch ligand conformer 62
          16          16           1
SMALL
USER_CHARGES
 
@<TRIPOS>ATOM
       1    C1      19.903785   17.317670   21.867478 C.3        1 MOL1        -0.1689
       2    H1      19.540672   16.281805   21.823980 H          1 MOL1         0.0830
       3    H2      20.855819   17.371244   21.321234 H          1 MOL1         0.0830
       4    C2      20.107284   17.805108   23.308561 C.3        1 MOL1        -0.1689
       5    H3      19.291891   17.430155   23.942771 H          1 MOL1         0.0830
       6    H4      21.060155   17.464584   23.736024 H          1 MOL1         0.0830
       7    C3      20.021516   19.339510   23.211970 C.3        1 MOL1        -0.1765
       8    H5      21.021833   19.753744   23.030698 H          1 MOL1         0.0830
       9    H6      19.640255   19.782484   24.141720 H          1 MOL1         0.0830
      10    C4      19.119679   19.654210   22.000585 C.3        1 MOL1         0.1214
      11    H7      19.634031   20.367699   21.340362 H          1 MOL1         0.0787
      12    C5      18.899679   18.316371   21.263345 C.3        1 MOL1        -0.1765
      13    H8      17.877519   17.951614   21.433410 H          1 MOL1         0.0830
      14    H9      19.043368   18.424103   20.180481 H          1 MOL1         0.0830
      15    O1      17.874310   20.182912   22.440389 O.3        1 MOL1        -0.5512
      16    H10     17.340819   20.352699   21.635349 H          1 MOL1         0.3776
@<TRIPOS>BOND
    1     1     2    1
    2     1     3    1
    3     1     4    1
    4     4     5    1
    5     4     6    1
    6     4     7    1
    7     7     8    1
    8     7     9    1
    9     7    10    1
   10    10    11    1
   11     1    12    1
   12    10    12    1
   13    12    13    1
   14    12    14    1
   15    10    15    1
   16    15    16    1
@<TRIPOS>SUBSTRUCTURE
       1 MOL1            1 RESIDUE      1      MOL     
@<SCITEGIC>MOL_PROPERTY
VConf Rank
SciTegic.value.IntegerValue
62

@<SCITEGIC>MOL_PROPERTY
Conf_Id
SciTegic.value.IntegerValue
33

@<SCITEGIC>MOL_PROPERTY
Delta U+W
SciTegic.value.DoubleValue
0.015

@<SCITEGIC>MOL_PROPERTY
U+W
SciTegic.value.DoubleValue
3.025

@<SCITEGIC>MOL_PROPERTY
Grad RMS
SciTegic.value.DoubleValue
0.000000

@<SCITEGIC>MOL_PROPERTY
U
SciTegic.value.DoubleValue
5.843

@<SCITEGIC>MOL_PROPERTY
W
SciTegic.value.DoubleValue
-2.819

@<SCITEGIC>MOL_PROPERTY
W(PB)
SciTegic.value.DoubleValue
-4.568

@<SCITEGIC>MOL_PROPERTY
W(SA)
SciTegic.value.DoubleValue
1.750

@<SCITEGIC>MOL_PROPERTY
Valence
SciTegic.value.DoubleValue
13.789

@<SCITEGIC>MOL_PROPERTY
Coulomb
SciTegic.value.DoubleValue
-8.574

@<SCITEGIC>MOL_PROPERTY
VdW
SciTegic.value.DoubleValue
0.628

@<SCITEGIC>MOL_PROPERTY
VdW6
SciTegic.value.DoubleValue
-3.284

@<SCITEGIC>MOL_PROPERTY
VdW12
SciTegic.value.DoubleValue
3.913

@<SCITEGIC>MOL_PROPERTY
Bond
SciTegic.value.DoubleValue
0.054

@<SCITEGIC>MOL_PROPERTY
Angle
SciTegic.value.DoubleValue
4.033

@<SCITEGIC>MOL_PROPERTY
Pdih
SciTegic.value.DoubleValue
9.702

@<SCITEGIC>MOL_PROPERTY
Idih
SciTegic.value.DoubleValue
0.000

@<SCITEGIC>MOL_PROPERTY
Tether
SciTegic.value.DoubleValue
0.000

@<TRIPOS>MOLECULE
guest-4_confgen4.mol2 : confsearch ligand conformer 63
          16          16           1
SMALL
USER_CHARGES
 
@<TRIPOS>ATOM
       1    C1      20.165817   17.766504   21.585228 C.3        1 MOL1        -0.1689
       2    H1      21.035745   17.409385   22.153487 H          1 MOL1         0.0830
       3    H2      20.195195   17.289441   20.596014 H          1 MOL1         0.0830
       4    C2      20.206877   19.306336   21.474533 C.3        1 MOL1        -0.1689
       5    H3      21.097217   19.694365   21.988298 H          1 MOL1         0.0830
       6    H4      20.256709   19.634796   20.427332 H          1 MOL1         0.0830
       7    C3      18.926049   19.828669   22.159429 C.3        1 MOL1        -0.1765
       8    H5      18.160116   20.031334   21.399236 H          1 MOL1         0.0830
       9    H6      19.100941   20.760175   22.714150 H          1 MOL1         0.0830
      10    C4      18.437211   18.693496   23.069052 C.3        1 MOL1         0.1214
      11    H7      17.348287   18.733314   23.216163 H          1 MOL1         0.0787
      12    C5      18.861111   17.416121   22.331774 C.3        1 MOL1        -0.1765
      13    H8      18.987538   16.564697   23.013754 H          1 MOL1         0.0830
      14    H9      18.082803   17.149136   21.604740 H          1 MOL1         0.0830
      15    O1      19.119366   18.763967   24.312637 O.3        1 MOL1        -0.5512
      16    H10     20.070770   18.722026   24.084088 H          1 MOL1         0.3776
@<TRIPOS>BOND
    1     1     2    1
    2     1     3    1
    3     1     4    1
    4     4     5    1
    5     4     6    1
    6     4     7    1
    7     7     8    1
    8     7     9    1
    9     7    10    1
   10    10    11    1
   11     1    12    1
   12    10    12    1
   13    12    13    1
   14    12    14    1
   15    10    15    1
   16    15    16    1
@<TRIPOS>SUBSTRUCTURE
       1 MOL1            1 RESIDUE      1      MOL     
@<SCITEGIC>MOL_PROPERTY
VConf Rank
SciTegic.value.IntegerValue
63

@<SCITEGIC>MOL_PROPERTY
Conf_Id
SciTegic.value.IntegerValue
20

@<SCITEGIC>MOL_PROPERTY
Delta U+W
SciTegic.value.DoubleValue
-0.483

@<SCITEGIC>MOL_PROPERTY
U+W
SciTegic.value.DoubleValue
2.527

@<SCITEGIC>MOL_PROPERTY
Grad RMS
SciTegic.value.DoubleValue
0.000000

@<SCITEGIC>MOL_PROPERTY
U
SciTegic.value.DoubleValue
4.508

@<SCITEGIC>MOL_PROPERTY
W
SciTegic.value.DoubleValue
-1.981

@<SCITEGIC>MOL_PROPERTY
W(PB)
SciTegic.value.DoubleValue
-3.712

@<SCITEGIC>MOL_PROPERTY
W(SA)
SciTegic.value.DoubleValue
1.732

@<SCITEGIC>MOL_PROPERTY
Valence
SciTegic.value.DoubleValue
14.705

@<SCITEGIC>MOL_PROPERTY
Coulomb
SciTegic.value.DoubleValue
-10.687

@<SCITEGIC>MOL_PROPERTY
VdW
SciTegic.value.DoubleValue
0.490

@<SCITEGIC>MOL_PROPERTY
VdW6
SciTegic.value.DoubleValue
-3.745

@<SCITEGIC>MOL_PROPERTY
VdW12
SciTegic.value.DoubleValue
4.235

@<SCITEGIC>MOL_PROPERTY
Bond
SciTegic.value.DoubleValue
0.068

@<SCITEGIC>MOL_PROPERTY
Angle
SciTegic.value.DoubleValue
3.901

@<SCITEGIC>MOL_PROPERTY
Pdih
SciTegic.value.DoubleValue
10.737

@<SCITEGIC>MOL_PROPERTY
Idih
SciTegic.value.DoubleValue
0.000

@<SCITEGIC>MOL_PROPERTY
Tether
SciTegic.value.DoubleValue
0.000

@<TRIPOS>MOLECULE
guest-4_confgen4.mol2 : confsearch ligand conformer 64
          16          16           1
SMALL
USER_CHARGES
 
@<TRIPOS>ATOM
       1    C1      18.835283   17.491427   23.157427 C.3        1 MOL1        -0.1689
       2    H1      19.471844   17.500168   24.053189 H          1 MOL1         0.0830
       3    H2      18.051392   16.735176   23.299702 H          1 MOL1         0.0830
       4    C2      19.696555   17.216780   21.917061 C.3        1 MOL1        -0.1689
       5    H3      20.473105   16.463092   22.105961 H          1 MOL1         0.0830
       6    H4      19.059739   16.856002   21.097348 H          1 MOL1         0.0830
       7    C3      20.289339   18.589696   21.550638 C.3        1 MOL1        -0.1765
       8    H5      20.479836   18.669562   20.472594 H          1 MOL1         0.0830
       9    H6      21.246342   18.723332   22.073201 H          1 MOL1         0.0830
      10    C4      19.268574   19.645026   22.026029 C.3        1 MOL1         0.1214
      11    H7      18.740765   20.074156   21.161863 H          1 MOL1         0.0787
      12    C5      18.257760   18.899242   22.921514 C.3        1 MOL1        -0.1765
      13    H8      18.072960   19.424249   23.868213 H          1 MOL1         0.0830
      14    H9      17.299829   18.820416   22.391197 H          1 MOL1         0.0830
      15    O1      19.925990   20.663275   22.770921 O.3        1 MOL1        -0.5512
      16    H10     20.560253   21.093936   22.159551 H          1 MOL1         0.3776
@<TRIPOS>BOND
    1     1     2    1
    2     1     3    1
    3     1     4    1
    4     4     5    1
    5     4     6    1
    6     4     7    1
    7     7     8    1
    8     7     9    1
    9     7    10    1
   10    10    11    1
   11     1    12    1
   12    10    12    1
   13    12    13    1
   14    12    14    1
   15    10    15    1
   16    15    16    1
@<TRIPOS>SUBSTRUCTURE
       1 MOL1            1 RESIDUE      1      MOL     
@<SCITEGIC>MOL_PROPERTY
VConf Rank
SciTegic.value.IntegerValue
64

@<SCITEGIC>MOL_PROPERTY
Conf_Id
SciTegic.value.IntegerValue
59

@<SCITEGIC>MOL_PROPERTY
Delta U+W
SciTegic.value.DoubleValue
0.000

@<SCITEGIC>MOL_PROPERTY
U+W
SciTegic.value.DoubleValue
3.010

@<SCITEGIC>MOL_PROPERTY
Grad RMS
SciTegic.value.DoubleValue
0.000000

@<SCITEGIC>MOL_PROPERTY
U
SciTegic.value.DoubleValue
5.843

@<SCITEGIC>MOL_PROPERTY
W
SciTegic.value.DoubleValue
-2.833

@<SCITEGIC>MOL_PROPERTY
W(PB)
SciTegic.value.DoubleValue
-4.568

@<SCITEGIC>MOL_PROPERTY
W(SA)
SciTegic.value.DoubleValue
1.735

@<SCITEGIC>MOL_PROPERTY
Valence
SciTegic.value.DoubleValue
13.789

@<SCITEGIC>MOL_PROPERTY
Coulomb
SciTegic.value.DoubleValue
-8.574

@<SCITEGIC>MOL_PROPERTY
VdW
SciTegic.value.DoubleValue
0.628

@<SCITEGIC>MOL_PROPERTY
VdW6
SciTegic.value.DoubleValue
-3.284

@<SCITEGIC>MOL_PROPERTY
VdW12
SciTegic.value.DoubleValue
3.912

@<SCITEGIC>MOL_PROPERTY
Bond
SciTegic.value.DoubleValue
0.054

@<SCITEGIC>MOL_PROPERTY
Angle
SciTegic.value.DoubleValue
4.034

@<SCITEGIC>MOL_PROPERTY
Pdih
SciTegic.value.DoubleValue
9.702

@<SCITEGIC>MOL_PROPERTY
Idih
SciTegic.value.DoubleValue
0.000

@<SCITEGIC>MOL_PROPERTY
Tether
SciTegic.value.DoubleValue
0.000

@<TRIPOS>MOLECULE
guest-4_confgen4.mol2 : confsearch ligand conformer 65
          16          16           1
SMALL
USER_CHARGES
 
@<TRIPOS>ATOM
       1    C1      18.925852   17.995473   21.107798 C.3        1 MOL1        -0.1689
       2    H1      18.018007   17.475702   20.772515 H          1 MOL1         0.0830
       3    H2      19.561018   18.178511   20.229914 H          1 MOL1         0.0830
       4    C2      19.708891   17.188236   22.152282 C.3        1 MOL1        -0.1689
       5    H3      19.006937   16.703553   22.845117 H          1 MOL1         0.0830
       6    H4      20.335881   16.409626   21.696988 H          1 MOL1         0.0830
       7    C3      20.537744   18.241207   22.910789 C.3        1 MOL1        -0.1765
       8    H5      21.510513   18.368977   22.418367 H          1 MOL1         0.0830
       9    H6      20.726542   17.936182   23.948736 H          1 MOL1         0.0830
      10    C4      19.751922   19.565841   22.823465 C.3        1 MOL1         0.1214
      11    H7      20.419227   20.360846   22.459884 H          1 MOL1         0.0787
      12    C5      18.611823   19.328879   21.810668 C.3        1 MOL1        -0.1765
      13    H8      17.649261   19.246045   22.333539 H          1 MOL1         0.0830
      14    H9      18.534286   20.153445   21.090303 H          1 MOL1         0.0830
      15    O1      19.214978   19.902545   24.097128 O.3        1 MOL1        -0.5512
      16    H10     18.719735   20.740845   23.980868 H          1 MOL1         0.3776
@<TRIPOS>BOND
    1     1     2    1
    2     1     3    1
    3     1     4    1
    4     4     5    1
    5     4     6    1
    6     4     7    1
    7     7     8    1
    8     7     9    1
    9     7    10    1
   10    10    11    1
   11     1    12    1
   12    10    12    1
   13    12    13    1
   14    12    14    1
   15    10    15    1
   16    15    16    1
@<TRIPOS>SUBSTRUCTURE
       1 MOL1            1 RESIDUE      1      MOL     
@<SCITEGIC>MOL_PROPERTY
VConf Rank
SciTegic.value.IntegerValue
65

@<SCITEGIC>MOL_PROPERTY
Conf_Id
SciTegic.value.IntegerValue
33

@<SCITEGIC>MOL_PROPERTY
Delta U+W
SciTegic.value.DoubleValue
0.015

@<SCITEGIC>MOL_PROPERTY
U+W
SciTegic.value.DoubleValue
3.025

@<SCITEGIC>MOL_PROPERTY
Grad RMS
SciTegic.value.DoubleValue
0.000000

@<SCITEGIC>MOL_PROPERTY
U
SciTegic.value.DoubleValue
5.843

@<SCITEGIC>MOL_PROPERTY
W
SciTegic.value.DoubleValue
-2.819

@<SCITEGIC>MOL_PROPERTY
W(PB)
SciTegic.value.DoubleValue
-4.568

@<SCITEGIC>MOL_PROPERTY
W(SA)
SciTegic.value.DoubleValue
1.750

@<SCITEGIC>MOL_PROPERTY
Valence
SciTegic.value.DoubleValue
13.789

@<SCITEGIC>MOL_PROPERTY
Coulomb
SciTegic.value.DoubleValue
-8.574

@<SCITEGIC>MOL_PROPERTY
VdW
SciTegic.value.DoubleValue
0.628

@<SCITEGIC>MOL_PROPERTY
VdW6
SciTegic.value.DoubleValue
-3.284

@<SCITEGIC>MOL_PROPERTY
VdW12
SciTegic.value.DoubleValue
3.913

@<SCITEGIC>MOL_PROPERTY
Bond
SciTegic.value.DoubleValue
0.054

@<SCITEGIC>MOL_PROPERTY
Angle
SciTegic.value.DoubleValue
4.033

@<SCITEGIC>MOL_PROPERTY
Pdih
SciTegic.value.DoubleValue
9.702

@<SCITEGIC>MOL_PROPERTY
Idih
SciTegic.value.DoubleValue
0.000

@<SCITEGIC>MOL_PROPERTY
Tether
SciTegic.value.DoubleValue
0.000

@<TRIPOS>MOLECULE
guest-4_confgen4.mol2 : confsearch ligand conformer 66
          16          16           1
SMALL
USER_CHARGES
 
@<TRIPOS>ATOM
       1    C1      19.096645   19.893300   22.014389 C.3        1 MOL1        -0.1689
       2    H1      18.323592   20.049114   21.249315 H          1 MOL1         0.0830
       3    H2      19.409067   20.881588   22.378635 H          1 MOL1         0.0830
       4    C2      20.282583   19.109587   21.410762 C.3        1 MOL1        -0.1689
       5    H3      20.083963   18.887032   20.353290 H          1 MOL1         0.0830
       6    H4      21.215609   19.687533   21.460176 H          1 MOL1         0.0830
       7    C3      20.398043   17.799536   22.218766 C.3        1 MOL1        -0.1765
       8    H5      21.171779   17.911066   22.989814 H          1 MOL1         0.0830
       9    H6      20.675725   16.944541   21.587987 H          1 MOL1         0.0830
      10    C4      19.038549   17.600372   22.902215 C.3        1 MOL1         0.1214
      11    H7      19.134987   17.027074   23.835496 H          1 MOL1         0.0787
      12    C5      18.540784   19.027952   23.165280 C.3        1 MOL1        -0.1765
      13    H8      17.446050   19.080668   23.234445 H          1 MOL1         0.0830
      14    H9      18.953189   19.379005   24.120426 H          1 MOL1         0.0830
      15    O1      18.151788   16.954626   22.000287 O.3        1 MOL1        -0.5512
      16    H10     18.129399   17.530770   21.208630 H          1 MOL1         0.3776
@<TRIPOS>BOND
    1     1     2    1
    2     1     3    1
    3     1     4    1
    4     4     5    1
    5     4     6    1
    6     4     7    1
    7     7     8    1
    8     7     9    1
    9     7    10    1
   10    10    11    1
   11     1    12    1
   12    10    12    1
   13    12    13    1
   14    12    14    1
   15    10    15    1
   16    15    16    1
@<TRIPOS>SUBSTRUCTURE
       1 MOL1            1 RESIDUE      1      MOL     
@<SCITEGIC>MOL_PROPERTY
VConf Rank
SciTegic.value.IntegerValue
66

@<SCITEGIC>MOL_PROPERTY
Conf_Id
SciTegic.value.IntegerValue
20

@<SCITEGIC>MOL_PROPERTY
Delta U+W
SciTegic.value.DoubleValue
-0.483

@<SCITEGIC>MOL_PROPERTY
U+W
SciTegic.value.DoubleValue
2.527

@<SCITEGIC>MOL_PROPERTY
Grad RMS
SciTegic.value.DoubleValue
0.000000

@<SCITEGIC>MOL_PROPERTY
U
SciTegic.value.DoubleValue
4.508

@<SCITEGIC>MOL_PROPERTY
W
SciTegic.value.DoubleValue
-1.981

@<SCITEGIC>MOL_PROPERTY
W(PB)
SciTegic.value.DoubleValue
-3.712

@<SCITEGIC>MOL_PROPERTY
W(SA)
SciTegic.value.DoubleValue
1.732

@<SCITEGIC>MOL_PROPERTY
Valence
SciTegic.value.DoubleValue
14.705

@<SCITEGIC>MOL_PROPERTY
Coulomb
SciTegic.value.DoubleValue
-10.687

@<SCITEGIC>MOL_PROPERTY
VdW
SciTegic.value.DoubleValue
0.490

@<SCITEGIC>MOL_PROPERTY
VdW6
SciTegic.value.DoubleValue
-3.745

@<SCITEGIC>MOL_PROPERTY
VdW12
SciTegic.value.DoubleValue
4.235

@<SCITEGIC>MOL_PROPERTY
Bond
SciTegic.value.DoubleValue
0.068

@<SCITEGIC>MOL_PROPERTY
Angle
SciTegic.value.DoubleValue
3.901

@<SCITEGIC>MOL_PROPERTY
Pdih
SciTegic.value.DoubleValue
10.737

@<SCITEGIC>MOL_PROPERTY
Idih
SciTegic.value.DoubleValue
0.000

@<SCITEGIC>MOL_PROPERTY
Tether
SciTegic.value.DoubleValue
0.000

@<TRIPOS>MOLECULE
guest-4_confgen4.mol2 : confsearch ligand conformer 67
          16          16           1
SMALL
USER_CHARGES
 
@<TRIPOS>ATOM
       1    C1      18.150277   18.457025   21.510745 C.3        1 MOL1        -0.1689
       2    H1      17.374341   18.963385   22.101676 H          1 MOL1         0.0830
       3    H2      17.707171   18.147029   20.554605 H          1 MOL1         0.0830
       4    C2      18.712460   17.272004   22.307867 C.3        1 MOL1        -0.1689
       5    H3      17.931183   16.730098   22.858052 H          1 MOL1         0.0830
       6    H4      19.203504   16.565989   21.623729 H          1 MOL1         0.0830
       7    C3      19.758822   17.902559   23.244929 C.3        1 MOL1        -0.1765
       8    H5      20.564126   17.194991   23.480894 H          1 MOL1         0.0830
       9    H6      19.275124   18.190118   24.188397 H          1 MOL1         0.0830
      10    C4      20.297111   19.152547   22.517295 C.3        1 MOL1         0.1214
      11    H7      21.313619   18.961785   22.143342 H          1 MOL1         0.0787
      12    C5      19.352872   19.400189   21.322758 C.3        1 MOL1        -0.1765
      13    H8      19.036538   20.449452   21.252040 H          1 MOL1         0.0830
      14    H9      19.878118   19.146654   20.392748 H          1 MOL1         0.0830
      15    O1      20.284905   20.273668   23.392982 O.3        1 MOL1        -0.5512
      16    H10     20.889395   20.058044   24.134352 H          1 MOL1         0.3776
@<TRIPOS>BOND
    1     1     2    1
    2     1     3    1
    3     1     4    1
    4     4     5    1
    5     4     6    1
    6     4     7    1
    7     7     8    1
    8     7     9    1
    9     7    10    1
   10    10    11    1
   11     1    12    1
   12    10    12    1
   13    12    13    1
   14    12    14    1
   15    10    15    1
   16    15    16    1
@<TRIPOS>SUBSTRUCTURE
       1 MOL1            1 RESIDUE      1      MOL     
@<SCITEGIC>MOL_PROPERTY
VConf Rank
SciTegic.value.IntegerValue
67

@<SCITEGIC>MOL_PROPERTY
Conf_Id
SciTegic.value.IntegerValue
59

@<SCITEGIC>MOL_PROPERTY
Delta U+W
SciTegic.value.DoubleValue
0.000

@<SCITEGIC>MOL_PROPERTY
U+W
SciTegic.value.DoubleValue
3.010

@<SCITEGIC>MOL_PROPERTY
Grad RMS
SciTegic.value.DoubleValue
0.000000

@<SCITEGIC>MOL_PROPERTY
U
SciTegic.value.DoubleValue
5.843

@<SCITEGIC>MOL_PROPERTY
W
SciTegic.value.DoubleValue
-2.833

@<SCITEGIC>MOL_PROPERTY
W(PB)
SciTegic.value.DoubleValue
-4.568

@<SCITEGIC>MOL_PROPERTY
W(SA)
SciTegic.value.DoubleValue
1.735

@<SCITEGIC>MOL_PROPERTY
Valence
SciTegic.value.DoubleValue
13.789

@<SCITEGIC>MOL_PROPERTY
Coulomb
SciTegic.value.DoubleValue
-8.574

@<SCITEGIC>MOL_PROPERTY
VdW
SciTegic.value.DoubleValue
0.628

@<SCITEGIC>MOL_PROPERTY
VdW6
SciTegic.value.DoubleValue
-3.284

@<SCITEGIC>MOL_PROPERTY
VdW12
SciTegic.value.DoubleValue
3.912

@<SCITEGIC>MOL_PROPERTY
Bond
SciTegic.value.DoubleValue
0.054

@<SCITEGIC>MOL_PROPERTY
Angle
SciTegic.value.DoubleValue
4.034

@<SCITEGIC>MOL_PROPERTY
Pdih
SciTegic.value.DoubleValue
9.702

@<SCITEGIC>MOL_PROPERTY
Idih
SciTegic.value.DoubleValue
0.000

@<SCITEGIC>MOL_PROPERTY
Tether
SciTegic.value.DoubleValue
0.000

@<TRIPOS>MOLECULE
guest-4_confgen4.mol2 : confsearch ligand conformer 68
          16          16           1
SMALL
USER_CHARGES
 
@<TRIPOS>ATOM
       1    C1      19.334282   17.198107   22.075824 C.3        1 MOL1        -0.1689
       2    H1      19.922057   16.367072   21.662714 H          1 MOL1         0.0830
       3    H2      18.437923   16.780164   22.554871 H          1 MOL1         0.0830
       4    C2      18.919839   18.211574   21.000255 C.3        1 MOL1        -0.1689
       5    H3      19.748707   18.358537   20.293814 H          1 MOL1         0.0830
       6    H4      18.038045   17.884211   20.432879 H          1 MOL1         0.0830
       7    C3      18.667270   19.516614   21.777530 C.3        1 MOL1        -0.1765
       8    H5      17.616065   19.561384   22.090656 H          1 MOL1         0.0830
       9    H6      18.869250   20.401221   21.158908 H          1 MOL1         0.0830
      10    C4      19.563818   19.462066   23.031733 C.3        1 MOL1         0.1214
      11    H7      18.953741   19.666750   23.923602 H          1 MOL1         0.0787
      12    C5      20.131880   18.028657   23.097899 C.3        1 MOL1        -0.1765
      13    H8      21.194085   18.026827   22.817722 H          1 MOL1         0.0830
      14    H9      20.049061   17.608137   24.108419 H          1 MOL1         0.0830
      15    O1      20.622980   20.405124   22.918978 O.3        1 MOL1        -0.5512
      16    H10     21.163612   20.319465   23.732556 H          1 MOL1         0.3776
@<TRIPOS>BOND
    1     1     2    1
    2     1     3    1
    3     1     4    1
    4     4     5    1
    5     4     6    1
    6     4     7    1
    7     7     8    1
    8     7     9    1
    9     7    10    1
   10    10    11    1
   11     1    12    1
   12    10    12    1
   13    12    13    1
   14    12    14    1
   15    10    15    1
   16    15    16    1
@<TRIPOS>SUBSTRUCTURE
       1 MOL1            1 RESIDUE      1      MOL     
@<SCITEGIC>MOL_PROPERTY
VConf Rank
SciTegic.value.IntegerValue
68

@<SCITEGIC>MOL_PROPERTY
Conf_Id
SciTegic.value.IntegerValue
33

@<SCITEGIC>MOL_PROPERTY
Delta U+W
SciTegic.value.DoubleValue
0.015

@<SCITEGIC>MOL_PROPERTY
U+W
SciTegic.value.DoubleValue
3.025

@<SCITEGIC>MOL_PROPERTY
Grad RMS
SciTegic.value.DoubleValue
0.000000

@<SCITEGIC>MOL_PROPERTY
U
SciTegic.value.DoubleValue
5.843

@<SCITEGIC>MOL_PROPERTY
W
SciTegic.value.DoubleValue
-2.819

@<SCITEGIC>MOL_PROPERTY
W(PB)
SciTegic.value.DoubleValue
-4.568

@<SCITEGIC>MOL_PROPERTY
W(SA)
SciTegic.value.DoubleValue
1.750

@<SCITEGIC>MOL_PROPERTY
Valence
SciTegic.value.DoubleValue
13.789

@<SCITEGIC>MOL_PROPERTY
Coulomb
SciTegic.value.DoubleValue
-8.574

@<SCITEGIC>MOL_PROPERTY
VdW
SciTegic.value.DoubleValue
0.628

@<SCITEGIC>MOL_PROPERTY
VdW6
SciTegic.value.DoubleValue
-3.284

@<SCITEGIC>MOL_PROPERTY
VdW12
SciTegic.value.DoubleValue
3.913

@<SCITEGIC>MOL_PROPERTY
Bond
SciTegic.value.DoubleValue
0.054

@<SCITEGIC>MOL_PROPERTY
Angle
SciTegic.value.DoubleValue
4.033

@<SCITEGIC>MOL_PROPERTY
Pdih
SciTegic.value.DoubleValue
9.702

@<SCITEGIC>MOL_PROPERTY
Idih
SciTegic.value.DoubleValue
0.000

@<SCITEGIC>MOL_PROPERTY
Tether
SciTegic.value.DoubleValue
0.000

@<TRIPOS>MOLECULE
guest-4_confgen4.mol2 : confsearch ligand conformer 69
          16          16           1
SMALL
USER_CHARGES
 
@<TRIPOS>ATOM
       1    C1      18.350293   19.097407   22.958798 C.3        1 MOL1        -0.1689
       2    H1      18.420504   18.927521   24.042051 H          1 MOL1         0.0830
       3    H2      17.423759   19.656239   22.768433 H          1 MOL1         0.0830
       4    C2      18.361119   17.744973   22.213260 C.3        1 MOL1        -0.1689
       5    H3      18.435501   16.920522   22.935738 H          1 MOL1         0.0830
       6    H4      17.440653   17.596793   21.632068 H          1 MOL1         0.0830
       7    C3      19.600953   17.761859   21.294042 C.3        1 MOL1        -0.1765
       8    H5      19.300425   18.049846   20.277987 H          1 MOL1         0.0830
       9    H6      20.087096   16.779050   21.232756 H          1 MOL1         0.0830
      10    C4      20.535975   18.838495   21.861125 C.3        1 MOL1         0.1214
      11    H7      21.172322   19.275104   21.077915 H          1 MOL1         0.0787
      12    C5      19.583310   19.881243   22.461177 C.3        1 MOL1        -0.1765
      13    H8      20.056538   20.464941   23.262023 H          1 MOL1         0.0830
      14    H9      19.278878   20.581750   21.672359 H          1 MOL1         0.0830
      15    O1      21.324657   18.273841   22.898406 O.3        1 MOL1        -0.5512
      16    H10     20.679770   17.914178   23.541776 H          1 MOL1         0.3776
@<TRIPOS>BOND
    1     1     2    1
    2     1     3    1
    3     1     4    1
    4     4     5    1
    5     4     6    1
    6     4     7    1
    7     7     8    1
    8     7     9    1
    9     7    10    1
   10    10    11    1
   11     1    12    1
   12    10    12    1
   13    12    13    1
   14    12    14    1
   15    10    15    1
   16    15    16    1
@<TRIPOS>SUBSTRUCTURE
       1 MOL1            1 RESIDUE      1      MOL     
@<SCITEGIC>MOL_PROPERTY
VConf Rank
SciTegic.value.IntegerValue
69

@<SCITEGIC>MOL_PROPERTY
Conf_Id
SciTegic.value.IntegerValue
20

@<SCITEGIC>MOL_PROPERTY
Delta U+W
SciTegic.value.DoubleValue
-0.483

@<SCITEGIC>MOL_PROPERTY
U+W
SciTegic.value.DoubleValue
2.527

@<SCITEGIC>MOL_PROPERTY
Grad RMS
SciTegic.value.DoubleValue
0.000000

@<SCITEGIC>MOL_PROPERTY
U
SciTegic.value.DoubleValue
4.508

@<SCITEGIC>MOL_PROPERTY
W
SciTegic.value.DoubleValue
-1.981

@<SCITEGIC>MOL_PROPERTY
W(PB)
SciTegic.value.DoubleValue
-3.712

@<SCITEGIC>MOL_PROPERTY
W(SA)
SciTegic.value.DoubleValue
1.732

@<SCITEGIC>MOL_PROPERTY
Valence
SciTegic.value.DoubleValue
14.705

@<SCITEGIC>MOL_PROPERTY
Coulomb
SciTegic.value.DoubleValue
-10.687

@<SCITEGIC>MOL_PROPERTY
VdW
SciTegic.value.DoubleValue
0.490

@<SCITEGIC>MOL_PROPERTY
VdW6
SciTegic.value.DoubleValue
-3.745

@<SCITEGIC>MOL_PROPERTY
VdW12
SciTegic.value.DoubleValue
4.235

@<SCITEGIC>MOL_PROPERTY
Bond
SciTegic.value.DoubleValue
0.068

@<SCITEGIC>MOL_PROPERTY
Angle
SciTegic.value.DoubleValue
3.901

@<SCITEGIC>MOL_PROPERTY
Pdih
SciTegic.value.DoubleValue
10.737

@<SCITEGIC>MOL_PROPERTY
Idih
SciTegic.value.DoubleValue
0.000

@<SCITEGIC>MOL_PROPERTY
Tether
SciTegic.value.DoubleValue
0.000

@<TRIPOS>MOLECULE
guest-4_confgen4.mol2 : confsearch ligand conformer 70
          16          16           1
SMALL
USER_CHARGES
 
@<TRIPOS>ATOM
       1    C1      18.466815   19.055693   21.280840 C.3        1 MOL1        -0.1689
       2    H1      19.129565   19.377491   20.465435 H          1 MOL1         0.0830
       3    H2      17.427186   19.193470   20.953987 H          1 MOL1         0.0830
       4    C2      18.791908   19.851535   22.552327 C.3        1 MOL1        -0.1689
       5    H3      19.009855   20.907162   22.340409 H          1 MOL1         0.0830
       6    H4      17.938558   19.808897   23.243414 H          1 MOL1         0.0830
       7    C3      19.997095   19.116338   23.166791 C.3        1 MOL1        -0.1765
       8    H5      20.016887   19.221755   24.259192 H          1 MOL1         0.0830
       9    H6      20.926372   19.546793   22.769377 H          1 MOL1         0.0830
      10    C4      19.867804   17.638396   22.741762 C.3        1 MOL1         0.1214
      11    H7      19.549787   17.026785   23.598684 H          1 MOL1         0.0787
      12    C5      18.777497   17.593724   21.651317 C.3        1 MOL1        -0.1765
      13    H8      19.089289   17.011796   20.773726 H          1 MOL1         0.0830
      14    H9      17.877798   17.119017   22.063964 H          1 MOL1         0.0830
      15    O1      21.104357   17.168004   22.218736 O.3        1 MOL1        -0.5512
      16    H10     21.758791   17.228677   22.946450 H          1 MOL1         0.3776
@<TRIPOS>BOND
    1     1     2    1
    2     1     3    1
    3     1     4    1
    4     4     5    1
    5     4     6    1
    6     4     7    1
    7     7     8    1
    8     7     9    1
    9     7    10    1
   10    10    11    1
   11     1    12    1
   12    10    12    1
   13    12    13    1
   14    12    14    1
   15    10    15    1
   16    15    16    1
@<TRIPOS>SUBSTRUCTURE
       1 MOL1            1 RESIDUE      1      MOL     
@<SCITEGIC>MOL_PROPERTY
VConf Rank
SciTegic.value.IntegerValue
70

@<SCITEGIC>MOL_PROPERTY
Conf_Id
SciTegic.value.IntegerValue
59

@<SCITEGIC>MOL_PROPERTY
Delta U+W
SciTegic.value.DoubleValue
0.000

@<SCITEGIC>MOL_PROPERTY
U+W
SciTegic.value.DoubleValue
3.010

@<SCITEGIC>MOL_PROPERTY
Grad RMS
SciTegic.value.DoubleValue
0.000000

@<SCITEGIC>MOL_PROPERTY
U
SciTegic.value.DoubleValue
5.843

@<SCITEGIC>MOL_PROPERTY
W
SciTegic.value.DoubleValue
-2.833

@<SCITEGIC>MOL_PROPERTY
W(PB)
SciTegic.value.DoubleValue
-4.568

@<SCITEGIC>MOL_PROPERTY
W(SA)
SciTegic.value.DoubleValue
1.735

@<SCITEGIC>MOL_PROPERTY
Valence
SciTegic.value.DoubleValue
13.789

@<SCITEGIC>MOL_PROPERTY
Coulomb
SciTegic.value.DoubleValue
-8.574

@<SCITEGIC>MOL_PROPERTY
VdW
SciTegic.value.DoubleValue
0.628

@<SCITEGIC>MOL_PROPERTY
VdW6
SciTegic.value.DoubleValue
-3.284

@<SCITEGIC>MOL_PROPERTY
VdW12
SciTegic.value.DoubleValue
3.912

@<SCITEGIC>MOL_PROPERTY
Bond
SciTegic.value.DoubleValue
0.054

@<SCITEGIC>MOL_PROPERTY
Angle
SciTegic.value.DoubleValue
4.034

@<SCITEGIC>MOL_PROPERTY
Pdih
SciTegic.value.DoubleValue
9.702

@<SCITEGIC>MOL_PROPERTY
Idih
SciTegic.value.DoubleValue
0.000

@<SCITEGIC>MOL_PROPERTY
Tether
SciTegic.value.DoubleValue
0.000

@<TRIPOS>MOLECULE
guest-4_confgen4.mol2 : confsearch ligand conformer 71
          16          16           1
SMALL
USER_CHARGES
 
@<TRIPOS>ATOM
       1    C1      19.233431   17.228774   22.606683 C.3        1 MOL1        -0.1689
       2    H1      18.475402   16.449088   22.450990 H          1 MOL1         0.0830
       3    H2      20.125805   16.758251   23.042455 H          1 MOL1         0.0830
       4    C2      18.737300   18.349369   23.530723 C.3        1 MOL1        -0.1689
       5    H3      17.685627   18.574420   23.304857 H          1 MOL1         0.0830
       6    H4      18.811187   18.080572   24.593235 H          1 MOL1         0.0830
       7    C3      19.613439   19.562964   23.169276 C.3        1 MOL1        -0.1765
       8    H5      20.511995   19.569536   23.799862 H          1 MOL1         0.0830
       9    H6      19.081839   20.509367   23.335832 H          1 MOL1         0.0830
      10    C4      20.033852   19.378844   21.696473 C.3        1 MOL1         0.1214
      11    H7      21.125449   19.484601   21.614311 H          1 MOL1         0.0787
      12    C5      19.610268   17.949024   21.299073 C.3        1 MOL1        -0.1765
      13    H8      18.734357   17.981681   20.636883 H          1 MOL1         0.0830
      14    H9      20.414395   17.422776   20.768706 H          1 MOL1         0.0830
      15    O1      19.372291   20.333122   20.874530 O.3        1 MOL1        -0.5512
      16    H10     19.665978   20.163521   19.954469 H          1 MOL1         0.3776
@<TRIPOS>BOND
    1     1     2    1
    2     1     3    1
    3     1     4    1
    4     4     5    1
    5     4     6    1
    6     4     7    1
    7     7     8    1
    8     7     9    1
    9     7    10    1
   10    10    11    1
   11     1    12    1
   12    10    12    1
   13    12    13    1
   14    12    14    1
   15    10    15    1
   16    15    16    1
@<TRIPOS>SUBSTRUCTURE
       1 MOL1            1 RESIDUE      1      MOL     
@<SCITEGIC>MOL_PROPERTY
VConf Rank
SciTegic.value.IntegerValue
71

@<SCITEGIC>MOL_PROPERTY
Conf_Id
SciTegic.value.IntegerValue
33

@<SCITEGIC>MOL_PROPERTY
Delta U+W
SciTegic.value.DoubleValue
0.015

@<SCITEGIC>MOL_PROPERTY
U+W
SciTegic.value.DoubleValue
3.025

@<SCITEGIC>MOL_PROPERTY
Grad RMS
SciTegic.value.DoubleValue
0.000000

@<SCITEGIC>MOL_PROPERTY
U
SciTegic.value.DoubleValue
5.843

@<SCITEGIC>MOL_PROPERTY
W
SciTegic.value.DoubleValue
-2.819

@<SCITEGIC>MOL_PROPERTY
W(PB)
SciTegic.value.DoubleValue
-4.568

@<SCITEGIC>MOL_PROPERTY
W(SA)
SciTegic.value.DoubleValue
1.750

@<SCITEGIC>MOL_PROPERTY
Valence
SciTegic.value.DoubleValue
13.789

@<SCITEGIC>MOL_PROPERTY
Coulomb
SciTegic.value.DoubleValue
-8.574

@<SCITEGIC>MOL_PROPERTY
VdW
SciTegic.value.DoubleValue
0.628

@<SCITEGIC>MOL_PROPERTY
VdW6
SciTegic.value.DoubleValue
-3.284

@<SCITEGIC>MOL_PROPERTY
VdW12
SciTegic.value.DoubleValue
3.913

@<SCITEGIC>MOL_PROPERTY
Bond
SciTegic.value.DoubleValue
0.054

@<SCITEGIC>MOL_PROPERTY
Angle
SciTegic.value.DoubleValue
4.033

@<SCITEGIC>MOL_PROPERTY
Pdih
SciTegic.value.DoubleValue
9.702

@<SCITEGIC>MOL_PROPERTY
Idih
SciTegic.value.DoubleValue
0.000

@<SCITEGIC>MOL_PROPERTY
Tether
SciTegic.value.DoubleValue
0.000

@<TRIPOS>MOLECULE
guest-4_confgen4.mol2 : confsearch ligand conformer 72
          16          16           1
SMALL
USER_CHARGES
 
@<TRIPOS>ATOM
       1    C1      20.670668   18.286053   22.355454 C.3        1 MOL1        -0.1689
       2    H1      20.879335   17.215279   22.224577 H          1 MOL1         0.0830
       3    H2      21.630551   18.795288   22.517632 H          1 MOL1         0.0830
       4    C2      19.710044   18.492158   23.546985 C.3        1 MOL1        -0.1689
       5    H3      19.454640   17.521239   23.993428 H          1 MOL1         0.0830
       6    H4      20.167069   19.110078   24.332035 H          1 MOL1         0.0830
       7    C3      18.444019   19.166432   22.976923 C.3        1 MOL1        -0.1765
       8    H5      18.500362   20.250657   23.140939 H          1 MOL1         0.0830
       9    H6      17.526260   18.802955   23.458181 H          1 MOL1         0.0830
      10    C4      18.457797   18.889410   21.467598 C.3        1 MOL1         0.1214
      11    H7      17.930927   19.675116   20.907189 H          1 MOL1         0.0787
      12    C5      19.949546   18.844643   21.110337 C.3        1 MOL1        -0.1765
      13    H8      20.144299   18.243798   20.211971 H          1 MOL1         0.0830
      14    H9      20.299317   19.866245   20.911306 H          1 MOL1         0.0830
      15    O1      17.879276   17.616206   21.220469 O.3        1 MOL1        -0.5512
      16    H10     18.407644   16.988206   21.754889 H          1 MOL1         0.3776
@<TRIPOS>BOND
    1     1     2    1
    2     1     3    1
    3     1     4    1
    4     4     5    1
    5     4     6    1
    6     4     7    1
    7     7     8    1
    8     7     9    1
    9     7    10    1
   10    10    11    1
   11     1    12    1
   12    10    12    1
   13    12    13    1
   14    12    14    1
   15    10    15    1
   16    15    16    1
@<TRIPOS>SUBSTRUCTURE
       1 MOL1            1 RESIDUE      1      MOL     
@<SCITEGIC>MOL_PROPERTY
VConf Rank
SciTegic.value.IntegerValue
72

@<SCITEGIC>MOL_PROPERTY
Conf_Id
SciTegic.value.IntegerValue
20

@<SCITEGIC>MOL_PROPERTY
Delta U+W
SciTegic.value.DoubleValue
-0.483

@<SCITEGIC>MOL_PROPERTY
U+W
SciTegic.value.DoubleValue
2.527

@<SCITEGIC>MOL_PROPERTY
Grad RMS
SciTegic.value.DoubleValue
0.000000

@<SCITEGIC>MOL_PROPERTY
U
SciTegic.value.DoubleValue
4.508

@<SCITEGIC>MOL_PROPERTY
W
SciTegic.value.DoubleValue
-1.981

@<SCITEGIC>MOL_PROPERTY
W(PB)
SciTegic.value.DoubleValue
-3.712

@<SCITEGIC>MOL_PROPERTY
W(SA)
SciTegic.value.DoubleValue
1.732

@<SCITEGIC>MOL_PROPERTY
Valence
SciTegic.value.DoubleValue
14.705

@<SCITEGIC>MOL_PROPERTY
Coulomb
SciTegic.value.DoubleValue
-10.687

@<SCITEGIC>MOL_PROPERTY
VdW
SciTegic.value.DoubleValue
0.490

@<SCITEGIC>MOL_PROPERTY
VdW6
SciTegic.value.DoubleValue
-3.745

@<SCITEGIC>MOL_PROPERTY
VdW12
SciTegic.value.DoubleValue
4.235

@<SCITEGIC>MOL_PROPERTY
Bond
SciTegic.value.DoubleValue
0.068

@<SCITEGIC>MOL_PROPERTY
Angle
SciTegic.value.DoubleValue
3.901

@<SCITEGIC>MOL_PROPERTY
Pdih
SciTegic.value.DoubleValue
10.737

@<SCITEGIC>MOL_PROPERTY
Idih
SciTegic.value.DoubleValue
0.000

@<SCITEGIC>MOL_PROPERTY
Tether
SciTegic.value.DoubleValue
0.000

@<TRIPOS>MOLECULE
guest-4_confgen4.mol2 : confsearch ligand conformer 73
          16          16           1
SMALL
USER_CHARGES
 
@<TRIPOS>ATOM
       1    C1      20.679999   18.515919   21.710135 C.3        1 MOL1        -0.1689
       2    H1      20.998849   19.566264   21.657334 H          1 MOL1         0.0830
       3    H2      21.503057   17.887599   21.343481 H          1 MOL1         0.0830
       4    C2      19.391908   18.327935   20.896986 C.3        1 MOL1        -0.1689
       5    H3      19.400366   18.903797   19.961534 H          1 MOL1         0.0830
       6    H4      19.265263   17.265716   20.645436 H          1 MOL1         0.0830
       7    C3      18.268468   18.775077   21.850142 C.3        1 MOL1        -0.1765
       8    H5      17.329896   18.246161   21.639960 H          1 MOL1         0.0830
       9    H6      18.086652   19.850396   21.718168 H          1 MOL1         0.0830
      10    C4      18.772442   18.489570   23.280588 C.3        1 MOL1         0.1214
      11    H7      18.249713   17.615865   23.696415 H          1 MOL1         0.0787
      12    C5      20.276801   18.171506   23.155798 C.3        1 MOL1        -0.1765
      13    H8      20.881761   18.724351   23.886830 H          1 MOL1         0.0830
      14    H9      20.432267   17.099907   23.336320 H          1 MOL1         0.0830
      15    O1      18.579324   19.631867   24.106271 O.3        1 MOL1        -0.5512
      16    H10     17.612801   19.793604   24.141013 H          1 MOL1         0.3776
@<TRIPOS>BOND
    1     1     2    1
    2     1     3    1
    3     1     4    1
    4     4     5    1
    5     4     6    1
    6     4     7    1
    7     7     8    1
    8     7     9    1
    9     7    10    1
   10    10    11    1
   11     1    12    1
   12    10    12    1
   13    12    13    1
   14    12    14    1
   15    10    15    1
   16    15    16    1
@<TRIPOS>SUBSTRUCTURE
       1 MOL1            1 RESIDUE      1      MOL     
@<SCITEGIC>MOL_PROPERTY
VConf Rank
SciTegic.value.IntegerValue
73

@<SCITEGIC>MOL_PROPERTY
Conf_Id
SciTegic.value.IntegerValue
59

@<SCITEGIC>MOL_PROPERTY
Delta U+W
SciTegic.value.DoubleValue
0.000

@<SCITEGIC>MOL_PROPERTY
U+W
SciTegic.value.DoubleValue
3.010

@<SCITEGIC>MOL_PROPERTY
Grad RMS
SciTegic.value.DoubleValue
0.000000

@<SCITEGIC>MOL_PROPERTY
U
SciTegic.value.DoubleValue
5.843

@<SCITEGIC>MOL_PROPERTY
W
SciTegic.value.DoubleValue
-2.833

@<SCITEGIC>MOL_PROPERTY
W(PB)
SciTegic.value.DoubleValue
-4.568

@<SCITEGIC>MOL_PROPERTY
W(SA)
SciTegic.value.DoubleValue
1.735

@<SCITEGIC>MOL_PROPERTY
Valence
SciTegic.value.DoubleValue
13.789

@<SCITEGIC>MOL_PROPERTY
Coulomb
SciTegic.value.DoubleValue
-8.574

@<SCITEGIC>MOL_PROPERTY
VdW
SciTegic.value.DoubleValue
0.628

@<SCITEGIC>MOL_PROPERTY
VdW6
SciTegic.value.DoubleValue
-3.284

@<SCITEGIC>MOL_PROPERTY
VdW12
SciTegic.value.DoubleValue
3.912

@<SCITEGIC>MOL_PROPERTY
Bond
SciTegic.value.DoubleValue
0.054

@<SCITEGIC>MOL_PROPERTY
Angle
SciTegic.value.DoubleValue
4.034

@<SCITEGIC>MOL_PROPERTY
Pdih
SciTegic.value.DoubleValue
9.702

@<SCITEGIC>MOL_PROPERTY
Idih
SciTegic.value.DoubleValue
0.000

@<SCITEGIC>MOL_PROPERTY
Tether
SciTegic.value.DoubleValue
0.000

@<TRIPOS>MOLECULE
guest-4_confgen4.mol2 : confsearch ligand conformer 74
          16          16           1
SMALL
USER_CHARGES
 
@<TRIPOS>ATOM
       1    C1      19.336805   18.022040   20.988966 C.3        1 MOL1        -0.1689
       2    H1      19.791129   18.108420   19.992529 H          1 MOL1         0.0830
       3    H2      18.674622   17.145036   20.989798 H          1 MOL1         0.0830
       4    C2      18.536867   19.273298   21.376496 C.3        1 MOL1        -0.1689
       5    H3      19.072287   20.171786   21.039267 H          1 MOL1         0.0830
       6    H4      17.532651   19.283767   20.931432 H          1 MOL1         0.0830
       7    C3      18.497270   19.243869   22.915536 C.3        1 MOL1        -0.1765
       8    H5      17.611375   18.688974   23.250748 H          1 MOL1         0.0830
       9    H6      18.436856   20.255801   23.337866 H          1 MOL1         0.0830
      10    C4      19.764419   18.492794   23.373813 C.3        1 MOL1         0.1214
      11    H7      19.480105   17.694968   24.075352 H          1 MOL1         0.0787
      12    C5      20.390205   17.880442   22.102926 C.3        1 MOL1        -0.1765
      13    H8      21.295438   18.434493   21.819443 H          1 MOL1         0.0830
      14    H9      20.671903   16.830866   22.257465 H          1 MOL1         0.0830
      15    O1      20.677397   19.397579   23.983513 O.3        1 MOL1        -0.5512
      16    H10     21.463286   18.871779   24.243209 H          1 MOL1         0.3776
@<TRIPOS>BOND
    1     1     2    1
    2     1     3    1
    3     1     4    1
    4     4     5    1
    5     4     6    1
    6     4     7    1
    7     7     8    1
    8     7     9    1
    9     7    10    1
   10    10    11    1
   11     1    12    1
   12    10    12    1
   13    12    13    1
   14    12    14    1
   15    10    15    1
   16    15    16    1
@<TRIPOS>SUBSTRUCTURE
       1 MOL1            1 RESIDUE      1      MOL     
@<SCITEGIC>MOL_PROPERTY
VConf Rank
SciTegic.value.IntegerValue
74

@<SCITEGIC>MOL_PROPERTY
Conf_Id
SciTegic.value.IntegerValue
33

@<SCITEGIC>MOL_PROPERTY
Delta U+W
SciTegic.value.DoubleValue
0.015

@<SCITEGIC>MOL_PROPERTY
U+W
SciTegic.value.DoubleValue
3.025

@<SCITEGIC>MOL_PROPERTY
Grad RMS
SciTegic.value.DoubleValue
0.000000

@<SCITEGIC>MOL_PROPERTY
U
SciTegic.value.DoubleValue
5.843

@<SCITEGIC>MOL_PROPERTY
W
SciTegic.value.DoubleValue
-2.819

@<SCITEGIC>MOL_PROPERTY
W(PB)
SciTegic.value.DoubleValue
-4.568

@<SCITEGIC>MOL_PROPERTY
W(SA)
SciTegic.value.DoubleValue
1.750

@<SCITEGIC>MOL_PROPERTY
Valence
SciTegic.value.DoubleValue
13.789

@<SCITEGIC>MOL_PROPERTY
Coulomb
SciTegic.value.DoubleValue
-8.574

@<SCITEGIC>MOL_PROPERTY
VdW
SciTegic.value.DoubleValue
0.628

@<SCITEGIC>MOL_PROPERTY
VdW6
SciTegic.value.DoubleValue
-3.284

@<SCITEGIC>MOL_PROPERTY
VdW12
SciTegic.value.DoubleValue
3.913

@<SCITEGIC>MOL_PROPERTY
Bond
SciTegic.value.DoubleValue
0.054

@<SCITEGIC>MOL_PROPERTY
Angle
SciTegic.value.DoubleValue
4.033

@<SCITEGIC>MOL_PROPERTY
Pdih
SciTegic.value.DoubleValue
9.702

@<SCITEGIC>MOL_PROPERTY
Idih
SciTegic.value.DoubleValue
0.000

@<SCITEGIC>MOL_PROPERTY
Tether
SciTegic.value.DoubleValue
0.000

@<TRIPOS>MOLECULE
guest-4_confgen4.mol2 : confsearch ligand conformer 75
          16          16           1
SMALL
USER_CHARGES
 
@<TRIPOS>ATOM
       1    C1      20.347946   18.340876   21.379452 C.3        1 MOL1        -0.1689
       2    H1      21.318636   18.103227   21.836083 H          1 MOL1         0.0830
       3    H2      20.465133   18.266428   20.289626 H          1 MOL1         0.0830
       4    C2      19.898576   19.755197   21.806985 C.3        1 MOL1        -0.1689
       5    H3      20.652266   20.202447   22.469666 H          1 MOL1         0.0830
       6    H4      19.779707   20.420319   20.940682 H          1 MOL1         0.0830
       7    C3      18.562561   19.580953   22.560071 C.3        1 MOL1        -0.1765
       8    H5      17.727139   19.780221   21.875978 H          1 MOL1         0.0830
       9    H6      18.470578   20.270752   23.409613 H          1 MOL1         0.0830
      10    C4      18.509272   18.110741   22.996685 C.3        1 MOL1         0.1214
      11    H7      17.473526   17.753666   23.090020 H          1 MOL1         0.0787
      12    C5      19.265976   17.365233   21.889177 C.3        1 MOL1        -0.1765
      13    H8      19.693378   16.417451   22.242787 H          1 MOL1         0.0830
      14    H9      18.567717   17.133385   21.074129 H          1 MOL1         0.0830
      15    O1      19.209109   17.961485   24.223370 O.3        1 MOL1        -0.5512
      16    H10     20.110234   18.301384   24.045591 H          1 MOL1         0.3776
@<TRIPOS>BOND
    1     1     2    1
    2     1     3    1
    3     1     4    1
    4     4     5    1
    5     4     6    1
    6     4     7    1
    7     7     8    1
    8     7     9    1
    9     7    10    1
   10    10    11    1
   11     1    12    1
   12    10    12    1
   13    12    13    1
   14    12    14    1
   15    10    15    1
   16    15    16    1
@<TRIPOS>SUBSTRUCTURE
       1 MOL1            1 RESIDUE      1      MOL     
@<SCITEGIC>MOL_PROPERTY
VConf Rank
SciTegic.value.IntegerValue
75

@<SCITEGIC>MOL_PROPERTY
Conf_Id
SciTegic.value.IntegerValue
20

@<SCITEGIC>MOL_PROPERTY
Delta U+W
SciTegic.value.DoubleValue
-0.483

@<SCITEGIC>MOL_PROPERTY
U+W
SciTegic.value.DoubleValue
2.527

@<SCITEGIC>MOL_PROPERTY
Grad RMS
SciTegic.value.DoubleValue
0.000000

@<SCITEGIC>MOL_PROPERTY
U
SciTegic.value.DoubleValue
4.508

@<SCITEGIC>MOL_PROPERTY
W
SciTegic.value.DoubleValue
-1.981

@<SCITEGIC>MOL_PROPERTY
W(PB)
SciTegic.value.DoubleValue
-3.712

@<SCITEGIC>MOL_PROPERTY
W(SA)
SciTegic.value.DoubleValue
1.732

@<SCITEGIC>MOL_PROPERTY
Valence
SciTegic.value.DoubleValue
14.705

@<SCITEGIC>MOL_PROPERTY
Coulomb
SciTegic.value.DoubleValue
-10.687

@<SCITEGIC>MOL_PROPERTY
VdW
SciTegic.value.DoubleValue
0.490

@<SCITEGIC>MOL_PROPERTY
VdW6
SciTegic.value.DoubleValue
-3.745

@<SCITEGIC>MOL_PROPERTY
VdW12
SciTegic.value.DoubleValue
4.235

@<SCITEGIC>MOL_PROPERTY
Bond
SciTegic.value.DoubleValue
0.068

@<SCITEGIC>MOL_PROPERTY
Angle
SciTegic.value.DoubleValue
3.901

@<SCITEGIC>MOL_PROPERTY
Pdih
SciTegic.value.DoubleValue
10.737

@<SCITEGIC>MOL_PROPERTY
Idih
SciTegic.value.DoubleValue
0.000

@<SCITEGIC>MOL_PROPERTY
Tether
SciTegic.value.DoubleValue
0.000

@<TRIPOS>MOLECULE
guest-4_confgen4.mol2 : confsearch ligand conformer 76
          16          16           1
SMALL
USER_CHARGES
 
@<TRIPOS>ATOM
       1    C1      20.565158   18.116401   21.632135 C.3        1 MOL1        -0.1689
       2    H1      20.220498   17.391946   20.881101 H          1 MOL1         0.0830
       3    H2      21.649781   18.244398   21.514440 H          1 MOL1         0.0830
       4    C2      20.181666   17.625020   23.034707 C.3        1 MOL1        -0.1689
       5    H3      20.310982   16.539959   23.147305 H          1 MOL1         0.0830
       6    H4      20.808391   18.125527   23.785928 H          1 MOL1         0.0830
       7    C3      18.715001   18.061154   23.205703 C.3        1 MOL1        -0.1765
       8    H5      18.472497   18.248450   24.259723 H          1 MOL1         0.0830
       9    H6      18.053825   17.261795   22.844240 H          1 MOL1         0.0830
      10    C4      18.536276   19.331666   22.348069 C.3        1 MOL1         0.1214
      11    H7      18.471021   20.217451   22.996640 H          1 MOL1         0.0787
      12    C5      19.795584   19.439454   21.463558 C.3        1 MOL1        -0.1765
      13    H8      19.550181   19.633077   20.410796 H          1 MOL1         0.0830
      14    H9      20.413676   20.273335   21.820891 H          1 MOL1         0.0830
      15    O1      17.374351   19.215963   21.535399 O.3        1 MOL1        -0.5512
      16    H10     16.610680   19.139938   22.145776 H          1 MOL1         0.3776
@<TRIPOS>BOND
    1     1     2    1
    2     1     3    1
    3     1     4    1
    4     4     5    1
    5     4     6    1
    6     4     7    1
    7     7     8    1
    8     7     9    1
    9     7    10    1
   10    10    11    1
   11     1    12    1
   12    10    12    1
   13    12    13    1
   14    12    14    1
   15    10    15    1
   16    15    16    1
@<TRIPOS>SUBSTRUCTURE
       1 MOL1            1 RESIDUE      1      MOL     
@<SCITEGIC>MOL_PROPERTY
VConf Rank
SciTegic.value.IntegerValue
76

@<SCITEGIC>MOL_PROPERTY
Conf_Id
SciTegic.value.IntegerValue
59

@<SCITEGIC>MOL_PROPERTY
Delta U+W
SciTegic.value.DoubleValue
0.000

@<SCITEGIC>MOL_PROPERTY
U+W
SciTegic.value.DoubleValue
3.010

@<SCITEGIC>MOL_PROPERTY
Grad RMS
SciTegic.value.DoubleValue
0.000000

@<SCITEGIC>MOL_PROPERTY
U
SciTegic.value.DoubleValue
5.843

@<SCITEGIC>MOL_PROPERTY
W
SciTegic.value.DoubleValue
-2.833

@<SCITEGIC>MOL_PROPERTY
W(PB)
SciTegic.value.DoubleValue
-4.568

@<SCITEGIC>MOL_PROPERTY
W(SA)
SciTegic.value.DoubleValue
1.735

@<SCITEGIC>MOL_PROPERTY
Valence
SciTegic.value.DoubleValue
13.789

@<SCITEGIC>MOL_PROPERTY
Coulomb
SciTegic.value.DoubleValue
-8.574

@<SCITEGIC>MOL_PROPERTY
VdW
SciTegic.value.DoubleValue
0.628

@<SCITEGIC>MOL_PROPERTY
VdW6
SciTegic.value.DoubleValue
-3.284

@<SCITEGIC>MOL_PROPERTY
VdW12
SciTegic.value.DoubleValue
3.912

@<SCITEGIC>MOL_PROPERTY
Bond
SciTegic.value.DoubleValue
0.054

@<SCITEGIC>MOL_PROPERTY
Angle
SciTegic.value.DoubleValue
4.034

@<SCITEGIC>MOL_PROPERTY
Pdih
SciTegic.value.DoubleValue
9.702

@<SCITEGIC>MOL_PROPERTY
Idih
SciTegic.value.DoubleValue
0.000

@<SCITEGIC>MOL_PROPERTY
Tether
SciTegic.value.DoubleValue
0.000

@<TRIPOS>MOLECULE
guest-4_confgen4.mol2 : confsearch ligand conformer 77
          16          16           1
SMALL
USER_CHARGES
 
@<TRIPOS>ATOM
       1    C1      20.268593   19.789687   22.378549 C.3        1 MOL1        -0.1689
       2    H1      20.188084   20.837376   22.698900 H          1 MOL1         0.0830
       3    H2      21.324974   19.576297   22.163733 H          1 MOL1         0.0830
       4    C2      19.418686   19.492124   21.135632 C.3        1 MOL1        -0.1689
       5    H3      18.459159   20.022653   21.209967 H          1 MOL1         0.0830
       6    H4      19.912776   19.803272   20.205200 H          1 MOL1         0.0830
       7    C3      19.173581   17.972943   21.191221 C.3        1 MOL1        -0.1765
       8    H5      19.974735   17.450534   20.652403 H          1 MOL1         0.0830
       9    H6      18.220467   17.699621   20.719112 H          1 MOL1         0.0830
      10    C4      19.225262   17.573304   22.680320 C.3        1 MOL1         0.1214
      11    H7      19.922127   16.731920   22.806700 H          1 MOL1         0.0787
      12    C5      19.745377   18.809289   23.444229 C.3        1 MOL1        -0.1765
      13    H8      18.927207   19.283272   24.003443 H          1 MOL1         0.0830
      14    H9      20.531480   18.539141   24.161103 H          1 MOL1         0.0830
      15    O1      17.925077   17.223542   23.139757 O.3        1 MOL1        -0.5512
      16    H10     18.015030   16.990936   24.088089 H          1 MOL1         0.3776
@<TRIPOS>BOND
    1     1     2    1
    2     1     3    1
    3     1     4    1
    4     4     5    1
    5     4     6    1
    6     4     7    1
    7     7     8    1
    8     7     9    1
    9     7    10    1
   10    10    11    1
   11     1    12    1
   12    10    12    1
   13    12    13    1
   14    12    14    1
   15    10    15    1
   16    15    16    1
@<TRIPOS>SUBSTRUCTURE
       1 MOL1            1 RESIDUE      1      MOL     
@<SCITEGIC>MOL_PROPERTY
VConf Rank
SciTegic.value.IntegerValue
77

@<SCITEGIC>MOL_PROPERTY
Conf_Id
SciTegic.value.IntegerValue
33

@<SCITEGIC>MOL_PROPERTY
Delta U+W
SciTegic.value.DoubleValue
0.015

@<SCITEGIC>MOL_PROPERTY
U+W
SciTegic.value.DoubleValue
3.025

@<SCITEGIC>MOL_PROPERTY
Grad RMS
SciTegic.value.DoubleValue
0.000000

@<SCITEGIC>MOL_PROPERTY
U
SciTegic.value.DoubleValue
5.843

@<SCITEGIC>MOL_PROPERTY
W
SciTegic.value.DoubleValue
-2.819

@<SCITEGIC>MOL_PROPERTY
W(PB)
SciTegic.value.DoubleValue
-4.568

@<SCITEGIC>MOL_PROPERTY
W(SA)
SciTegic.value.DoubleValue
1.750

@<SCITEGIC>MOL_PROPERTY
Valence
SciTegic.value.DoubleValue
13.789

@<SCITEGIC>MOL_PROPERTY
Coulomb
SciTegic.value.DoubleValue
-8.574

@<SCITEGIC>MOL_PROPERTY
VdW
SciTegic.value.DoubleValue
0.628

@<SCITEGIC>MOL_PROPERTY
VdW6
SciTegic.value.DoubleValue
-3.284

@<SCITEGIC>MOL_PROPERTY
VdW12
SciTegic.value.DoubleValue
3.913

@<SCITEGIC>MOL_PROPERTY
Bond
SciTegic.value.DoubleValue
0.054

@<SCITEGIC>MOL_PROPERTY
Angle
SciTegic.value.DoubleValue
4.033

@<SCITEGIC>MOL_PROPERTY
Pdih
SciTegic.value.DoubleValue
9.702

@<SCITEGIC>MOL_PROPERTY
Idih
SciTegic.value.DoubleValue
0.000

@<SCITEGIC>MOL_PROPERTY
Tether
SciTegic.value.DoubleValue
0.000

@<TRIPOS>MOLECULE
guest-4_confgen4.mol2 : confsearch ligand conformer 78
          16          16           1
SMALL
USER_CHARGES
 
@<TRIPOS>ATOM
       1    C1      20.565885   18.039602   22.037177 C.3        1 MOL1        -0.1689
       2    H1      20.794113   17.197449   22.704949 H          1 MOL1         0.0830
       3    H2      21.411866   18.155573   21.345900 H          1 MOL1         0.0830
       4    C2      20.331756   19.320198   22.868007 C.3        1 MOL1        -0.1689
       5    H3      20.447712   19.098057   23.937790 H          1 MOL1         0.0830
       6    H4      21.054652   20.106432   22.610604 H          1 MOL1         0.0830
       7    C3      18.887210   19.776159   22.571662 C.3        1 MOL1        -0.1765
       8    H5      18.900499   20.561330   21.804230 H          1 MOL1         0.0830
       9    H6      18.389509   20.186178   23.460585 H          1 MOL1         0.0830
      10    C4      18.159199   18.545987   22.013385 C.3        1 MOL1         0.1214
      11    H7      17.337977   18.832509   21.340717 H          1 MOL1         0.0787
      12    C5      19.254434   17.770514   21.269034 C.3        1 MOL1        -0.1765
      13    H8      19.027892   16.698512   21.194903 H          1 MOL1         0.0830
      14    H9      19.339669   18.165366   20.248030 H          1 MOL1         0.0830
      15    O1      17.678683   17.757313   23.092229 O.3        1 MOL1        -0.5512
      16    H10     18.470696   17.552584   23.630713 H          1 MOL1         0.3776
@<TRIPOS>BOND
    1     1     2    1
    2     1     3    1
    3     1     4    1
    4     4     5    1
    5     4     6    1
    6     4     7    1
    7     7     8    1
    8     7     9    1
    9     7    10    1
   10    10    11    1
   11     1    12    1
   12    10    12    1
   13    12    13    1
   14    12    14    1
   15    10    15    1
   16    15    16    1
@<TRIPOS>SUBSTRUCTURE
       1 MOL1            1 RESIDUE      1      MOL     
@<SCITEGIC>MOL_PROPERTY
VConf Rank
SciTegic.value.IntegerValue
78

@<SCITEGIC>MOL_PROPERTY
Conf_Id
SciTegic.value.IntegerValue
20

@<SCITEGIC>MOL_PROPERTY
Delta U+W
SciTegic.value.DoubleValue
-0.483

@<SCITEGIC>MOL_PROPERTY
U+W
SciTegic.value.DoubleValue
2.527

@<SCITEGIC>MOL_PROPERTY
Grad RMS
SciTegic.value.DoubleValue
0.000000

@<SCITEGIC>MOL_PROPERTY
U
SciTegic.value.DoubleValue
4.508

@<SCITEGIC>MOL_PROPERTY
W
SciTegic.value.DoubleValue
-1.981

@<SCITEGIC>MOL_PROPERTY
W(PB)
SciTegic.value.DoubleValue
-3.712

@<SCITEGIC>MOL_PROPERTY
W(SA)
SciTegic.value.DoubleValue
1.732

@<SCITEGIC>MOL_PROPERTY
Valence
SciTegic.value.DoubleValue
14.705

@<SCITEGIC>MOL_PROPERTY
Coulomb
SciTegic.value.DoubleValue
-10.687

@<SCITEGIC>MOL_PROPERTY
VdW
SciTegic.value.DoubleValue
0.490

@<SCITEGIC>MOL_PROPERTY
VdW6
SciTegic.value.DoubleValue
-3.745

@<SCITEGIC>MOL_PROPERTY
VdW12
SciTegic.value.DoubleValue
4.235

@<SCITEGIC>MOL_PROPERTY
Bond
SciTegic.value.DoubleValue
0.068

@<SCITEGIC>MOL_PROPERTY
Angle
SciTegic.value.DoubleValue
3.901

@<SCITEGIC>MOL_PROPERTY
Pdih
SciTegic.value.DoubleValue
10.737

@<SCITEGIC>MOL_PROPERTY
Idih
SciTegic.value.DoubleValue
0.000

@<SCITEGIC>MOL_PROPERTY
Tether
SciTegic.value.DoubleValue
0.000

@<TRIPOS>MOLECULE
guest-4_confgen4.mol2 : confsearch ligand conformer 79
          16          16           1
SMALL
USER_CHARGES
 
@<TRIPOS>ATOM
       1    C1      18.565550   19.553550   23.011771 C.3        1 MOL1        -0.1689
       2    H1      19.253094   20.393912   23.181335 H          1 MOL1         0.0830
       3    H2      17.572604   19.840950   23.383395 H          1 MOL1         0.0830
       4    C2      19.109317   18.296352   23.704231 C.3        1 MOL1        -0.1689
       5    H3      19.552347   18.517777   24.684769 H          1 MOL1         0.0830
       6    H4      18.294765   17.573365   23.850588 H          1 MOL1         0.0830
       7    C3      20.138986   17.727031   22.711149 C.3        1 MOL1        -0.1765
       8    H5      20.222749   16.636305   22.801403 H          1 MOL1         0.0830
       9    H6      21.126093   18.159947   22.923253 H          1 MOL1         0.0830
      10    C4      19.663022   18.144896   21.303837 C.3        1 MOL1         0.1214
      11    H7      19.247023   17.275727   20.773733 H          1 MOL1         0.0787
      12    C5      18.551062   19.193176   21.514757 C.3        1 MOL1        -0.1765
      13    H8      18.690266   20.081182   20.883814 H          1 MOL1         0.0830
      14    H9      17.583303   18.746101   21.252750 H          1 MOL1         0.0830
      15    O1      20.740786   18.713786   20.569889 O.3        1 MOL1        -0.5512
      16    H10     21.418599   18.011477   20.475737 H          1 MOL1         0.3776
@<TRIPOS>BOND
    1     1     2    1
    2     1     3    1
    3     1     4    1
    4     4     5    1
    5     4     6    1
    6     4     7    1
    7     7     8    1
    8     7     9    1
    9     7    10    1
   10    10    11    1
   11     1    12    1
   12    10    12    1
   13    12    13    1
   14    12    14    1
   15    10    15    1
   16    15    16    1
@<TRIPOS>SUBSTRUCTURE
       1 MOL1            1 RESIDUE      1      MOL     
@<SCITEGIC>MOL_PROPERTY
VConf Rank
SciTegic.value.IntegerValue
79

@<SCITEGIC>MOL_PROPERTY
Conf_Id
SciTegic.value.IntegerValue
59

@<SCITEGIC>MOL_PROPERTY
Delta U+W
SciTegic.value.DoubleValue
0.000

@<SCITEGIC>MOL_PROPERTY
U+W
SciTegic.value.DoubleValue
3.010

@<SCITEGIC>MOL_PROPERTY
Grad RMS
SciTegic.value.DoubleValue
0.000000

@<SCITEGIC>MOL_PROPERTY
U
SciTegic.value.DoubleValue
5.843

@<SCITEGIC>MOL_PROPERTY
W
SciTegic.value.DoubleValue
-2.833

@<SCITEGIC>MOL_PROPERTY
W(PB)
SciTegic.value.DoubleValue
-4.568

@<SCITEGIC>MOL_PROPERTY
W(SA)
SciTegic.value.DoubleValue
1.735

@<SCITEGIC>MOL_PROPERTY
Valence
SciTegic.value.DoubleValue
13.789

@<SCITEGIC>MOL_PROPERTY
Coulomb
SciTegic.value.DoubleValue
-8.574

@<SCITEGIC>MOL_PROPERTY
VdW
SciTegic.value.DoubleValue
0.628

@<SCITEGIC>MOL_PROPERTY
VdW6
SciTegic.value.DoubleValue
-3.284

@<SCITEGIC>MOL_PROPERTY
VdW12
SciTegic.value.DoubleValue
3.912

@<SCITEGIC>MOL_PROPERTY
Bond
SciTegic.value.DoubleValue
0.054

@<SCITEGIC>MOL_PROPERTY
Angle
SciTegic.value.DoubleValue
4.034

@<SCITEGIC>MOL_PROPERTY
Pdih
SciTegic.value.DoubleValue
9.702

@<SCITEGIC>MOL_PROPERTY
Idih
SciTegic.value.DoubleValue
0.000

@<SCITEGIC>MOL_PROPERTY
Tether
SciTegic.value.DoubleValue
0.000

@<TRIPOS>MOLECULE
guest-4_confgen4.mol2 : confsearch ligand conformer 80
          16          16           1
SMALL
USER_CHARGES
 
@<TRIPOS>ATOM
       1    C1      20.401670   18.071291   23.223055 C.3        1 MOL1        -0.1689
       2    H1      21.396177   17.604696   23.221584 H          1 MOL1         0.0830
       3    H2      20.115686   18.267355   24.265837 H          1 MOL1         0.0830
       4    C2      19.340581   17.186631   22.554330 C.3        1 MOL1        -0.1689
       5    H3      19.771719   16.700514   21.668051 H          1 MOL1         0.0830
       6    H4      18.962559   16.404202   23.226302 H          1 MOL1         0.0830
       7    C3      18.238492   18.169694   22.118369 C.3        1 MOL1        -0.1765
       8    H5      17.502427   18.279477   22.925364 H          1 MOL1         0.0830
       9    H6      17.706003   17.810946   21.227428 H          1 MOL1         0.0830
      10    C4      18.929884   19.527980   21.879976 C.3        1 MOL1         0.1214
      11    H7      18.395764   20.310497   22.438458 H          1 MOL1         0.0787
      12    C5      20.368973   19.383571   22.418404 C.3        1 MOL1        -0.1765
      13    H8      21.082137   19.316857   21.585501 H          1 MOL1         0.0830
      14    H9      20.655378   20.242100   23.039489 H          1 MOL1         0.0830
      15    O1      18.953805   19.828925   20.489739 O.3        1 MOL1        -0.5512
      16    H10     19.411361   20.691174   20.396471 H          1 MOL1         0.3776
@<TRIPOS>BOND
    1     1     2    1
    2     1     3    1
    3     1     4    1
    4     4     5    1
    5     4     6    1
    6     4     7    1
    7     7     8    1
    8     7     9    1
    9     7    10    1
   10    10    11    1
   11     1    12    1
   12    10    12    1
   13    12    13    1
   14    12    14    1
   15    10    15    1
   16    15    16    1
@<TRIPOS>SUBSTRUCTURE
       1 MOL1            1 RESIDUE      1      MOL     
@<SCITEGIC>MOL_PROPERTY
VConf Rank
SciTegic.value.IntegerValue
80

@<SCITEGIC>MOL_PROPERTY
Conf_Id
SciTegic.value.IntegerValue
33

@<SCITEGIC>MOL_PROPERTY
Delta U+W
SciTegic.value.DoubleValue
0.015

@<SCITEGIC>MOL_PROPERTY
U+W
SciTegic.value.DoubleValue
3.025

@<SCITEGIC>MOL_PROPERTY
Grad RMS
SciTegic.value.DoubleValue
0.000000

@<SCITEGIC>MOL_PROPERTY
U
SciTegic.value.DoubleValue
5.843

@<SCITEGIC>MOL_PROPERTY
W
SciTegic.value.DoubleValue
-2.819

@<SCITEGIC>MOL_PROPERTY
W(PB)
SciTegic.value.DoubleValue
-4.568

@<SCITEGIC>MOL_PROPERTY
W(SA)
SciTegic.value.DoubleValue
1.750

@<SCITEGIC>MOL_PROPERTY
Valence
SciTegic.value.DoubleValue
13.789

@<SCITEGIC>MOL_PROPERTY
Coulomb
SciTegic.value.DoubleValue
-8.574

@<SCITEGIC>MOL_PROPERTY
VdW
SciTegic.value.DoubleValue
0.628

@<SCITEGIC>MOL_PROPERTY
VdW6
SciTegic.value.DoubleValue
-3.284

@<SCITEGIC>MOL_PROPERTY
VdW12
SciTegic.value.DoubleValue
3.913

@<SCITEGIC>MOL_PROPERTY
Bond
SciTegic.value.DoubleValue
0.054

@<SCITEGIC>MOL_PROPERTY
Angle
SciTegic.value.DoubleValue
4.033

@<SCITEGIC>MOL_PROPERTY
Pdih
SciTegic.value.DoubleValue
9.702

@<SCITEGIC>MOL_PROPERTY
Idih
SciTegic.value.DoubleValue
0.000

@<SCITEGIC>MOL_PROPERTY
Tether
SciTegic.value.DoubleValue
0.000

@<TRIPOS>MOLECULE
guest-4_confgen4.mol2 : confsearch ligand conformer 81
          16          16           1
SMALL
USER_CHARGES
 
@<TRIPOS>ATOM
       1    C1      18.104730   18.973447   22.434802 C.3        1 MOL1        -0.1689
       2    H1      17.371459   18.215219   22.127181 H          1 MOL1         0.0830
       3    H2      17.548148   19.834884   22.828679 H          1 MOL1         0.0830
       4    C2      18.987024   19.369752   21.230840 C.3        1 MOL1        -0.1689
       5    H3      18.680072   18.804112   20.340302 H          1 MOL1         0.0830
       6    H4      18.892744   20.438747   20.995555 H          1 MOL1         0.0830
       7    C3      20.438480   19.012265   21.615436 C.3        1 MOL1        -0.1765
       8    H5      20.951972   19.909993   21.984263 H          1 MOL1         0.0830
       9    H6      21.012053   18.626034   20.762298 H          1 MOL1         0.0830
      10    C4      20.336731   17.991928   22.757168 C.3        1 MOL1         0.1214
      11    H7      21.216882   18.031703   23.414994 H          1 MOL1         0.0787
      12    C5      19.056327   18.392502   23.502193 C.3        1 MOL1        -0.1765
      13    H8      18.608787   17.548429   24.043721 H          1 MOL1         0.0830
      14    H9      19.300458   19.169915   24.238162 H          1 MOL1         0.0830
      15    O1      20.171915   16.692061   22.209455 O.3        1 MOL1        -0.5512
      16    H10     19.373970   16.752773   21.644867 H          1 MOL1         0.3776
@<TRIPOS>BOND
    1     1     2    1
    2     1     3    1
    3     1     4    1
    4     4     5    1
    5     4     6    1
    6     4     7    1
    7     7     8    1
    8     7     9    1
    9     7    10    1
   10    10    11    1
   11     1    12    1
   12    10    12    1
   13    12    13    1
   14    12    14    1
   15    10    15    1
   16    15    16    1
@<TRIPOS>SUBSTRUCTURE
       1 MOL1            1 RESIDUE      1      MOL     
@<SCITEGIC>MOL_PROPERTY
VConf Rank
SciTegic.value.IntegerValue
81

@<SCITEGIC>MOL_PROPERTY
Conf_Id
SciTegic.value.IntegerValue
20

@<SCITEGIC>MOL_PROPERTY
Delta U+W
SciTegic.value.DoubleValue
-0.483

@<SCITEGIC>MOL_PROPERTY
U+W
SciTegic.value.DoubleValue
2.527

@<SCITEGIC>MOL_PROPERTY
Grad RMS
SciTegic.value.DoubleValue
0.000000

@<SCITEGIC>MOL_PROPERTY
U
SciTegic.value.DoubleValue
4.508

@<SCITEGIC>MOL_PROPERTY
W
SciTegic.value.DoubleValue
-1.981

@<SCITEGIC>MOL_PROPERTY
W(PB)
SciTegic.value.DoubleValue
-3.712

@<SCITEGIC>MOL_PROPERTY
W(SA)
SciTegic.value.DoubleValue
1.732

@<SCITEGIC>MOL_PROPERTY
Valence
SciTegic.value.DoubleValue
14.705

@<SCITEGIC>MOL_PROPERTY
Coulomb
SciTegic.value.DoubleValue
-10.687

@<SCITEGIC>MOL_PROPERTY
VdW
SciTegic.value.DoubleValue
0.490

@<SCITEGIC>MOL_PROPERTY
VdW6
SciTegic.value.DoubleValue
-3.745

@<SCITEGIC>MOL_PROPERTY
VdW12
SciTegic.value.DoubleValue
4.235

@<SCITEGIC>MOL_PROPERTY
Bond
SciTegic.value.DoubleValue
0.068

@<SCITEGIC>MOL_PROPERTY
Angle
SciTegic.value.DoubleValue
3.901

@<SCITEGIC>MOL_PROPERTY
Pdih
SciTegic.value.DoubleValue
10.737

@<SCITEGIC>MOL_PROPERTY
Idih
SciTegic.value.DoubleValue
0.000

@<SCITEGIC>MOL_PROPERTY
Tether
SciTegic.value.DoubleValue
0.000

@<TRIPOS>MOLECULE
guest-4_confgen4.mol2 : confsearch ligand conformer 82
          16          16           1
SMALL
USER_CHARGES
 
@<TRIPOS>ATOM
       1    C1      18.171556   18.791142   23.120155 C.3        1 MOL1        -0.1689
       2    H1      17.651744   17.823444   23.152280 H          1 MOL1         0.0830
       3    H2      17.615106   19.501621   23.746436 H          1 MOL1         0.0830
       4    C2      18.291840   19.262289   21.664380 C.3        1 MOL1        -0.1689
       5    H3      17.385779   19.050732   21.080380 H          1 MOL1         0.0830
       6    H4      18.470872   20.346260   21.640260 H          1 MOL1         0.0830
       7    C3      19.525737   18.518312   21.121655 C.3        1 MOL1        -0.1765
       8    H5      20.027108   19.094701   20.333461 H          1 MOL1         0.0830
       9    H6      19.210390   17.558904   20.689362 H          1 MOL1         0.0830
      10    C4      20.456292   18.280438   22.329614 C.3        1 MOL1         0.1214
      11    H7      21.321684   18.957085   22.277035 H          1 MOL1         0.0787
      12    C5      19.627362   18.610233   23.588162 C.3        1 MOL1        -0.1765
      13    H8      19.710700   17.831522   24.358023 H          1 MOL1         0.0830
      14    H9      19.994183   19.549350   24.022424 H          1 MOL1         0.0830
      15    O1      20.880000   16.922778   22.363060 O.3        1 MOL1        -0.5512
      16    H10     21.389213   16.766723   21.539725 H          1 MOL1         0.3776
@<TRIPOS>BOND
    1     1     2    1
    2     1     3    1
    3     1     4    1
    4     4     5    1
    5     4     6    1
    6     4     7    1
    7     7     8    1
    8     7     9    1
    9     7    10    1
   10    10    11    1
   11     1    12    1
   12    10    12    1
   13    12    13    1
   14    12    14    1
   15    10    15    1
   16    15    16    1
@<TRIPOS>SUBSTRUCTURE
       1 MOL1            1 RESIDUE      1      MOL     
@<SCITEGIC>MOL_PROPERTY
VConf Rank
SciTegic.value.IntegerValue
82

@<SCITEGIC>MOL_PROPERTY
Conf_Id
SciTegic.value.IntegerValue
59

@<SCITEGIC>MOL_PROPERTY
Delta U+W
SciTegic.value.DoubleValue
0.000

@<SCITEGIC>MOL_PROPERTY
U+W
SciTegic.value.DoubleValue
3.010

@<SCITEGIC>MOL_PROPERTY
Grad RMS
SciTegic.value.DoubleValue
0.000000

@<SCITEGIC>MOL_PROPERTY
U
SciTegic.value.DoubleValue
5.843

@<SCITEGIC>MOL_PROPERTY
W
SciTegic.value.DoubleValue
-2.833

@<SCITEGIC>MOL_PROPERTY
W(PB)
SciTegic.value.DoubleValue
-4.568

@<SCITEGIC>MOL_PROPERTY
W(SA)
SciTegic.value.DoubleValue
1.735

@<SCITEGIC>MOL_PROPERTY
Valence
SciTegic.value.DoubleValue
13.789

@<SCITEGIC>MOL_PROPERTY
Coulomb
SciTegic.value.DoubleValue
-8.574

@<SCITEGIC>MOL_PROPERTY
VdW
SciTegic.value.DoubleValue
0.628

@<SCITEGIC>MOL_PROPERTY
VdW6
SciTegic.value.DoubleValue
-3.284

@<SCITEGIC>MOL_PROPERTY
VdW12
SciTegic.value.DoubleValue
3.912

@<SCITEGIC>MOL_PROPERTY
Bond
SciTegic.value.DoubleValue
0.054

@<SCITEGIC>MOL_PROPERTY
Angle
SciTegic.value.DoubleValue
4.034

@<SCITEGIC>MOL_PROPERTY
Pdih
SciTegic.value.DoubleValue
9.702

@<SCITEGIC>MOL_PROPERTY
Idih
SciTegic.value.DoubleValue
0.000

@<SCITEGIC>MOL_PROPERTY
Tether
SciTegic.value.DoubleValue
0.000

@<TRIPOS>MOLECULE
guest-4_confgen4.mol2 : confsearch ligand conformer 83
          16          16           1
SMALL
USER_CHARGES
 
@<TRIPOS>ATOM
       1    C1      18.370505   19.499658   21.970938 C.3        1 MOL1        -0.1689
       2    H1      17.316115   19.451453   21.666475 H          1 MOL1         0.0830
       3    H2      18.617219   20.547827   22.190245 H          1 MOL1         0.0830
       4    C2      19.316183   18.962392   20.887995 C.3        1 MOL1        -0.1689
       5    H3      18.869944   18.075856   20.416186 H          1 MOL1         0.0830
       6    H4      19.520043   19.703838   20.103558 H          1 MOL1         0.0830
       7    C3      20.587355   18.553600   21.654863 C.3        1 MOL1        -0.1765
       8    H5      21.278551   19.405089   21.702809 H          1 MOL1         0.0830
       9    H6      21.111002   17.726193   21.157660 H          1 MOL1         0.0830
      10    C4      20.139685   18.187979   23.085146 C.3        1 MOL1         0.1214
      11    H7      20.755847   18.738863   23.810674 H          1 MOL1         0.0787
      12    C5      18.664733   18.626224   23.204289 C.3        1 MOL1        -0.1765
      13    H8      18.004661   17.748176   23.193445 H          1 MOL1         0.0830
      14    H9      18.480928   19.174639   24.137189 H          1 MOL1         0.0830
      15    O1      20.253053   16.784892   23.291039 O.3        1 MOL1        -0.5512
      16    H10     19.946793   16.609231   24.205849 H          1 MOL1         0.3776
@<TRIPOS>BOND
    1     1     2    1
    2     1     3    1
    3     1     4    1
    4     4     5    1
    5     4     6    1
    6     4     7    1
    7     7     8    1
    8     7     9    1
    9     7    10    1
   10    10    11    1
   11     1    12    1
   12    10    12    1
   13    12    13    1
   14    12    14    1
   15    10    15    1
   16    15    16    1
@<TRIPOS>SUBSTRUCTURE
       1 MOL1            1 RESIDUE      1      MOL     
@<SCITEGIC>MOL_PROPERTY
VConf Rank
SciTegic.value.IntegerValue
83

@<SCITEGIC>MOL_PROPERTY
Conf_Id
SciTegic.value.IntegerValue
33

@<SCITEGIC>MOL_PROPERTY
Delta U+W
SciTegic.value.DoubleValue
0.015

@<SCITEGIC>MOL_PROPERTY
U+W
SciTegic.value.DoubleValue
3.025

@<SCITEGIC>MOL_PROPERTY
Grad RMS
SciTegic.value.DoubleValue
0.000000

@<SCITEGIC>MOL_PROPERTY
U
SciTegic.value.DoubleValue
5.843

@<SCITEGIC>MOL_PROPERTY
W
SciTegic.value.DoubleValue
-2.819

@<SCITEGIC>MOL_PROPERTY
W(PB)
SciTegic.value.DoubleValue
-4.568

@<SCITEGIC>MOL_PROPERTY
W(SA)
SciTegic.value.DoubleValue
1.750

@<SCITEGIC>MOL_PROPERTY
Valence
SciTegic.value.DoubleValue
13.789

@<SCITEGIC>MOL_PROPERTY
Coulomb
SciTegic.value.DoubleValue
-8.574

@<SCITEGIC>MOL_PROPERTY
VdW
SciTegic.value.DoubleValue
0.628

@<SCITEGIC>MOL_PROPERTY
VdW6
SciTegic.value.DoubleValue
-3.284

@<SCITEGIC>MOL_PROPERTY
VdW12
SciTegic.value.DoubleValue
3.913

@<SCITEGIC>MOL_PROPERTY
Bond
SciTegic.value.DoubleValue
0.054

@<SCITEGIC>MOL_PROPERTY
Angle
SciTegic.value.DoubleValue
4.033

@<SCITEGIC>MOL_PROPERTY
Pdih
SciTegic.value.DoubleValue
9.702

@<SCITEGIC>MOL_PROPERTY
Idih
SciTegic.value.DoubleValue
0.000

@<SCITEGIC>MOL_PROPERTY
Tether
SciTegic.value.DoubleValue
0.000

@<TRIPOS>MOLECULE
guest-4_confgen4.mol2 : confsearch ligand conformer 84
          16          16           1
SMALL
USER_CHARGES
 
@<TRIPOS>ATOM
       1    C1      20.530058   19.033518   22.786405 C.3        1 MOL1        -0.1689
       2    H1      20.488972   20.047848   23.206731 H          1 MOL1         0.0830
       3    H2      21.545557   18.646667   22.947978 H          1 MOL1         0.0830
       4    C2      20.169188   19.072005   21.285301 C.3        1 MOL1        -0.1689
       5    H3      19.954487   20.105080   20.978895 H          1 MOL1         0.0830
       6    H4      20.995573   18.704317   20.661688 H          1 MOL1         0.0830
       7    C3      18.911886   18.193061   21.114758 C.3        1 MOL1        -0.1765
       8    H5      19.207634   17.191708   20.774984 H          1 MOL1         0.0830
       9    H6      18.213672   18.604650   20.373747 H          1 MOL1         0.0830
      10    C4      18.280050   18.079869   22.508660 C.3        1 MOL1         0.1214
      11    H7      17.712487   17.144854   22.620920 H          1 MOL1         0.0787
      12    C5      19.477988   18.131767   23.466369 C.3        1 MOL1        -0.1765
      13    H8      19.198043   18.497583   24.463271 H          1 MOL1         0.0830
      14    H9      19.884383   17.118569   23.584243 H          1 MOL1         0.0830
      15    O1      17.448500   19.207974   22.738247 O.3        1 MOL1        -0.5512
      16    H10     18.033275   19.984294   22.617715 H          1 MOL1         0.3776
@<TRIPOS>BOND
    1     1     2    1
    2     1     3    1
    3     1     4    1
    4     4     5    1
    5     4     6    1
    6     4     7    1
    7     7     8    1
    8     7     9    1
    9     7    10    1
   10    10    11    1
   11     1    12    1
   12    10    12    1
   13    12    13    1
   14    12    14    1
   15    10    15    1
   16    15    16    1
@<TRIPOS>SUBSTRUCTURE
       1 MOL1            1 RESIDUE      1      MOL     
@<SCITEGIC>MOL_PROPERTY
VConf Rank
SciTegic.value.IntegerValue
84

@<SCITEGIC>MOL_PROPERTY
Conf_Id
SciTegic.value.IntegerValue
20

@<SCITEGIC>MOL_PROPERTY
Delta U+W
SciTegic.value.DoubleValue
-0.483

@<SCITEGIC>MOL_PROPERTY
U+W
SciTegic.value.DoubleValue
2.527

@<SCITEGIC>MOL_PROPERTY
Grad RMS
SciTegic.value.DoubleValue
0.000000

@<SCITEGIC>MOL_PROPERTY
U
SciTegic.value.DoubleValue
4.508

@<SCITEGIC>MOL_PROPERTY
W
SciTegic.value.DoubleValue
-1.981

@<SCITEGIC>MOL_PROPERTY
W(PB)
SciTegic.value.DoubleValue
-3.712

@<SCITEGIC>MOL_PROPERTY
W(SA)
SciTegic.value.DoubleValue
1.732

@<SCITEGIC>MOL_PROPERTY
Valence
SciTegic.value.DoubleValue
14.705

@<SCITEGIC>MOL_PROPERTY
Coulomb
SciTegic.value.DoubleValue
-10.687

@<SCITEGIC>MOL_PROPERTY
VdW
SciTegic.value.DoubleValue
0.490

@<SCITEGIC>MOL_PROPERTY
VdW6
SciTegic.value.DoubleValue
-3.745

@<SCITEGIC>MOL_PROPERTY
VdW12
SciTegic.value.DoubleValue
4.235

@<SCITEGIC>MOL_PROPERTY
Bond
SciTegic.value.DoubleValue
0.068

@<SCITEGIC>MOL_PROPERTY
Angle
SciTegic.value.DoubleValue
3.901

@<SCITEGIC>MOL_PROPERTY
Pdih
SciTegic.value.DoubleValue
10.737

@<SCITEGIC>MOL_PROPERTY
Idih
SciTegic.value.DoubleValue
0.000

@<SCITEGIC>MOL_PROPERTY
Tether
SciTegic.value.DoubleValue
0.000

@<TRIPOS>MOLECULE
guest-4_confgen4.mol2 : confsearch ligand conformer 85
          16          16           1
SMALL
USER_CHARGES
 
@<TRIPOS>ATOM
       1    C1      19.976468   18.916137   21.049137 C.3        1 MOL1        -0.1689
       2    H1      19.390523   18.387131   20.284612 H          1 MOL1         0.0830
       3    H2      20.732595   19.529153   20.540092 H          1 MOL1         0.0830
       4    C2      20.599704   17.898810   22.014718 C.3        1 MOL1        -0.1689
       5    H3      20.964049   17.000667   21.497657 H          1 MOL1         0.0830
       6    H4      21.447097   18.359810   22.541054 H          1 MOL1         0.0830
       7    C3      19.474206   17.582153   23.016486 C.3        1 MOL1        -0.1765
       8    H5      19.877765   17.308726   23.999962 H          1 MOL1         0.0830
       9    H6      18.885802   16.732110   22.645012 H          1 MOL1         0.0830
      10    C4      18.594256   18.847463   23.096225 C.3        1 MOL1         0.1214
      11    H7      18.769090   19.368039   24.049090 H          1 MOL1         0.0787
      12    C5      19.034455   19.756937   21.930499 C.3        1 MOL1        -0.1765
      13    H8      18.180761   20.142035   21.356977 H          1 MOL1         0.0830
      14    H9      19.580425   20.618908   22.335473 H          1 MOL1         0.0830
      15    O1      17.221676   18.500495   22.956494 O.3        1 MOL1        -0.5512
      16    H10     17.000693   17.916959   23.712922 H          1 MOL1         0.3776
@<TRIPOS>BOND
    1     1     2    1
    2     1     3    1
    3     1     4    1
    4     4     5    1
    5     4     6    1
    6     4     7    1
    7     7     8    1
    8     7     9    1
    9     7    10    1
   10    10    11    1
   11     1    12    1
   12    10    12    1
   13    12    13    1
   14    12    14    1
   15    10    15    1
   16    15    16    1
@<TRIPOS>SUBSTRUCTURE
       1 MOL1            1 RESIDUE      1      MOL     
@<SCITEGIC>MOL_PROPERTY
VConf Rank
SciTegic.value.IntegerValue
85

@<SCITEGIC>MOL_PROPERTY
Conf_Id
SciTegic.value.IntegerValue
59

@<SCITEGIC>MOL_PROPERTY
Delta U+W
SciTegic.value.DoubleValue
0.000

@<SCITEGIC>MOL_PROPERTY
U+W
SciTegic.value.DoubleValue
3.010

@<SCITEGIC>MOL_PROPERTY
Grad RMS
SciTegic.value.DoubleValue
0.000000

@<SCITEGIC>MOL_PROPERTY
U
SciTegic.value.DoubleValue
5.843

@<SCITEGIC>MOL_PROPERTY
W
SciTegic.value.DoubleValue
-2.833

@<SCITEGIC>MOL_PROPERTY
W(PB)
SciTegic.value.DoubleValue
-4.568

@<SCITEGIC>MOL_PROPERTY
W(SA)
SciTegic.value.DoubleValue
1.735

@<SCITEGIC>MOL_PROPERTY
Valence
SciTegic.value.DoubleValue
13.789

@<SCITEGIC>MOL_PROPERTY
Coulomb
SciTegic.value.DoubleValue
-8.574

@<SCITEGIC>MOL_PROPERTY
VdW
SciTegic.value.DoubleValue
0.628

@<SCITEGIC>MOL_PROPERTY
VdW6
SciTegic.value.DoubleValue
-3.284

@<SCITEGIC>MOL_PROPERTY
VdW12
SciTegic.value.DoubleValue
3.912

@<SCITEGIC>MOL_PROPERTY
Bond
SciTegic.value.DoubleValue
0.054

@<SCITEGIC>MOL_PROPERTY
Angle
SciTegic.value.DoubleValue
4.034

@<SCITEGIC>MOL_PROPERTY
Pdih
SciTegic.value.DoubleValue
9.702

@<SCITEGIC>MOL_PROPERTY
Idih
SciTegic.value.DoubleValue
0.000

@<SCITEGIC>MOL_PROPERTY
Tether
SciTegic.value.DoubleValue
0.000

@<TRIPOS>MOLECULE
guest-4_confgen4.mol2 : confsearch ligand conformer 86
          16          16           1
SMALL
USER_CHARGES
 
@<TRIPOS>ATOM
       1    C1      20.375965   19.708904   22.227189 C.3        1 MOL1        -0.1689
       2    H1      21.413122   19.941680   22.504461 H          1 MOL1         0.0830
       3    H2      19.984564   20.543680   21.629213 H          1 MOL1         0.0830
       4    C2      19.479492   19.487118   23.453107 C.3        1 MOL1        -0.1689
       5    H3      20.034138   18.926335   24.218332 H          1 MOL1         0.0830
       6    H4      19.137095   20.430949   23.898742 H          1 MOL1         0.0830
       7    C3      18.314204   18.628415   22.927933 C.3        1 MOL1        -0.1765
       8    H5      17.506259   19.281297   22.572891 H          1 MOL1         0.0830
       9    H6      17.900734   17.983321   23.714645 H          1 MOL1         0.0830
      10    C4      18.866630   17.818560   21.736816 C.3        1 MOL1         0.1214
      11    H7      18.203959   17.950699   20.869103 H          1 MOL1         0.0787
      12    C5      20.263335   18.397789   21.427876 C.3        1 MOL1        -0.1765
      13    H8      21.045928   17.701810   21.759454 H          1 MOL1         0.0830
      14    H9      20.399525   18.570697   20.352515 H          1 MOL1         0.0830
      15    O1      18.971655   16.443267   22.085292 O.3        1 MOL1        -0.5512
      16    H10     19.336010   15.981391   21.300789 H          1 MOL1         0.3776
@<TRIPOS>BOND
    1     1     2    1
    2     1     3    1
    3     1     4    1
    4     4     5    1
    5     4     6    1
    6     4     7    1
    7     7     8    1
    8     7     9    1
    9     7    10    1
   10    10    11    1
   11     1    12    1
   12    10    12    1
   13    12    13    1
   14    12    14    1
   15    10    15    1
   16    15    16    1
@<TRIPOS>SUBSTRUCTURE
       1 MOL1            1 RESIDUE      1      MOL     
@<SCITEGIC>MOL_PROPERTY
VConf Rank
SciTegic.value.IntegerValue
86

@<SCITEGIC>MOL_PROPERTY
Conf_Id
SciTegic.value.IntegerValue
33

@<SCITEGIC>MOL_PROPERTY
Delta U+W
SciTegic.value.DoubleValue
0.015

@<SCITEGIC>MOL_PROPERTY
U+W
SciTegic.value.DoubleValue
3.025

@<SCITEGIC>MOL_PROPERTY
Grad RMS
SciTegic.value.DoubleValue
0.000000

@<SCITEGIC>MOL_PROPERTY
U
SciTegic.value.DoubleValue
5.843

@<SCITEGIC>MOL_PROPERTY
W
SciTegic.value.DoubleValue
-2.819

@<SCITEGIC>MOL_PROPERTY
W(PB)
SciTegic.value.DoubleValue
-4.568

@<SCITEGIC>MOL_PROPERTY
W(SA)
SciTegic.value.DoubleValue
1.750

@<SCITEGIC>MOL_PROPERTY
Valence
SciTegic.value.DoubleValue
13.789

@<SCITEGIC>MOL_PROPERTY
Coulomb
SciTegic.value.DoubleValue
-8.574

@<SCITEGIC>MOL_PROPERTY
VdW
SciTegic.value.DoubleValue
0.628

@<SCITEGIC>MOL_PROPERTY
VdW6
SciTegic.value.DoubleValue
-3.284

@<SCITEGIC>MOL_PROPERTY
VdW12
SciTegic.value.DoubleValue
3.913

@<SCITEGIC>MOL_PROPERTY
Bond
SciTegic.value.DoubleValue
0.054

@<SCITEGIC>MOL_PROPERTY
Angle
SciTegic.value.DoubleValue
4.033

@<SCITEGIC>MOL_PROPERTY
Pdih
SciTegic.value.DoubleValue
9.702

@<SCITEGIC>MOL_PROPERTY
Idih
SciTegic.value.DoubleValue
0.000

@<SCITEGIC>MOL_PROPERTY
Tether
SciTegic.value.DoubleValue
0.000

@<TRIPOS>MOLECULE
guest-4_confgen4.mol2 : confsearch ligand conformer 87
          16          16           1
SMALL
USER_CHARGES
 
@<TRIPOS>ATOM
       1    C1      18.402800   17.707467   22.122147 C.3        1 MOL1        -0.1689
       2    H1      17.392037   18.105708   22.286433 H          1 MOL1         0.0830
       3    H2      18.304428   16.643294   21.867479 H          1 MOL1         0.0830
       4    C2      19.260071   17.910961   23.390492 C.3        1 MOL1        -0.1689
       5    H3      18.663902   18.406721   24.168971 H          1 MOL1         0.0830
       6    H4      19.610997   16.953259   23.798730 H          1 MOL1         0.0830
       7    C3      20.447504   18.806280   22.977162 C.3        1 MOL1        -0.1765
       8    H5      21.325433   18.179596   22.771913 H          1 MOL1         0.0830
       9    H6      20.723664   19.520862   23.764000 H          1 MOL1         0.0830
      10    C4      20.020728   19.506324   21.679936 C.3        1 MOL1         0.1214
      11    H7      20.887706   19.760783   21.053372 H          1 MOL1         0.0787
      12    C5      19.105066   18.486452   20.989732 C.3        1 MOL1        -0.1765
      13    H8      18.389533   18.964613   20.307545 H          1 MOL1         0.0830
      14    H9      19.721525   17.797100   20.397792 H          1 MOL1         0.0830
      15    O1      19.269120   20.667787   22.000705 O.3        1 MOL1        -0.5512
      16    H10     18.527239   20.346559   22.553506 H          1 MOL1         0.3776
@<TRIPOS>BOND
    1     1     2    1
    2     1     3    1
    3     1     4    1
    4     4     5    1
    5     4     6    1
    6     4     7    1
    7     7     8    1
    8     7     9    1
    9     7    10    1
   10    10    11    1
   11     1    12    1
   12    10    12    1
   13    12    13    1
   14    12    14    1
   15    10    15    1
   16    15    16    1
@<TRIPOS>SUBSTRUCTURE
       1 MOL1            1 RESIDUE      1      MOL     
@<SCITEGIC>MOL_PROPERTY
VConf Rank
SciTegic.value.IntegerValue
87

@<SCITEGIC>MOL_PROPERTY
Conf_Id
SciTegic.value.IntegerValue
20

@<SCITEGIC>MOL_PROPERTY
Delta U+W
SciTegic.value.DoubleValue
-0.483

@<SCITEGIC>MOL_PROPERTY
U+W
SciTegic.value.DoubleValue
2.527

@<SCITEGIC>MOL_PROPERTY
Grad RMS
SciTegic.value.DoubleValue
0.000000

@<SCITEGIC>MOL_PROPERTY
U
SciTegic.value.DoubleValue
4.508

@<SCITEGIC>MOL_PROPERTY
W
SciTegic.value.DoubleValue
-1.981

@<SCITEGIC>MOL_PROPERTY
W(PB)
SciTegic.value.DoubleValue
-3.712

@<SCITEGIC>MOL_PROPERTY
W(SA)
SciTegic.value.DoubleValue
1.732

@<SCITEGIC>MOL_PROPERTY
Valence
SciTegic.value.DoubleValue
14.705

@<SCITEGIC>MOL_PROPERTY
Coulomb
SciTegic.value.DoubleValue
-10.687

@<SCITEGIC>MOL_PROPERTY
VdW
SciTegic.value.DoubleValue
0.490

@<SCITEGIC>MOL_PROPERTY
VdW6
SciTegic.value.DoubleValue
-3.745

@<SCITEGIC>MOL_PROPERTY
VdW12
SciTegic.value.DoubleValue
4.235

@<SCITEGIC>MOL_PROPERTY
Bond
SciTegic.value.DoubleValue
0.068

@<SCITEGIC>MOL_PROPERTY
Angle
SciTegic.value.DoubleValue
3.901

@<SCITEGIC>MOL_PROPERTY
Pdih
SciTegic.value.DoubleValue
10.737

@<SCITEGIC>MOL_PROPERTY
Idih
SciTegic.value.DoubleValue
0.000

@<SCITEGIC>MOL_PROPERTY
Tether
SciTegic.value.DoubleValue
0.000

@<TRIPOS>MOLECULE
guest-4_confgen4.mol2 : confsearch ligand conformer 88
          16          16           1
SMALL
USER_CHARGES
 
@<TRIPOS>ATOM
       1    C1      19.746843   19.795915   22.962593 C.3        1 MOL1        -0.1689
       2    H1      20.363157   20.323031   22.220985 H          1 MOL1         0.0830
       3    H2      19.639404   20.443389   23.843433 H          1 MOL1         0.0830
       4    C2      20.393404   18.446081   23.302645 C.3        1 MOL1        -0.1689
       5    H3      21.487604   18.512810   23.373575 H          1 MOL1         0.0830
       6    H4      20.008093   18.083883   24.265959 H          1 MOL1         0.0830
       7    C3      19.935764   17.506460   22.172054 C.3        1 MOL1        -0.1765
       8    H5      19.870941   16.466275   22.516523 H          1 MOL1         0.0830
       9    H6      20.664011   17.545070   21.350501 H          1 MOL1         0.0830
      10    C4      18.565171   18.033123   21.696889 C.3        1 MOL1         0.1214
      11    H7      17.763504   17.368015   22.049707 H          1 MOL1         0.0787
      12    C5      18.389709   19.426166   22.336013 C.3        1 MOL1        -0.1765
      13    H8      18.061551   20.180305   21.608271 H          1 MOL1         0.0830
      14    H9      17.625365   19.365835   23.121645 H          1 MOL1         0.0830
      15    O1      18.544520   18.138047   20.278280 O.3        1 MOL1        -0.5512
      16    H10     18.670524   17.231131   19.927338 H          1 MOL1         0.3776
@<TRIPOS>BOND
    1     1     2    1
    2     1     3    1
    3     1     4    1
    4     4     5    1
    5     4     6    1
    6     4     7    1
    7     7     8    1
    8     7     9    1
    9     7    10    1
   10    10    11    1
   11     1    12    1
   12    10    12    1
   13    12    13    1
   14    12    14    1
   15    10    15    1
   16    15    16    1
@<TRIPOS>SUBSTRUCTURE
       1 MOL1            1 RESIDUE      1      MOL     
@<SCITEGIC>MOL_PROPERTY
VConf Rank
SciTegic.value.IntegerValue
88

@<SCITEGIC>MOL_PROPERTY
Conf_Id
SciTegic.value.IntegerValue
59

@<SCITEGIC>MOL_PROPERTY
Delta U+W
SciTegic.value.DoubleValue
0.000

@<SCITEGIC>MOL_PROPERTY
U+W
SciTegic.value.DoubleValue
3.010

@<SCITEGIC>MOL_PROPERTY
Grad RMS
SciTegic.value.DoubleValue
0.000000

@<SCITEGIC>MOL_PROPERTY
U
SciTegic.value.DoubleValue
5.843

@<SCITEGIC>MOL_PROPERTY
W
SciTegic.value.DoubleValue
-2.833

@<SCITEGIC>MOL_PROPERTY
W(PB)
SciTegic.value.DoubleValue
-4.568

@<SCITEGIC>MOL_PROPERTY
W(SA)
SciTegic.value.DoubleValue
1.735

@<SCITEGIC>MOL_PROPERTY
Valence
SciTegic.value.DoubleValue
13.789

@<SCITEGIC>MOL_PROPERTY
Coulomb
SciTegic.value.DoubleValue
-8.574

@<SCITEGIC>MOL_PROPERTY
VdW
SciTegic.value.DoubleValue
0.628

@<SCITEGIC>MOL_PROPERTY
VdW6
SciTegic.value.DoubleValue
-3.284

@<SCITEGIC>MOL_PROPERTY
VdW12
SciTegic.value.DoubleValue
3.912

@<SCITEGIC>MOL_PROPERTY
Bond
SciTegic.value.DoubleValue
0.054

@<SCITEGIC>MOL_PROPERTY
Angle
SciTegic.value.DoubleValue
4.034

@<SCITEGIC>MOL_PROPERTY
Pdih
SciTegic.value.DoubleValue
9.702

@<SCITEGIC>MOL_PROPERTY
Idih
SciTegic.value.DoubleValue
0.000

@<SCITEGIC>MOL_PROPERTY
Tether
SciTegic.value.DoubleValue
0.000

@<TRIPOS>MOLECULE
guest-4_confgen4.mol2 : confsearch ligand conformer 89
          16          16           1
SMALL
USER_CHARGES
 
@<TRIPOS>ATOM
       1    C1      20.180933   19.588932   23.050914 C.3        1 MOL1        -0.1689
       2    H1      20.932743   20.374238   22.893322 H          1 MOL1         0.0830
       3    H2      19.817510   19.663813   24.085293 H          1 MOL1         0.0830
       4    C2      20.744081   18.182991   22.802077 C.3        1 MOL1        -0.1689
       5    H3      21.413939   18.203407   21.931128 H          1 MOL1         0.0830
       6    H4      21.309460   17.799221   23.662141 H          1 MOL1         0.0830
       7    C3      19.507188   17.323784   22.481241 C.3        1 MOL1        -0.1765
       8    H5      19.105112   16.895963   23.408813 H          1 MOL1         0.0830
       9    H6      19.756402   16.491004   21.810131 H          1 MOL1         0.0830
      10    C4      18.457709   18.274754   21.869646 C.3        1 MOL1         0.1214
      11    H7      17.503130   18.153074   22.402086 H          1 MOL1         0.0787
      12    C5      18.997349   19.706222   22.073170 C.3        1 MOL1        -0.1765
      13    H8      19.353730   20.117928   21.119088 H          1 MOL1         0.0830
      14    H9      18.221396   20.378456   22.461558 H          1 MOL1         0.0830
      15    O1      18.298634   18.002735   20.482347 O.3        1 MOL1        -0.5512
      16    H10     17.633298   18.639387   20.145403 H          1 MOL1         0.3776
@<TRIPOS>BOND
    1     1     2    1
    2     1     3    1
    3     1     4    1
    4     4     5    1
    5     4     6    1
    6     4     7    1
    7     7     8    1
    8     7     9    1
    9     7    10    1
   10    10    11    1
   11     1    12    1
   12    10    12    1
   13    12    13    1
   14    12    14    1
   15    10    15    1
   16    15    16    1
@<TRIPOS>SUBSTRUCTURE
       1 MOL1            1 RESIDUE      1      MOL     
@<SCITEGIC>MOL_PROPERTY
VConf Rank
SciTegic.value.IntegerValue
89

@<SCITEGIC>MOL_PROPERTY
Conf_Id
SciTegic.value.IntegerValue
33

@<SCITEGIC>MOL_PROPERTY
Delta U+W
SciTegic.value.DoubleValue
0.015

@<SCITEGIC>MOL_PROPERTY
U+W
SciTegic.value.DoubleValue
3.025

@<SCITEGIC>MOL_PROPERTY
Grad RMS
SciTegic.value.DoubleValue
0.000000

@<SCITEGIC>MOL_PROPERTY
U
SciTegic.value.DoubleValue
5.843

@<SCITEGIC>MOL_PROPERTY
W
SciTegic.value.DoubleValue
-2.819

@<SCITEGIC>MOL_PROPERTY
W(PB)
SciTegic.value.DoubleValue
-4.568

@<SCITEGIC>MOL_PROPERTY
W(SA)
SciTegic.value.DoubleValue
1.750

@<SCITEGIC>MOL_PROPERTY
Valence
SciTegic.value.DoubleValue
13.789

@<SCITEGIC>MOL_PROPERTY
Coulomb
SciTegic.value.DoubleValue
-8.574

@<SCITEGIC>MOL_PROPERTY
VdW
SciTegic.value.DoubleValue
0.628

@<SCITEGIC>MOL_PROPERTY
VdW6
SciTegic.value.DoubleValue
-3.284

@<SCITEGIC>MOL_PROPERTY
VdW12
SciTegic.value.DoubleValue
3.913

@<SCITEGIC>MOL_PROPERTY
Bond
SciTegic.value.DoubleValue
0.054

@<SCITEGIC>MOL_PROPERTY
Angle
SciTegic.value.DoubleValue
4.033

@<SCITEGIC>MOL_PROPERTY
Pdih
SciTegic.value.DoubleValue
9.702

@<SCITEGIC>MOL_PROPERTY
Idih
SciTegic.value.DoubleValue
0.000

@<SCITEGIC>MOL_PROPERTY
Tether
SciTegic.value.DoubleValue
0.000

@<TRIPOS>MOLECULE
guest-4_confgen4.mol2 : confsearch ligand conformer 90
          16          16           1
SMALL
USER_CHARGES
 
@<TRIPOS>ATOM
       1    C1      19.262209   17.593274   21.399469 C.3        1 MOL1        -0.1689
       2    H1      19.011264   16.631888   21.868499 H          1 MOL1         0.0830
       3    H2      19.329231   17.427827   20.315434 H          1 MOL1         0.0830
       4    C2      20.591696   18.127607   21.975641 C.3        1 MOL1        -0.1689
       5    H3      20.984718   17.424325   22.722737 H          1 MOL1         0.0830
       6    H4      21.353887   18.242639   21.192804 H          1 MOL1         0.0830
       7    C3      20.267961   19.483552   22.638247 C.3        1 MOL1        -0.1765
       8    H5      20.514992   20.298719   21.945355 H          1 MOL1         0.0830
       9    H6      20.841948   19.643642   23.560698 H          1 MOL1         0.0830
      10    C4      18.753879   19.483774   22.888341 C.3        1 MOL1         0.1214
      11    H7      18.343967   20.504046   22.888558 H          1 MOL1         0.0787
      12    C5      18.185258   18.646985   21.734473 C.3        1 MOL1        -0.1765
      13    H8      17.219961   18.189277   21.988854 H          1 MOL1         0.0830
      14    H9      18.027119   19.299064   20.865332 H          1 MOL1         0.0830
      15    O1      18.483007   18.828688   24.118909 O.3        1 MOL1        -0.5512
      16    H10     18.880655   17.938457   24.026564 H          1 MOL1         0.3776
@<TRIPOS>BOND
    1     1     2    1
    2     1     3    1
    3     1     4    1
    4     4     5    1
    5     4     6    1
    6     4     7    1
    7     7     8    1
    8     7     9    1
    9     7    10    1
   10    10    11    1
   11     1    12    1
   12    10    12    1
   13    12    13    1
   14    12    14    1
   15    10    15    1
   16    15    16    1
@<TRIPOS>SUBSTRUCTURE
       1 MOL1            1 RESIDUE      1      MOL     
@<SCITEGIC>MOL_PROPERTY
VConf Rank
SciTegic.value.IntegerValue
90

@<SCITEGIC>MOL_PROPERTY
Conf_Id
SciTegic.value.IntegerValue
20

@<SCITEGIC>MOL_PROPERTY
Delta U+W
SciTegic.value.DoubleValue
-0.483

@<SCITEGIC>MOL_PROPERTY
U+W
SciTegic.value.DoubleValue
2.527

@<SCITEGIC>MOL_PROPERTY
Grad RMS
SciTegic.value.DoubleValue
0.000000

@<SCITEGIC>MOL_PROPERTY
U
SciTegic.value.DoubleValue
4.508

@<SCITEGIC>MOL_PROPERTY
W
SciTegic.value.DoubleValue
-1.981

@<SCITEGIC>MOL_PROPERTY
W(PB)
SciTegic.value.DoubleValue
-3.712

@<SCITEGIC>MOL_PROPERTY
W(SA)
SciTegic.value.DoubleValue
1.732

@<SCITEGIC>MOL_PROPERTY
Valence
SciTegic.value.DoubleValue
14.705

@<SCITEGIC>MOL_PROPERTY
Coulomb
SciTegic.value.DoubleValue
-10.687

@<SCITEGIC>MOL_PROPERTY
VdW
SciTegic.value.DoubleValue
0.490

@<SCITEGIC>MOL_PROPERTY
VdW6
SciTegic.value.DoubleValue
-3.745

@<SCITEGIC>MOL_PROPERTY
VdW12
SciTegic.value.DoubleValue
4.235

@<SCITEGIC>MOL_PROPERTY
Bond
SciTegic.value.DoubleValue
0.068

@<SCITEGIC>MOL_PROPERTY
Angle
SciTegic.value.DoubleValue
3.901

@<SCITEGIC>MOL_PROPERTY
Pdih
SciTegic.value.DoubleValue
10.737

@<SCITEGIC>MOL_PROPERTY
Idih
SciTegic.value.DoubleValue
0.000

@<SCITEGIC>MOL_PROPERTY
Tether
SciTegic.value.DoubleValue
0.000

@<TRIPOS>MOLECULE
guest-4_confgen4.mol2 : confsearch ligand conformer 91
          16          16           1
SMALL
USER_CHARGES
 
@<TRIPOS>ATOM
       1    C1      19.032189   18.252116   20.929844 C.3        1 MOL1        -0.1689
       2    H1      19.626335   17.360388   20.685941 H          1 MOL1         0.0830
       3    H2      18.410995   18.500591   20.058625 H          1 MOL1         0.0830
       4    C2      19.968689   19.400818   21.328815 C.3        1 MOL1        -0.1689
       5    H3      20.873846   19.437165   20.707422 H          1 MOL1         0.0830
       6    H4      19.442210   20.359858   21.225437 H          1 MOL1         0.0830
       7    C3      20.286540   19.138312   22.812263 C.3        1 MOL1        -0.1765
       8    H5      20.490339   20.073082   23.350332 H          1 MOL1         0.0830
       9    H6      21.181083   18.504901   22.885527 H          1 MOL1         0.0830
      10    C4      19.061564   18.403244   23.396033 C.3        1 MOL1         0.1214
      11    H7      18.485570   19.084081   24.039624 H          1 MOL1         0.0787
      12    C5      18.192860   17.982979   22.192469 C.3        1 MOL1        -0.1765
      13    H8      17.877967   16.932604   22.252270 H          1 MOL1         0.0830
      14    H9      17.286709   18.602276   22.171466 H          1 MOL1         0.0830
      15    O1      19.479307   17.254821   24.124391 O.3        1 MOL1        -0.5512
      16    H10     20.033365   17.578298   24.865954 H          1 MOL1         0.3776
@<TRIPOS>BOND
    1     1     2    1
    2     1     3    1
    3     1     4    1
    4     4     5    1
    5     4     6    1
    6     4     7    1
    7     7     8    1
    8     7     9    1
    9     7    10    1
   10    10    11    1
   11     1    12    1
   12    10    12    1
   13    12    13    1
   14    12    14    1
   15    10    15    1
   16    15    16    1
@<TRIPOS>SUBSTRUCTURE
       1 MOL1            1 RESIDUE      1      MOL     
@<SCITEGIC>MOL_PROPERTY
VConf Rank
SciTegic.value.IntegerValue
91

@<SCITEGIC>MOL_PROPERTY
Conf_Id
SciTegic.value.IntegerValue
59

@<SCITEGIC>MOL_PROPERTY
Delta U+W
SciTegic.value.DoubleValue
0.000

@<SCITEGIC>MOL_PROPERTY
U+W
SciTegic.value.DoubleValue
3.010

@<SCITEGIC>MOL_PROPERTY
Grad RMS
SciTegic.value.DoubleValue
0.000000

@<SCITEGIC>MOL_PROPERTY
U
SciTegic.value.DoubleValue
5.843

@<SCITEGIC>MOL_PROPERTY
W
SciTegic.value.DoubleValue
-2.833

@<SCITEGIC>MOL_PROPERTY
W(PB)
SciTegic.value.DoubleValue
-4.568

@<SCITEGIC>MOL_PROPERTY
W(SA)
SciTegic.value.DoubleValue
1.735

@<SCITEGIC>MOL_PROPERTY
Valence
SciTegic.value.DoubleValue
13.789

@<SCITEGIC>MOL_PROPERTY
Coulomb
SciTegic.value.DoubleValue
-8.574

@<SCITEGIC>MOL_PROPERTY
VdW
SciTegic.value.DoubleValue
0.628

@<SCITEGIC>MOL_PROPERTY
VdW6
SciTegic.value.DoubleValue
-3.284

@<SCITEGIC>MOL_PROPERTY
VdW12
SciTegic.value.DoubleValue
3.912

@<SCITEGIC>MOL_PROPERTY
Bond
SciTegic.value.DoubleValue
0.054

@<SCITEGIC>MOL_PROPERTY
Angle
SciTegic.value.DoubleValue
4.034

@<SCITEGIC>MOL_PROPERTY
Pdih
SciTegic.value.DoubleValue
9.702

@<SCITEGIC>MOL_PROPERTY
Idih
SciTegic.value.DoubleValue
0.000

@<SCITEGIC>MOL_PROPERTY
Tether
SciTegic.value.DoubleValue
0.000

@<TRIPOS>MOLECULE
guest-4_confgen4.mol2 : confsearch ligand conformer 92
          16          16           1
SMALL
USER_CHARGES
 
@<TRIPOS>ATOM
       1    C1      19.600758   19.606962   21.268203 C.3        1 MOL1        -0.1689
       2    H1      19.062012   19.982678   20.387664 H          1 MOL1         0.0830
       3    H2      20.449522   20.277104   21.463476 H          1 MOL1         0.0830
       4    C2      20.109998   18.172286   21.073000 C.3        1 MOL1        -0.1689
       5    H3      19.352472   17.582114   20.538649 H          1 MOL1         0.0830
       6    H4      21.045067   18.133609   20.497853 H          1 MOL1         0.0830
       7    C3      20.276287   17.624675   22.502526 C.3        1 MOL1        -0.1765
       8    H5      21.291811   17.835671   22.862077 H          1 MOL1         0.0830
       9    H6      20.128674   16.537049   22.538584 H          1 MOL1         0.0830
      10    C4      19.262772   18.382710   23.384552 C.3        1 MOL1         0.1214
      11    H7      19.781947   18.795429   24.261843 H          1 MOL1         0.0787
      12    C5      18.701650   19.528045   22.515595 C.3        1 MOL1        -0.1765
      13    H8      17.671664   19.302484   22.207321 H          1 MOL1         0.0830
      14    H9      18.689211   20.480015   23.061897 H          1 MOL1         0.0830
      15    O1      18.212550   17.510676   23.785159 O.3        1 MOL1        -0.5512
      16    H10     17.596223   18.044405   24.329957 H          1 MOL1         0.3776
@<TRIPOS>BOND
    1     1     2    1
    2     1     3    1
    3     1     4    1
    4     4     5    1
    5     4     6    1
    6     4     7    1
    7     7     8    1
    8     7     9    1
    9     7    10    1
   10    10    11    1
   11     1    12    1
   12    10    12    1
   13    12    13    1
   14    12    14    1
   15    10    15    1
   16    15    16    1
@<TRIPOS>SUBSTRUCTURE
       1 MOL1            1 RESIDUE      1      MOL     
@<SCITEGIC>MOL_PROPERTY
VConf Rank
SciTegic.value.IntegerValue
92

@<SCITEGIC>MOL_PROPERTY
Conf_Id
SciTegic.value.IntegerValue
33

@<SCITEGIC>MOL_PROPERTY
Delta U+W
SciTegic.value.DoubleValue
0.015

@<SCITEGIC>MOL_PROPERTY
U+W
SciTegic.value.DoubleValue
3.025

@<SCITEGIC>MOL_PROPERTY
Grad RMS
SciTegic.value.DoubleValue
0.000000

@<SCITEGIC>MOL_PROPERTY
U
SciTegic.value.DoubleValue
5.843

@<SCITEGIC>MOL_PROPERTY
W
SciTegic.value.DoubleValue
-2.819

@<SCITEGIC>MOL_PROPERTY
W(PB)
SciTegic.value.DoubleValue
-4.568

@<SCITEGIC>MOL_PROPERTY
W(SA)
SciTegic.value.DoubleValue
1.750

@<SCITEGIC>MOL_PROPERTY
Valence
SciTegic.value.DoubleValue
13.789

@<SCITEGIC>MOL_PROPERTY
Coulomb
SciTegic.value.DoubleValue
-8.574

@<SCITEGIC>MOL_PROPERTY
VdW
SciTegic.value.DoubleValue
0.628

@<SCITEGIC>MOL_PROPERTY
VdW6
SciTegic.value.DoubleValue
-3.284

@<SCITEGIC>MOL_PROPERTY
VdW12
SciTegic.value.DoubleValue
3.913

@<SCITEGIC>MOL_PROPERTY
Bond
SciTegic.value.DoubleValue
0.054

@<SCITEGIC>MOL_PROPERTY
Angle
SciTegic.value.DoubleValue
4.033

@<SCITEGIC>MOL_PROPERTY
Pdih
SciTegic.value.DoubleValue
9.702

@<SCITEGIC>MOL_PROPERTY
Idih
SciTegic.value.DoubleValue
0.000

@<SCITEGIC>MOL_PROPERTY
Tether
SciTegic.value.DoubleValue
0.000

@<TRIPOS>MOLECULE
guest-4_confgen4.mol2 : confsearch ligand conformer 93
          16          16           1
SMALL
USER_CHARGES
 
@<TRIPOS>ATOM
       1    C1      19.582839   17.852437   21.176995 C.3        1 MOL1        -0.1689
       2    H1      19.268231   18.317644   20.232627 H          1 MOL1         0.0830
       3    H2      20.005667   16.866893   20.938421 H          1 MOL1         0.0830
       4    C2      18.375529   17.736089   22.132969 C.3        1 MOL1        -0.1689
       5    H3      17.476411   18.144010   21.650876 H          1 MOL1         0.0830
       6    H4      18.167436   16.689719   22.395282 H          1 MOL1         0.0830
       7    C3      18.729420   18.562690   23.387531 C.3        1 MOL1        -0.1765
       8    H5      19.111886   17.895064   24.170867 H          1 MOL1         0.0830
       9    H6      17.858671   19.092698   23.796057 H          1 MOL1         0.0830
      10    C4      19.847728   19.523578   22.962002 C.3        1 MOL1         0.1214
      11    H7      20.492925   19.794469   23.810130 H          1 MOL1         0.0787
      12    C5      20.621449   18.743968   21.890311 C.3        1 MOL1        -0.1765
      13    H8      21.149262   19.407893   21.192728 H          1 MOL1         0.0830
      14    H9      21.372096   18.111212   22.382013 H          1 MOL1         0.0830
      15    O1      19.271515   20.680715   22.373939 O.3        1 MOL1        -0.5512
      16    H10     18.720687   20.344684   21.637166 H          1 MOL1         0.3776
@<TRIPOS>BOND
    1     1     2    1
    2     1     3    1
    3     1     4    1
    4     4     5    1
    5     4     6    1
    6     4     7    1
    7     7     8    1
    8     7     9    1
    9     7    10    1
   10    10    11    1
   11     1    12    1
   12    10    12    1
   13    12    13    1
   14    12    14    1
   15    10    15    1
   16    15    16    1
@<TRIPOS>SUBSTRUCTURE
       1 MOL1            1 RESIDUE      1      MOL     
@<SCITEGIC>MOL_PROPERTY
VConf Rank
SciTegic.value.IntegerValue
93

@<SCITEGIC>MOL_PROPERTY
Conf_Id
SciTegic.value.IntegerValue
20

@<SCITEGIC>MOL_PROPERTY
Delta U+W
SciTegic.value.DoubleValue
-0.483

@<SCITEGIC>MOL_PROPERTY
U+W
SciTegic.value.DoubleValue
2.527

@<SCITEGIC>MOL_PROPERTY
Grad RMS
SciTegic.value.DoubleValue
0.000000

@<SCITEGIC>MOL_PROPERTY
U
SciTegic.value.DoubleValue
4.508

@<SCITEGIC>MOL_PROPERTY
W
SciTegic.value.DoubleValue
-1.981

@<SCITEGIC>MOL_PROPERTY
W(PB)
SciTegic.value.DoubleValue
-3.712

@<SCITEGIC>MOL_PROPERTY
W(SA)
SciTegic.value.DoubleValue
1.732

@<SCITEGIC>MOL_PROPERTY
Valence
SciTegic.value.DoubleValue
14.705

@<SCITEGIC>MOL_PROPERTY
Coulomb
SciTegic.value.DoubleValue
-10.687

@<SCITEGIC>MOL_PROPERTY
VdW
SciTegic.value.DoubleValue
0.490

@<SCITEGIC>MOL_PROPERTY
VdW6
SciTegic.value.DoubleValue
-3.745

@<SCITEGIC>MOL_PROPERTY
VdW12
SciTegic.value.DoubleValue
4.235

@<SCITEGIC>MOL_PROPERTY
Bond
SciTegic.value.DoubleValue
0.068

@<SCITEGIC>MOL_PROPERTY
Angle
SciTegic.value.DoubleValue
3.901

@<SCITEGIC>MOL_PROPERTY
Pdih
SciTegic.value.DoubleValue
10.737

@<SCITEGIC>MOL_PROPERTY
Idih
SciTegic.value.DoubleValue
0.000

@<SCITEGIC>MOL_PROPERTY
Tether
SciTegic.value.DoubleValue
0.000

@<TRIPOS>MOLECULE
guest-4_confgen4.mol2 : confsearch ligand conformer 94
          16          16           1
SMALL
USER_CHARGES
 
@<TRIPOS>ATOM
       1    C1      20.095403   18.818225   23.539031 C.3        1 MOL1        -0.1689
       2    H1      19.530335   19.613372   24.045111 H          1 MOL1         0.0830
       3    H2      20.931790   18.524215   24.187614 H          1 MOL1         0.0830
       4    C2      20.565669   19.315859   22.165373 C.3        1 MOL1        -0.1689
       5    H3      20.899000   20.362265   22.191557 H          1 MOL1         0.0830
       6    H4      21.403471   18.697036   21.814984 H          1 MOL1         0.0830
       7    C3      19.347344   19.111853   21.246340 C.3        1 MOL1        -0.1765
       8    H5      19.654009   18.929374   20.208311 H          1 MOL1         0.0830
       9    H6      18.726036   20.017704   21.260341 H          1 MOL1         0.0830
      10    C4      18.561952   17.915754   21.824427 C.3        1 MOL1         0.1214
      11    H7      18.703451   17.029814   21.188339 H          1 MOL1         0.0787
      12    C5      19.155971   17.640258   23.221237 C.3        1 MOL1        -0.1765
      13    H8      18.379341   17.524057   23.988937 H          1 MOL1         0.0830
      14    H9      19.733469   16.707304   23.186956 H          1 MOL1         0.0830
      15    O1      17.181495   18.241695   21.933916 O.3        1 MOL1        -0.5512
      16    H10     16.860830   18.416750   21.023936 H          1 MOL1         0.3776
@<TRIPOS>BOND
    1     1     2    1
    2     1     3    1
    3     1     4    1
    4     4     5    1
    5     4     6    1
    6     4     7    1
    7     7     8    1
    8     7     9    1
    9     7    10    1
   10    10    11    1
   11     1    12    1
   12    10    12    1
   13    12    13    1
   14    12    14    1
   15    10    15    1
   16    15    16    1
@<TRIPOS>SUBSTRUCTURE
       1 MOL1            1 RESIDUE      1      MOL     
@<SCITEGIC>MOL_PROPERTY
VConf Rank
SciTegic.value.IntegerValue
94

@<SCITEGIC>MOL_PROPERTY
Conf_Id
SciTegic.value.IntegerValue
59

@<SCITEGIC>MOL_PROPERTY
Delta U+W
SciTegic.value.DoubleValue
0.000

@<SCITEGIC>MOL_PROPERTY
U+W
SciTegic.value.DoubleValue
3.010

@<SCITEGIC>MOL_PROPERTY
Grad RMS
SciTegic.value.DoubleValue
0.000000

@<SCITEGIC>MOL_PROPERTY
U
SciTegic.value.DoubleValue
5.843

@<SCITEGIC>MOL_PROPERTY
W
SciTegic.value.DoubleValue
-2.833

@<SCITEGIC>MOL_PROPERTY
W(PB)
SciTegic.value.DoubleValue
-4.568

@<SCITEGIC>MOL_PROPERTY
W(SA)
SciTegic.value.DoubleValue
1.735

@<SCITEGIC>MOL_PROPERTY
Valence
SciTegic.value.DoubleValue
13.789

@<SCITEGIC>MOL_PROPERTY
Coulomb
SciTegic.value.DoubleValue
-8.574

@<SCITEGIC>MOL_PROPERTY
VdW
SciTegic.value.DoubleValue
0.628

@<SCITEGIC>MOL_PROPERTY
VdW6
SciTegic.value.DoubleValue
-3.284

@<SCITEGIC>MOL_PROPERTY
VdW12
SciTegic.value.DoubleValue
3.912

@<SCITEGIC>MOL_PROPERTY
Bond
SciTegic.value.DoubleValue
0.054

@<SCITEGIC>MOL_PROPERTY
Angle
SciTegic.value.DoubleValue
4.034

@<SCITEGIC>MOL_PROPERTY
Pdih
SciTegic.value.DoubleValue
9.702

@<SCITEGIC>MOL_PROPERTY
Idih
SciTegic.value.DoubleValue
0.000

@<SCITEGIC>MOL_PROPERTY
Tether
SciTegic.value.DoubleValue
0.000

@<TRIPOS>MOLECULE
guest-4_confgen4.mol2 : confsearch ligand conformer 95
          16          16           1
SMALL
USER_CHARGES
 
@<TRIPOS>ATOM
       1    C1      18.956631   19.085427   21.030960 C.3        1 MOL1        -0.1689
       2    H1      18.059367   19.563635   20.615036 H          1 MOL1         0.0830
       3    H2      19.731374   19.072071   20.251718 H          1 MOL1         0.0830
       4    C2      18.684990   17.653953   21.513475 C.3        1 MOL1        -0.1689
       5    H3      17.702536   17.610855   22.003992 H          1 MOL1         0.0830
       6    H4      18.691287   16.925720   20.691113 H          1 MOL1         0.0830
       7    C3      19.790948   17.380189   22.549326 C.3        1 MOL1        -0.1765
       8    H5      20.665279   16.944649   22.048390 H          1 MOL1         0.0830
       9    H6      19.458250   16.669735   23.317822 H          1 MOL1         0.0830
      10    C4      20.182642   18.747656   23.146325 C.3        1 MOL1         0.1214
      11    H7      21.274118   18.869836   23.089131 H          1 MOL1         0.0787
      12    C5      19.485267   19.816527   22.278617 C.3        1 MOL1        -0.1765
      13    H8      18.641353   20.259187   22.825100 H          1 MOL1         0.0830
      14    H9      20.173411   20.627359   22.006853 H          1 MOL1         0.0830
      15    O1      19.735503   18.840911   24.493644 O.3        1 MOL1        -0.5512
      16    H10     19.999660   19.728201   24.816856 H          1 MOL1         0.3776
@<TRIPOS>BOND
    1     1     2    1
    2     1     3    1
    3     1     4    1
    4     4     5    1
    5     4     6    1
    6     4     7    1
    7     7     8    1
    8     7     9    1
    9     7    10    1
   10    10    11    1
   11     1    12    1
   12    10    12    1
   13    12    13    1
   14    12    14    1
   15    10    15    1
   16    15    16    1
@<TRIPOS>SUBSTRUCTURE
       1 MOL1            1 RESIDUE      1      MOL     
@<SCITEGIC>MOL_PROPERTY
VConf Rank
SciTegic.value.IntegerValue
95

@<SCITEGIC>MOL_PROPERTY
Conf_Id
SciTegic.value.IntegerValue
33

@<SCITEGIC>MOL_PROPERTY
Delta U+W
SciTegic.value.DoubleValue
0.015

@<SCITEGIC>MOL_PROPERTY
U+W
SciTegic.value.DoubleValue
3.025

@<SCITEGIC>MOL_PROPERTY
Grad RMS
SciTegic.value.DoubleValue
0.000000

@<SCITEGIC>MOL_PROPERTY
U
SciTegic.value.DoubleValue
5.843

@<SCITEGIC>MOL_PROPERTY
W
SciTegic.value.DoubleValue
-2.819

@<SCITEGIC>MOL_PROPERTY
W(PB)
SciTegic.value.DoubleValue
-4.568

@<SCITEGIC>MOL_PROPERTY
W(SA)
SciTegic.value.DoubleValue
1.750

@<SCITEGIC>MOL_PROPERTY
Valence
SciTegic.value.DoubleValue
13.789

@<SCITEGIC>MOL_PROPERTY
Coulomb
SciTegic.value.DoubleValue
-8.574

@<SCITEGIC>MOL_PROPERTY
VdW
SciTegic.value.DoubleValue
0.628

@<SCITEGIC>MOL_PROPERTY
VdW6
SciTegic.value.DoubleValue
-3.284

@<SCITEGIC>MOL_PROPERTY
VdW12
SciTegic.value.DoubleValue
3.913

@<SCITEGIC>MOL_PROPERTY
Bond
SciTegic.value.DoubleValue
0.054

@<SCITEGIC>MOL_PROPERTY
Angle
SciTegic.value.DoubleValue
4.033

@<SCITEGIC>MOL_PROPERTY
Pdih
SciTegic.value.DoubleValue
9.702

@<SCITEGIC>MOL_PROPERTY
Idih
SciTegic.value.DoubleValue
0.000

@<SCITEGIC>MOL_PROPERTY
Tether
SciTegic.value.DoubleValue
0.000

@<TRIPOS>MOLECULE
guest-4_confgen4.mol2 : confsearch ligand conformer 96
          16          16           1
SMALL
USER_CHARGES
 
@<TRIPOS>ATOM
       1    C1      20.428285   17.891432   21.851097 C.3        1 MOL1        -0.1689
       2    H1      21.285656   18.492279   21.517742 H          1 MOL1         0.0830
       3    H2      20.708489   16.832850   21.762295 H          1 MOL1         0.0830
       4    C2      19.188167   18.224516   20.993087 C.3        1 MOL1        -0.1689
       5    H3      19.445618   18.985778   20.243803 H          1 MOL1         0.0830
       6    H4      18.819039   17.339908   20.456233 H          1 MOL1         0.0830
       7    C3      18.118971   18.771107   21.962878 C.3        1 MOL1        -0.1765
       8    H5      17.422292   17.966313   22.232257 H          1 MOL1         0.0830
       9    H6      17.532172   19.586335   21.518944 H          1 MOL1         0.0830
      10    C4      18.875071   19.217672   23.221404 C.3        1 MOL1         0.1214
      11    H7      18.239723   19.160008   24.116943 H          1 MOL1         0.0787
      12    C5      20.061458   18.248105   23.307318 C.3        1 MOL1        -0.1765
      13    H8      20.909919   18.676630   23.857304 H          1 MOL1         0.0830
      14    H9      19.743026   17.341180   23.838083 H          1 MOL1         0.0830
      15    O1      19.362732   20.537704   23.030332 O.3        1 MOL1        -0.5512
      16    H10     19.911135   20.491948   22.220195 H          1 MOL1         0.3776
@<TRIPOS>BOND
    1     1     2    1
    2     1     3    1
    3     1     4    1
    4     4     5    1
    5     4     6    1
    6     4     7    1
    7     7     8    1
    8     7     9    1
    9     7    10    1
   10    10    11    1
   11     1    12    1
   12    10    12    1
   13    12    13    1
   14    12    14    1
   15    10    15    1
   16    15    16    1
@<TRIPOS>SUBSTRUCTURE
       1 MOL1            1 RESIDUE      1      MOL     
@<SCITEGIC>MOL_PROPERTY
VConf Rank
SciTegic.value.IntegerValue
96

@<SCITEGIC>MOL_PROPERTY
Conf_Id
SciTegic.value.IntegerValue
20

@<SCITEGIC>MOL_PROPERTY
Delta U+W
SciTegic.value.DoubleValue
-0.483

@<SCITEGIC>MOL_PROPERTY
U+W
SciTegic.value.DoubleValue
2.527

@<SCITEGIC>MOL_PROPERTY
Grad RMS
SciTegic.value.DoubleValue
0.000000

@<SCITEGIC>MOL_PROPERTY
U
SciTegic.value.DoubleValue
4.508

@<SCITEGIC>MOL_PROPERTY
W
SciTegic.value.DoubleValue
-1.981

@<SCITEGIC>MOL_PROPERTY
W(PB)
SciTegic.value.DoubleValue
-3.712

@<SCITEGIC>MOL_PROPERTY
W(SA)
SciTegic.value.DoubleValue
1.732

@<SCITEGIC>MOL_PROPERTY
Valence
SciTegic.value.DoubleValue
14.705

@<SCITEGIC>MOL_PROPERTY
Coulomb
SciTegic.value.DoubleValue
-10.687

@<SCITEGIC>MOL_PROPERTY
VdW
SciTegic.value.DoubleValue
0.490

@<SCITEGIC>MOL_PROPERTY
VdW6
SciTegic.value.DoubleValue
-3.745

@<SCITEGIC>MOL_PROPERTY
VdW12
SciTegic.value.DoubleValue
4.235

@<SCITEGIC>MOL_PROPERTY
Bond
SciTegic.value.DoubleValue
0.068

@<SCITEGIC>MOL_PROPERTY
Angle
SciTegic.value.DoubleValue
3.901

@<SCITEGIC>MOL_PROPERTY
Pdih
SciTegic.value.DoubleValue
10.737

@<SCITEGIC>MOL_PROPERTY
Idih
SciTegic.value.DoubleValue
0.000

@<SCITEGIC>MOL_PROPERTY
Tether
SciTegic.value.DoubleValue
0.000

@<TRIPOS>MOLECULE
guest-4_confgen4.mol2 : confsearch ligand conformer 97
          16          16           1
SMALL
USER_CHARGES
 
@<TRIPOS>ATOM
       1    C1      20.728246   19.001756   22.503911 C.3        1 MOL1        -0.1689
       2    H1      20.977830   18.723052   23.537211 H          1 MOL1         0.0830
       3    H2      21.621919   19.441568   22.040707 H          1 MOL1         0.0830
       4    C2      19.534011   19.965876   22.505407 C.3        1 MOL1        -0.1689
       5    H3      19.586677   20.695229   23.325180 H          1 MOL1         0.0830
       6    H4      19.503458   20.517976   21.555734 H          1 MOL1         0.0830
       7    C3      18.301796   19.049249   22.614949 C.3        1 MOL1        -0.1765
       8    H5      17.424250   19.497358   22.131257 H          1 MOL1         0.0830
       9    H6      18.059278   18.891758   23.674744 H          1 MOL1         0.0830
      10    C4      18.694106   17.712116   21.951738 C.3        1 MOL1         0.1214
      11    H7      18.197353   17.616335   20.975223 H          1 MOL1         0.0787
      12    C5      20.221839   17.762209   21.743513 C.3        1 MOL1        -0.1765
      13    H8      20.719647   16.845704   22.087354 H          1 MOL1         0.0830
      14    H9      20.433575   17.875122   20.672299 H          1 MOL1         0.0830
      15    O1      18.350068   16.623543   22.800581 O.3        1 MOL1        -0.5512
      16    H10     17.375513   16.646683   22.906602 H          1 MOL1         0.3776
@<TRIPOS>BOND
    1     1     2    1
    2     1     3    1
    3     1     4    1
    4     4     5    1
    5     4     6    1
    6     4     7    1
    7     7     8    1
    8     7     9    1
    9     7    10    1
   10    10    11    1
   11     1    12    1
   12    10    12    1
   13    12    13    1
   14    12    14    1
   15    10    15    1
   16    15    16    1
@<TRIPOS>SUBSTRUCTURE
       1 MOL1            1 RESIDUE      1      MOL     
@<SCITEGIC>MOL_PROPERTY
VConf Rank
SciTegic.value.IntegerValue
97

@<SCITEGIC>MOL_PROPERTY
Conf_Id
SciTegic.value.IntegerValue
59

@<SCITEGIC>MOL_PROPERTY
Delta U+W
SciTegic.value.DoubleValue
0.000

@<SCITEGIC>MOL_PROPERTY
U+W
SciTegic.value.DoubleValue
3.010

@<SCITEGIC>MOL_PROPERTY
Grad RMS
SciTegic.value.DoubleValue
0.000000

@<SCITEGIC>MOL_PROPERTY
U
SciTegic.value.DoubleValue
5.843

@<SCITEGIC>MOL_PROPERTY
W
SciTegic.value.DoubleValue
-2.833

@<SCITEGIC>MOL_PROPERTY
W(PB)
SciTegic.value.DoubleValue
-4.568

@<SCITEGIC>MOL_PROPERTY
W(SA)
SciTegic.value.DoubleValue
1.735

@<SCITEGIC>MOL_PROPERTY
Valence
SciTegic.value.DoubleValue
13.789

@<SCITEGIC>MOL_PROPERTY
Coulomb
SciTegic.value.DoubleValue
-8.574

@<SCITEGIC>MOL_PROPERTY
VdW
SciTegic.value.DoubleValue
0.628

@<SCITEGIC>MOL_PROPERTY
VdW6
SciTegic.value.DoubleValue
-3.284

@<SCITEGIC>MOL_PROPERTY
VdW12
SciTegic.value.DoubleValue
3.912

@<SCITEGIC>MOL_PROPERTY
Bond
SciTegic.value.DoubleValue
0.054

@<SCITEGIC>MOL_PROPERTY
Angle
SciTegic.value.DoubleValue
4.034

@<SCITEGIC>MOL_PROPERTY
Pdih
SciTegic.value.DoubleValue
9.702

@<SCITEGIC>MOL_PROPERTY
Idih
SciTegic.value.DoubleValue
0.000

@<SCITEGIC>MOL_PROPERTY
Tether
SciTegic.value.DoubleValue
0.000

@<TRIPOS>MOLECULE
guest-4_confgen4.mol2 : confsearch ligand conformer 98
          16          16           1
SMALL
USER_CHARGES
 
@<TRIPOS>ATOM
       1    C1      19.236339   19.895225   22.899018 C.3        1 MOL1        -0.1689
       2    H1      18.674232   20.338528   23.732251 H          1 MOL1         0.0830
       3    H2      19.906726   20.663649   22.489473 H          1 MOL1         0.0830
       4    C2      18.316576   19.367855   21.789224 C.3        1 MOL1        -0.1689
       5    H3      17.435275   18.888689   22.237987 H          1 MOL1         0.0830
       6    H4      17.970221   20.164858   21.117311 H          1 MOL1         0.0830
       7    C3      19.162799   18.309324   21.058131 C.3        1 MOL1        -0.1765
       8    H5      19.720498   18.784017   20.240377 H          1 MOL1         0.0830
       9    H6      18.535124   17.521429   20.620791 H          1 MOL1         0.0830
      10    C4      20.162931   17.754189   22.093196 C.3        1 MOL1         0.1214
      11    H7      21.179972   17.801616   21.677386 H          1 MOL1         0.0787
      12    C5      20.056211   18.666502   23.333369 C.3        1 MOL1        -0.1765
      13    H8      19.528867   18.146146   24.144492 H          1 MOL1         0.0830
      14    H9      21.046627   18.956881   23.707005 H          1 MOL1         0.0830
      15    O1      19.821404   16.416610   22.436910 O.3        1 MOL1        -0.5512
      16    H10     20.478813   16.120392   23.101438 H          1 MOL1         0.3776
@<TRIPOS>BOND
    1     1     2    1
    2     1     3    1
    3     1     4    1
    4     4     5    1
    5     4     6    1
    6     4     7    1
    7     7     8    1
    8     7     9    1
    9     7    10    1
   10    10    11    1
   11     1    12    1
   12    10    12    1
   13    12    13    1
   14    12    14    1
   15    10    15    1
   16    15    16    1
@<TRIPOS>SUBSTRUCTURE
       1 MOL1            1 RESIDUE      1      MOL     
@<SCITEGIC>MOL_PROPERTY
VConf Rank
SciTegic.value.IntegerValue
98

@<SCITEGIC>MOL_PROPERTY
Conf_Id
SciTegic.value.IntegerValue
33

@<SCITEGIC>MOL_PROPERTY
Delta U+W
SciTegic.value.DoubleValue
0.015

@<SCITEGIC>MOL_PROPERTY
U+W
SciTegic.value.DoubleValue
3.025

@<SCITEGIC>MOL_PROPERTY
Grad RMS
SciTegic.value.DoubleValue
0.000000

@<SCITEGIC>MOL_PROPERTY
U
SciTegic.value.DoubleValue
5.843

@<SCITEGIC>MOL_PROPERTY
W
SciTegic.value.DoubleValue
-2.819

@<SCITEGIC>MOL_PROPERTY
W(PB)
SciTegic.value.DoubleValue
-4.568

@<SCITEGIC>MOL_PROPERTY
W(SA)
SciTegic.value.DoubleValue
1.750

@<SCITEGIC>MOL_PROPERTY
Valence
SciTegic.value.DoubleValue
13.789

@<SCITEGIC>MOL_PROPERTY
Coulomb
SciTegic.value.DoubleValue
-8.574

@<SCITEGIC>MOL_PROPERTY
VdW
SciTegic.value.DoubleValue
0.628

@<SCITEGIC>MOL_PROPERTY
VdW6
SciTegic.value.DoubleValue
-3.284

@<SCITEGIC>MOL_PROPERTY
VdW12
SciTegic.value.DoubleValue
3.913

@<SCITEGIC>MOL_PROPERTY
Bond
SciTegic.value.DoubleValue
0.054

@<SCITEGIC>MOL_PROPERTY
Angle
SciTegic.value.DoubleValue
4.033

@<SCITEGIC>MOL_PROPERTY
Pdih
SciTegic.value.DoubleValue
9.702

@<SCITEGIC>MOL_PROPERTY
Idih
SciTegic.value.DoubleValue
0.000

@<SCITEGIC>MOL_PROPERTY
Tether
SciTegic.value.DoubleValue
0.000

@<TRIPOS>MOLECULE
guest-4_confgen4.mol2 : confsearch ligand conformer 99
          16          16           1
SMALL
USER_CHARGES
 
@<TRIPOS>ATOM
       1    C1      18.333036   18.121196   22.931435 C.3        1 MOL1        -0.1689
       2    H1      17.850653   18.843465   23.604384 H          1 MOL1         0.0830
       3    H2      17.777559   17.176076   23.003467 H          1 MOL1         0.0830
       4    C2      19.814377   17.940993   23.329151 C.3        1 MOL1        -0.1689
       5    H3      20.048643   18.575236   24.195223 H          1 MOL1         0.0830
       6    H4      20.034034   16.901355   23.608261 H          1 MOL1         0.0830
       7    C3      20.651558   18.376174   22.107602 C.3        1 MOL1        -0.1765
       8    H5      20.945184   17.489996   21.529595 H          1 MOL1         0.0830
       9    H6      21.569312   18.904328   22.398783 H          1 MOL1         0.0830
      10    C4      19.727048   19.248247   21.247506 C.3        1 MOL1         0.1214
      11    H7      20.007863   19.210154   20.185115 H          1 MOL1         0.0787
      12    C5      18.330686   18.657337   21.484056 C.3        1 MOL1        -0.1765
      13    H8      17.533352   19.393093   21.313982 H          1 MOL1         0.0830
      14    H9      18.172419   17.825552   20.784980 H          1 MOL1         0.0830
      15    O1      19.758455   20.582707   21.732311 O.3        1 MOL1        -0.5512
      16    H10     19.497573   20.517855   22.674063 H          1 MOL1         0.3776
@<TRIPOS>BOND
    1     1     2    1
    2     1     3    1
    3     1     4    1
    4     4     5    1
    5     4     6    1
    6     4     7    1
    7     7     8    1
    8     7     9    1
    9     7    10    1
   10    10    11    1
   11     1    12    1
   12    10    12    1
   13    12    13    1
   14    12    14    1
   15    10    15    1
   16    15    16    1
@<TRIPOS>SUBSTRUCTURE
       1 MOL1            1 RESIDUE      1      MOL     
@<SCITEGIC>MOL_PROPERTY
VConf Rank
SciTegic.value.IntegerValue
99

@<SCITEGIC>MOL_PROPERTY
Conf_Id
SciTegic.value.IntegerValue
20

@<SCITEGIC>MOL_PROPERTY
Delta U+W
SciTegic.value.DoubleValue
-0.483

@<SCITEGIC>MOL_PROPERTY
U+W
SciTegic.value.DoubleValue
2.527

@<SCITEGIC>MOL_PROPERTY
Grad RMS
SciTegic.value.DoubleValue
0.000000

@<SCITEGIC>MOL_PROPERTY
U
SciTegic.value.DoubleValue
4.508

@<SCITEGIC>MOL_PROPERTY
W
SciTegic.value.DoubleValue
-1.981

@<SCITEGIC>MOL_PROPERTY
W(PB)
SciTegic.value.DoubleValue
-3.712

@<SCITEGIC>MOL_PROPERTY
W(SA)
SciTegic.value.DoubleValue
1.732

@<SCITEGIC>MOL_PROPERTY
Valence
SciTegic.value.DoubleValue
14.705

@<SCITEGIC>MOL_PROPERTY
Coulomb
SciTegic.value.DoubleValue
-10.687

@<SCITEGIC>MOL_PROPERTY
VdW
SciTegic.value.DoubleValue
0.490

@<SCITEGIC>MOL_PROPERTY
VdW6
SciTegic.value.DoubleValue
-3.745

@<SCITEGIC>MOL_PROPERTY
VdW12
SciTegic.value.DoubleValue
4.235

@<SCITEGIC>MOL_PROPERTY
Bond
SciTegic.value.DoubleValue
0.068

@<SCITEGIC>MOL_PROPERTY
Angle
SciTegic.value.DoubleValue
3.901

@<SCITEGIC>MOL_PROPERTY
Pdih
SciTegic.value.DoubleValue
10.737

@<SCITEGIC>MOL_PROPERTY
Idih
SciTegic.value.DoubleValue
0.000

@<SCITEGIC>MOL_PROPERTY
Tether
SciTegic.value.DoubleValue
0.000

@<TRIPOS>MOLECULE
guest-4_confgen4.mol2 : confsearch ligand conformer 100
          16          16           1
SMALL
USER_CHARGES
 
@<TRIPOS>ATOM
       1    C1      18.656567   18.187993   23.533797 C.3        1 MOL1        -0.1689
       2    H1      17.612589   18.484640   23.361209 H          1 MOL1         0.0830
       3    H2      18.717159   17.697080   24.514602 H          1 MOL1         0.0830
       4    C2      19.564313   19.421973   23.438834 C.3        1 MOL1        -0.1689
       5    H3      19.111372   20.310487   23.899426 H          1 MOL1         0.0830
       6    H4      20.517486   19.219676   23.946931 H          1 MOL1         0.0830
       7    C3      19.806982   19.603783   21.929326 C.3        1 MOL1        -0.1765
       8    H5      20.780468   20.071360   21.733005 H          1 MOL1         0.0830
       9    H6      19.028574   20.257255   21.512385 H          1 MOL1         0.0830
      10    C4      19.716603   18.196779   21.301749 C.3        1 MOL1         0.1214
      11    H7      20.720753   17.841740   21.027617 H          1 MOL1         0.0787
      12    C5      19.128730   17.273235   22.388628 C.3        1 MOL1        -0.1765
      13    H8      18.310329   16.648446   22.006686 H          1 MOL1         0.0830
      14    H9      19.917676   16.602981   22.753873 H          1 MOL1         0.0830
      15    O1      18.862966   18.220646   20.163934 O.3        1 MOL1        -0.5512
      16    H10     19.276999   18.827461   19.514408 H          1 MOL1         0.3776
@<TRIPOS>BOND
    1     1     2    1
    2     1     3    1
    3     1     4    1
    4     4     5    1
    5     4     6    1
    6     4     7    1
    7     7     8    1
    8     7     9    1
    9     7    10    1
   10    10    11    1
   11     1    12    1
   12    10    12    1
   13    12    13    1
   14    12    14    1
   15    10    15    1
   16    15    16    1
@<TRIPOS>SUBSTRUCTURE
       1 MOL1            1 RESIDUE      1      MOL     
@<SCITEGIC>MOL_PROPERTY
VConf Rank
SciTegic.value.IntegerValue
100

@<SCITEGIC>MOL_PROPERTY
Conf_Id
SciTegic.value.IntegerValue
59

@<SCITEGIC>MOL_PROPERTY
Delta U+W
SciTegic.value.DoubleValue
0.000

@<SCITEGIC>MOL_PROPERTY
U+W
SciTegic.value.DoubleValue
3.010

@<SCITEGIC>MOL_PROPERTY
Grad RMS
SciTegic.value.DoubleValue
0.000000

@<SCITEGIC>MOL_PROPERTY
U
SciTegic.value.DoubleValue
5.843

@<SCITEGIC>MOL_PROPERTY
W
SciTegic.value.DoubleValue
-2.833

@<SCITEGIC>MOL_PROPERTY
W(PB)
SciTegic.value.DoubleValue
-4.568

@<SCITEGIC>MOL_PROPERTY
W(SA)
SciTegic.value.DoubleValue
1.735

@<SCITEGIC>MOL_PROPERTY
Valence
SciTegic.value.DoubleValue
13.789

@<SCITEGIC>MOL_PROPERTY
Coulomb
SciTegic.value.DoubleValue
-8.574

@<SCITEGIC>MOL_PROPERTY
VdW
SciTegic.value.DoubleValue
0.628

@<SCITEGIC>MOL_PROPERTY
VdW6
SciTegic.value.DoubleValue
-3.284

@<SCITEGIC>MOL_PROPERTY
VdW12
SciTegic.value.DoubleValue
3.912

@<SCITEGIC>MOL_PROPERTY
Bond
SciTegic.value.DoubleValue
0.054

@<SCITEGIC>MOL_PROPERTY
Angle
SciTegic.value.DoubleValue
4.034

@<SCITEGIC>MOL_PROPERTY
Pdih
SciTegic.value.DoubleValue
9.702

@<SCITEGIC>MOL_PROPERTY
Idih
SciTegic.value.DoubleValue
0.000

@<SCITEGIC>MOL_PROPERTY
Tether
SciTegic.value.DoubleValue
0.000

@<TRIPOS>MOLECULE
guest-4_confgen4.mol2 : confsearch ligand conformer 101
          16          16           1
SMALL
USER_CHARGES
 
@<TRIPOS>ATOM
       1    C1      19.432959   19.239852   21.001545 C.3        1 MOL1        -0.1689
       2    H1      20.127762   19.498431   20.190901 H          1 MOL1         0.0830
       3    H2      18.409427   19.433931   20.651778 H          1 MOL1         0.0830
       4    C2      19.702668   20.044184   22.280621 C.3        1 MOL1        -0.1689
       5    H3      20.786661   20.143985   22.431210 H          1 MOL1         0.0830
       6    H4      19.266324   21.051558   22.242590 H          1 MOL1         0.0830
       7    C3      19.102155   19.185889   23.409244 C.3        1 MOL1        -0.1765
       8    H5      18.052631   19.466492   23.566871 H          1 MOL1         0.0830
       9    H6      19.634012   19.336241   24.358213 H          1 MOL1         0.0830
      10    C4      19.164528   17.721312   22.928704 C.3        1 MOL1         0.1214
      11    H7      18.171840   17.260628   23.037606 H          1 MOL1         0.0787
      12    C5      19.563991   17.769389   21.438786 C.3        1 MOL1        -0.1765
      13    H8      20.605877   17.444552   21.313339 H          1 MOL1         0.0830
      14    H9      18.930232   17.111887   20.829782 H          1 MOL1         0.0830
      15    O1      20.138365   17.001220   23.675033 O.3        1 MOL1        -0.5512
      16    H10     20.143185   16.086360   23.322136 H          1 MOL1         0.3776
@<TRIPOS>BOND
    1     1     2    1
    2     1     3    1
    3     1     4    1
    4     4     5    1
    5     4     6    1
    6     4     7    1
    7     7     8    1
    8     7     9    1
    9     7    10    1
   10    10    11    1
   11     1    12    1
   12    10    12    1
   13    12    13    1
   14    12    14    1
   15    10    15    1
   16    15    16    1
@<TRIPOS>SUBSTRUCTURE
       1 MOL1            1 RESIDUE      1      MOL     
@<SCITEGIC>MOL_PROPERTY
VConf Rank
SciTegic.value.IntegerValue
101

@<SCITEGIC>MOL_PROPERTY
Conf_Id
SciTegic.value.IntegerValue
33

@<SCITEGIC>MOL_PROPERTY
Delta U+W
SciTegic.value.DoubleValue
0.015

@<SCITEGIC>MOL_PROPERTY
U+W
SciTegic.value.DoubleValue
3.025

@<SCITEGIC>MOL_PROPERTY
Grad RMS
SciTegic.value.DoubleValue
0.000000

@<SCITEGIC>MOL_PROPERTY
U
SciTegic.value.DoubleValue
5.843

@<SCITEGIC>MOL_PROPERTY
W
SciTegic.value.DoubleValue
-2.819

@<SCITEGIC>MOL_PROPERTY
W(PB)
SciTegic.value.DoubleValue
-4.568

@<SCITEGIC>MOL_PROPERTY
W(SA)
SciTegic.value.DoubleValue
1.750

@<SCITEGIC>MOL_PROPERTY
Valence
SciTegic.value.DoubleValue
13.789

@<SCITEGIC>MOL_PROPERTY
Coulomb
SciTegic.value.DoubleValue
-8.574

@<SCITEGIC>MOL_PROPERTY
VdW
SciTegic.value.DoubleValue
0.628

@<SCITEGIC>MOL_PROPERTY
VdW6
SciTegic.value.DoubleValue
-3.284

@<SCITEGIC>MOL_PROPERTY
VdW12
SciTegic.value.DoubleValue
3.913

@<SCITEGIC>MOL_PROPERTY
Bond
SciTegic.value.DoubleValue
0.054

@<SCITEGIC>MOL_PROPERTY
Angle
SciTegic.value.DoubleValue
4.033

@<SCITEGIC>MOL_PROPERTY
Pdih
SciTegic.value.DoubleValue
9.702

@<SCITEGIC>MOL_PROPERTY
Idih
SciTegic.value.DoubleValue
0.000

@<SCITEGIC>MOL_PROPERTY
Tether
SciTegic.value.DoubleValue
0.000

@<TRIPOS>MOLECULE
guest-4_confgen4.mol2 : confsearch ligand conformer 102
          16          16           1
SMALL
USER_CHARGES
 
@<TRIPOS>ATOM
       1    C1      20.566895   18.428995   22.840520 C.3        1 MOL1        -0.1689
       2    H1      20.512024   18.114283   23.891792 H          1 MOL1         0.0830
       3    H2      21.628829   18.487008   22.564971 H          1 MOL1         0.0830
       4    C2      19.858726   19.789745   22.661974 C.3        1 MOL1        -0.1689
       5    H3      19.462051   20.134097   23.627011 H          1 MOL1         0.0830
       6    H4      20.550006   20.559345   22.292044 H          1 MOL1         0.0830
       7    C3      18.704604   19.554919   21.664329 C.3        1 MOL1        -0.1765
       8    H5      19.022818   19.856502   20.657647 H          1 MOL1         0.0830
       9    H6      17.808760   20.136469   21.919804 H          1 MOL1         0.0830
      10    C4      18.437950   18.043679   21.670798 C.3        1 MOL1         0.1214
      11    H7      18.022712   17.701972   20.711738 H          1 MOL1         0.0787
      12    C5      19.814867   17.423276   21.943113 C.3        1 MOL1        -0.1765
      13    H8      19.739500   16.429405   22.404140 H          1 MOL1         0.0830
      14    H9      20.349600   17.310147   20.990809 H          1 MOL1         0.0830
      15    O1      17.562282   17.727850   22.743302 O.3        1 MOL1        -0.5512
      16    H10     18.010129   18.066073   23.545924 H          1 MOL1         0.3776
@<TRIPOS>BOND
    1     1     2    1
    2     1     3    1
    3     1     4    1
    4     4     5    1
    5     4     6    1
    6     4     7    1
    7     7     8    1
    8     7     9    1
    9     7    10    1
   10    10    11    1
   11     1    12    1
   12    10    12    1
   13    12    13    1
   14    12    14    1
   15    10    15    1
   16    15    16    1
@<TRIPOS>SUBSTRUCTURE
       1 MOL1            1 RESIDUE      1      MOL     
@<SCITEGIC>MOL_PROPERTY
VConf Rank
SciTegic.value.IntegerValue
102

@<SCITEGIC>MOL_PROPERTY
Conf_Id
SciTegic.value.IntegerValue
20

@<SCITEGIC>MOL_PROPERTY
Delta U+W
SciTegic.value.DoubleValue
-0.483

@<SCITEGIC>MOL_PROPERTY
U+W
SciTegic.value.DoubleValue
2.527

@<SCITEGIC>MOL_PROPERTY
Grad RMS
SciTegic.value.DoubleValue
0.000000

@<SCITEGIC>MOL_PROPERTY
U
SciTegic.value.DoubleValue
4.508

@<SCITEGIC>MOL_PROPERTY
W
SciTegic.value.DoubleValue
-1.981

@<SCITEGIC>MOL_PROPERTY
W(PB)
SciTegic.value.DoubleValue
-3.712

@<SCITEGIC>MOL_PROPERTY
W(SA)
SciTegic.value.DoubleValue
1.732

@<SCITEGIC>MOL_PROPERTY
Valence
SciTegic.value.DoubleValue
14.705

@<SCITEGIC>MOL_PROPERTY
Coulomb
SciTegic.value.DoubleValue
-10.687

@<SCITEGIC>MOL_PROPERTY
VdW
SciTegic.value.DoubleValue
0.490

@<SCITEGIC>MOL_PROPERTY
VdW6
SciTegic.value.DoubleValue
-3.745

@<SCITEGIC>MOL_PROPERTY
VdW12
SciTegic.value.DoubleValue
4.235

@<SCITEGIC>MOL_PROPERTY
Bond
SciTegic.value.DoubleValue
0.068

@<SCITEGIC>MOL_PROPERTY
Angle
SciTegic.value.DoubleValue
3.901

@<SCITEGIC>MOL_PROPERTY
Pdih
SciTegic.value.DoubleValue
10.737

@<SCITEGIC>MOL_PROPERTY
Idih
SciTegic.value.DoubleValue
0.000

@<SCITEGIC>MOL_PROPERTY
Tether
SciTegic.value.DoubleValue
0.000

@<TRIPOS>MOLECULE
guest-4_confgen4.mol2 : confsearch ligand conformer 103
          16          16           1
SMALL
USER_CHARGES
 
@<TRIPOS>ATOM
       1    C1      18.635682   17.533053   21.573002 C.3        1 MOL1        -0.1689
       2    H1      18.048008   18.085747   20.826781 H          1 MOL1         0.0830
       3    H2      18.476050   16.458583   21.409671 H          1 MOL1         0.0830
       4    C2      18.225888   17.978837   22.983346 C.3        1 MOL1        -0.1689
       5    H3      17.142565   18.137150   23.073396 H          1 MOL1         0.0830
       6    H4      18.523206   17.213631   23.713886 H          1 MOL1         0.0830
       7    C3      19.028841   19.270044   23.225434 C.3        1 MOL1        -0.1765
       8    H5      19.245470   19.413691   24.291869 H          1 MOL1         0.0830
       9    H6      18.442125   20.132603   22.881136 H          1 MOL1         0.0830
      10    C4      20.323763   19.138832   22.396194 C.3        1 MOL1         0.1214
      11    H7      21.177861   18.942341   23.060594 H          1 MOL1         0.0787
      12    C5      20.118886   17.930814   21.458884 C.3        1 MOL1        -0.1765
      13    H8      20.398236   18.156411   20.421054 H          1 MOL1         0.0830
      14    H9      20.750365   17.100790   21.801485 H          1 MOL1         0.0830
      15    O1      20.540310   20.320228   21.633764 O.3        1 MOL1        -0.5512
      16    H10     20.652311   21.052778   22.275915 H          1 MOL1         0.3776
@<TRIPOS>BOND
    1     1     2    1
    2     1     3    1
    3     1     4    1
    4     4     5    1
    5     4     6    1
    6     4     7    1
    7     7     8    1
    8     7     9    1
    9     7    10    1
   10    10    11    1
   11     1    12    1
   12    10    12    1
   13    12    13    1
   14    12    14    1
   15    10    15    1
   16    15    16    1
@<TRIPOS>SUBSTRUCTURE
       1 MOL1            1 RESIDUE      1      MOL     
@<SCITEGIC>MOL_PROPERTY
VConf Rank
SciTegic.value.IntegerValue
103

@<SCITEGIC>MOL_PROPERTY
Conf_Id
SciTegic.value.IntegerValue
59

@<SCITEGIC>MOL_PROPERTY
Delta U+W
SciTegic.value.DoubleValue
0.000

@<SCITEGIC>MOL_PROPERTY
U+W
SciTegic.value.DoubleValue
3.010

@<SCITEGIC>MOL_PROPERTY
Grad RMS
SciTegic.value.DoubleValue
0.000000

@<SCITEGIC>MOL_PROPERTY
U
SciTegic.value.DoubleValue
5.843

@<SCITEGIC>MOL_PROPERTY
W
SciTegic.value.DoubleValue
-2.833

@<SCITEGIC>MOL_PROPERTY
W(PB)
SciTegic.value.DoubleValue
-4.568

@<SCITEGIC>MOL_PROPERTY
W(SA)
SciTegic.value.DoubleValue
1.735

@<SCITEGIC>MOL_PROPERTY
Valence
SciTegic.value.DoubleValue
13.789

@<SCITEGIC>MOL_PROPERTY
Coulomb
SciTegic.value.DoubleValue
-8.574

@<SCITEGIC>MOL_PROPERTY
VdW
SciTegic.value.DoubleValue
0.628

@<SCITEGIC>MOL_PROPERTY
VdW6
SciTegic.value.DoubleValue
-3.284

@<SCITEGIC>MOL_PROPERTY
VdW12
SciTegic.value.DoubleValue
3.912

@<SCITEGIC>MOL_PROPERTY
Bond
SciTegic.value.DoubleValue
0.054

@<SCITEGIC>MOL_PROPERTY
Angle
SciTegic.value.DoubleValue
4.034

@<SCITEGIC>MOL_PROPERTY
Pdih
SciTegic.value.DoubleValue
9.702

@<SCITEGIC>MOL_PROPERTY
Idih
SciTegic.value.DoubleValue
0.000

@<SCITEGIC>MOL_PROPERTY
Tether
SciTegic.value.DoubleValue
0.000

@<TRIPOS>MOLECULE
guest-4_confgen4.mol2 : confsearch ligand conformer 104
          16          16           1
SMALL
USER_CHARGES
 
@<TRIPOS>ATOM
       1    C1      20.729904   18.253040   22.838829 C.3        1 MOL1        -0.1689
       2    H1      21.197566   18.076855   23.817097 H          1 MOL1         0.0830
       3    H2      21.444574   17.957445   22.058129 H          1 MOL1         0.0830
       4    C2      20.326202   19.720473   22.640353 C.3        1 MOL1        -0.1689
       5    H3      19.917915   20.120306   23.579031 H          1 MOL1         0.0830
       6    H4      21.172873   20.351196   22.337073 H          1 MOL1         0.0830
       7    C3      19.216482   19.673865   21.573852 C.3        1 MOL1        -0.1765
       8    H5      19.662245   19.759611   20.574338 H          1 MOL1         0.0830
       9    H6      18.505030   20.501739   21.694182 H          1 MOL1         0.0830
      10    C4      18.537795   18.294770   21.705304 C.3        1 MOL1         0.1214
      11    H7      18.502698   17.811539   20.717997 H          1 MOL1         0.0787
      12    C5      19.416695   17.467767   22.667248 C.3        1 MOL1        -0.1765
      13    H8      18.922855   17.368041   23.643443 H          1 MOL1         0.0830
      14    H9      19.601063   16.458136   22.278018 H          1 MOL1         0.0830
      15    O1      17.227995   18.441681   22.240784 O.3        1 MOL1        -0.5512
      16    H10     16.850725   17.539446   22.312680 H          1 MOL1         0.3776
@<TRIPOS>BOND
    1     1     2    1
    2     1     3    1
    3     1     4    1
    4     4     5    1
    5     4     6    1
    6     4     7    1
    7     7     8    1
    8     7     9    1
    9     7    10    1
   10    10    11    1
   11     1    12    1
   12    10    12    1
   13    12    13    1
   14    12    14    1
   15    10    15    1
   16    15    16    1
@<TRIPOS>SUBSTRUCTURE
       1 MOL1            1 RESIDUE      1      MOL     
@<SCITEGIC>MOL_PROPERTY
VConf Rank
SciTegic.value.IntegerValue
104

@<SCITEGIC>MOL_PROPERTY
Conf_Id
SciTegic.value.IntegerValue
33

@<SCITEGIC>MOL_PROPERTY
Delta U+W
SciTegic.value.DoubleValue
0.015

@<SCITEGIC>MOL_PROPERTY
U+W
SciTegic.value.DoubleValue
3.025

@<SCITEGIC>MOL_PROPERTY
Grad RMS
SciTegic.value.DoubleValue
0.000000

@<SCITEGIC>MOL_PROPERTY
U
SciTegic.value.DoubleValue
5.843

@<SCITEGIC>MOL_PROPERTY
W
SciTegic.value.DoubleValue
-2.819

@<SCITEGIC>MOL_PROPERTY
W(PB)
SciTegic.value.DoubleValue
-4.568

@<SCITEGIC>MOL_PROPERTY
W(SA)
SciTegic.value.DoubleValue
1.750

@<SCITEGIC>MOL_PROPERTY
Valence
SciTegic.value.DoubleValue
13.789

@<SCITEGIC>MOL_PROPERTY
Coulomb
SciTegic.value.DoubleValue
-8.574

@<SCITEGIC>MOL_PROPERTY
VdW
SciTegic.value.DoubleValue
0.628

@<SCITEGIC>MOL_PROPERTY
VdW6
SciTegic.value.DoubleValue
-3.284

@<SCITEGIC>MOL_PROPERTY
VdW12
SciTegic.value.DoubleValue
3.913

@<SCITEGIC>MOL_PROPERTY
Bond
SciTegic.value.DoubleValue
0.054

@<SCITEGIC>MOL_PROPERTY
Angle
SciTegic.value.DoubleValue
4.033

@<SCITEGIC>MOL_PROPERTY
Pdih
SciTegic.value.DoubleValue
9.702

@<SCITEGIC>MOL_PROPERTY
Idih
SciTegic.value.DoubleValue
0.000

@<SCITEGIC>MOL_PROPERTY
Tether
SciTegic.value.DoubleValue
0.000

@<TRIPOS>MOLECULE
guest-4_confgen4.mol2 : confsearch ligand conformer 105
          16          16           1
SMALL
USER_CHARGES
 
@<TRIPOS>ATOM
       1    C1      19.330227   18.793348   20.935578 C.3        1 MOL1        -0.1689
       2    H1      18.330272   18.668199   20.497794 H          1 MOL1         0.0830
       3    H2      20.019140   19.059837   20.122325 H          1 MOL1         0.0830
       4    C2      19.761790   17.489012   21.640903 C.3        1 MOL1        -0.1689
       5    H3      18.971160   16.732271   21.543568 H          1 MOL1         0.0830
       6    H4      20.677057   17.073732   21.197250 H          1 MOL1         0.0830
       7    C3      19.978144   17.845965   23.126908 C.3        1 MOL1        -0.1765
       8    H5      21.046689   18.019266   23.310750 H          1 MOL1         0.0830
       9    H6      19.649228   17.043012   23.800024 H          1 MOL1         0.0830
      10    C4      19.212822   19.154519   23.365578 C.3        1 MOL1         0.1214
      11    H7      19.660850   19.742619   24.179452 H          1 MOL1         0.0787
      12    C5      19.303198   19.889763   22.021626 C.3        1 MOL1        -0.1765
      13    H8      18.475814   20.597476   21.878165 H          1 MOL1         0.0830
      14    H9      20.240537   20.460737   21.989912 H          1 MOL1         0.0830
      15    O1      17.852724   18.856553   23.645143 O.3        1 MOL1        -0.5512
      16    H10     17.542100   18.337455   22.874939 H          1 MOL1         0.3776
@<TRIPOS>BOND
    1     1     2    1
    2     1     3    1
    3     1     4    1
    4     4     5    1
    5     4     6    1
    6     4     7    1
    7     7     8    1
    8     7     9    1
    9     7    10    1
   10    10    11    1
   11     1    12    1
   12    10    12    1
   13    12    13    1
   14    12    14    1
   15    10    15    1
   16    15    16    1
@<TRIPOS>SUBSTRUCTURE
       1 MOL1            1 RESIDUE      1      MOL     
@<SCITEGIC>MOL_PROPERTY
VConf Rank
SciTegic.value.IntegerValue
105

@<SCITEGIC>MOL_PROPERTY
Conf_Id
SciTegic.value.IntegerValue
20

@<SCITEGIC>MOL_PROPERTY
Delta U+W
SciTegic.value.DoubleValue
-0.483

@<SCITEGIC>MOL_PROPERTY
U+W
SciTegic.value.DoubleValue
2.527

@<SCITEGIC>MOL_PROPERTY
Grad RMS
SciTegic.value.DoubleValue
0.000000

@<SCITEGIC>MOL_PROPERTY
U
SciTegic.value.DoubleValue
4.508

@<SCITEGIC>MOL_PROPERTY
W
SciTegic.value.DoubleValue
-1.981

@<SCITEGIC>MOL_PROPERTY
W(PB)
SciTegic.value.DoubleValue
-3.712

@<SCITEGIC>MOL_PROPERTY
W(SA)
SciTegic.value.DoubleValue
1.732

@<SCITEGIC>MOL_PROPERTY
Valence
SciTegic.value.DoubleValue
14.705

@<SCITEGIC>MOL_PROPERTY
Coulomb
SciTegic.value.DoubleValue
-10.687

@<SCITEGIC>MOL_PROPERTY
VdW
SciTegic.value.DoubleValue
0.490

@<SCITEGIC>MOL_PROPERTY
VdW6
SciTegic.value.DoubleValue
-3.745

@<SCITEGIC>MOL_PROPERTY
VdW12
SciTegic.value.DoubleValue
4.235

@<SCITEGIC>MOL_PROPERTY
Bond
SciTegic.value.DoubleValue
0.068

@<SCITEGIC>MOL_PROPERTY
Angle
SciTegic.value.DoubleValue
3.901

@<SCITEGIC>MOL_PROPERTY
Pdih
SciTegic.value.DoubleValue
10.737

@<SCITEGIC>MOL_PROPERTY
Idih
SciTegic.value.DoubleValue
0.000

@<SCITEGIC>MOL_PROPERTY
Tether
SciTegic.value.DoubleValue
0.000

@<TRIPOS>MOLECULE
guest-4_confgen4.mol2 : confsearch ligand conformer 106
          16          16           1
SMALL
USER_CHARGES
 
@<TRIPOS>ATOM
       1    C1      20.048233   18.658857   23.589475 C.3        1 MOL1        -0.1689
       2    H1      20.693612   19.542938   23.491670 H          1 MOL1         0.0830
       3    H2      20.152450   18.268020   24.610763 H          1 MOL1         0.0830
       4    C2      20.430209   17.622754   22.523496 C.3        1 MOL1        -0.1689
       5    H3      21.516702   17.556331   22.375577 H          1 MOL1         0.0830
       6    H4      20.063015   16.631337   22.823308 H          1 MOL1         0.0830
       7    C3      19.693563   18.089249   21.254523 C.3        1 MOL1        -0.1765
       8    H5      19.446114   17.243192   20.600458 H          1 MOL1         0.0830
       9    H6      20.340722   18.774217   20.689909 H          1 MOL1         0.0830
      10    C4      18.424869   18.825572   21.734027 C.3        1 MOL1         0.1214
      11    H7      17.536966   18.202346   21.553099 H          1 MOL1         0.0787
      12    C5      18.595291   19.041229   23.252014 C.3        1 MOL1        -0.1765
      13    H8      18.367842   20.072090   23.554691 H          1 MOL1         0.0830
      14    H9      17.905385   18.376283   23.787698 H          1 MOL1         0.0830
      15    O1      18.304229   20.078445   21.070971 O.3        1 MOL1        -0.5512
      16    H10     18.210363   19.882674   20.114731 H          1 MOL1         0.3776
@<TRIPOS>BOND
    1     1     2    1
    2     1     3    1
    3     1     4    1
    4     4     5    1
    5     4     6    1
    6     4     7    1
    7     7     8    1
    8     7     9    1
    9     7    10    1
   10    10    11    1
   11     1    12    1
   12    10    12    1
   13    12    13    1
   14    12    14    1
   15    10    15    1
   16    15    16    1
@<TRIPOS>SUBSTRUCTURE
       1 MOL1            1 RESIDUE      1      MOL     
@<SCITEGIC>MOL_PROPERTY
VConf Rank
SciTegic.value.IntegerValue
106

@<SCITEGIC>MOL_PROPERTY
Conf_Id
SciTegic.value.IntegerValue
59

@<SCITEGIC>MOL_PROPERTY
Delta U+W
SciTegic.value.DoubleValue
0.000

@<SCITEGIC>MOL_PROPERTY
U+W
SciTegic.value.DoubleValue
3.010

@<SCITEGIC>MOL_PROPERTY
Grad RMS
SciTegic.value.DoubleValue
0.000000

@<SCITEGIC>MOL_PROPERTY
U
SciTegic.value.DoubleValue
5.843

@<SCITEGIC>MOL_PROPERTY
W
SciTegic.value.DoubleValue
-2.833

@<SCITEGIC>MOL_PROPERTY
W(PB)
SciTegic.value.DoubleValue
-4.568

@<SCITEGIC>MOL_PROPERTY
W(SA)
SciTegic.value.DoubleValue
1.735

@<SCITEGIC>MOL_PROPERTY
Valence
SciTegic.value.DoubleValue
13.789

@<SCITEGIC>MOL_PROPERTY
Coulomb
SciTegic.value.DoubleValue
-8.574

@<SCITEGIC>MOL_PROPERTY
VdW
SciTegic.value.DoubleValue
0.628

@<SCITEGIC>MOL_PROPERTY
VdW6
SciTegic.value.DoubleValue
-3.284

@<SCITEGIC>MOL_PROPERTY
VdW12
SciTegic.value.DoubleValue
3.912

@<SCITEGIC>MOL_PROPERTY
Bond
SciTegic.value.DoubleValue
0.054

@<SCITEGIC>MOL_PROPERTY
Angle
SciTegic.value.DoubleValue
4.034

@<SCITEGIC>MOL_PROPERTY
Pdih
SciTegic.value.DoubleValue
9.702

@<SCITEGIC>MOL_PROPERTY
Idih
SciTegic.value.DoubleValue
0.000

@<SCITEGIC>MOL_PROPERTY
Tether
SciTegic.value.DoubleValue
0.000

@<TRIPOS>MOLECULE
guest-4_confgen4.mol2 : confsearch ligand conformer 107
          16          16           1
SMALL
USER_CHARGES
 
@<TRIPOS>ATOM
       1    C1      18.851830   17.473781   22.928170 C.3        1 MOL1        -0.1689
       2    H1      18.403961   17.198506   23.892740 H          1 MOL1         0.0830
       3    H2      18.682803   16.648250   22.222798 H          1 MOL1         0.0830
       4    C2      20.356258   17.755646   23.042086 C.3        1 MOL1        -0.1689
       5    H3      20.558963   18.302742   23.973362 H          1 MOL1         0.0830
       6    H4      20.956374   16.835598   23.045870 H          1 MOL1         0.0830
       7    C3      20.671631   18.657999   21.834867 C.3        1 MOL1        -0.1765
       8    H5      20.949111   18.036976   20.973229 H          1 MOL1         0.0830
       9    H6      21.511777   19.333699   22.043682 H          1 MOL1         0.0830
      10    C4      19.372824   19.422784   21.506229 C.3        1 MOL1         0.1214
      11    H7      19.143796   19.307114   20.436796 H          1 MOL1         0.0787
      12    C5      18.260154   18.775752   22.357728 C.3        1 MOL1        -0.1765
      13    H8      17.979337   19.440600   23.185919 H          1 MOL1         0.0830
      14    H9      17.359036   18.579701   21.762416 H          1 MOL1         0.0830
      15    O1      19.513774   20.797255   21.845137 O.3        1 MOL1        -0.5512
      16    H10     18.660986   21.229506   21.627329 H          1 MOL1         0.3776
@<TRIPOS>BOND
    1     1     2    1
    2     1     3    1
    3     1     4    1
    4     4     5    1
    5     4     6    1
    6     4     7    1
    7     7     8    1
    8     7     9    1
    9     7    10    1
   10    10    11    1
   11     1    12    1
   12    10    12    1
   13    12    13    1
   14    12    14    1
   15    10    15    1
   16    15    16    1
@<TRIPOS>SUBSTRUCTURE
       1 MOL1            1 RESIDUE      1      MOL     
@<SCITEGIC>MOL_PROPERTY
VConf Rank
SciTegic.value.IntegerValue
107

@<SCITEGIC>MOL_PROPERTY
Conf_Id
SciTegic.value.IntegerValue
33

@<SCITEGIC>MOL_PROPERTY
Delta U+W
SciTegic.value.DoubleValue
0.015

@<SCITEGIC>MOL_PROPERTY
U+W
SciTegic.value.DoubleValue
3.025

@<SCITEGIC>MOL_PROPERTY
Grad RMS
SciTegic.value.DoubleValue
0.000000

@<SCITEGIC>MOL_PROPERTY
U
SciTegic.value.DoubleValue
5.843

@<SCITEGIC>MOL_PROPERTY
W
SciTegic.value.DoubleValue
-2.819

@<SCITEGIC>MOL_PROPERTY
W(PB)
SciTegic.value.DoubleValue
-4.568

@<SCITEGIC>MOL_PROPERTY
W(SA)
SciTegic.value.DoubleValue
1.750

@<SCITEGIC>MOL_PROPERTY
Valence
SciTegic.value.DoubleValue
13.789

@<SCITEGIC>MOL_PROPERTY
Coulomb
SciTegic.value.DoubleValue
-8.574

@<SCITEGIC>MOL_PROPERTY
VdW
SciTegic.value.DoubleValue
0.628

@<SCITEGIC>MOL_PROPERTY
VdW6
SciTegic.value.DoubleValue
-3.284

@<SCITEGIC>MOL_PROPERTY
VdW12
SciTegic.value.DoubleValue
3.913

@<SCITEGIC>MOL_PROPERTY
Bond
SciTegic.value.DoubleValue
0.054

@<SCITEGIC>MOL_PROPERTY
Angle
SciTegic.value.DoubleValue
4.033

@<SCITEGIC>MOL_PROPERTY
Pdih
SciTegic.value.DoubleValue
9.702

@<SCITEGIC>MOL_PROPERTY
Idih
SciTegic.value.DoubleValue
0.000

@<SCITEGIC>MOL_PROPERTY
Tether
SciTegic.value.DoubleValue
0.000

@<TRIPOS>MOLECULE
guest-4_confgen4.mol2 : confsearch ligand conformer 108
          16          16           1
SMALL
USER_CHARGES
 
@<TRIPOS>ATOM
       1    C1      19.816831   17.500409   21.657394 C.3        1 MOL1        -0.1689
       2    H1      20.217359   16.742423   22.344607 H          1 MOL1         0.0830
       3    H2      19.883893   17.095157   20.638438 H          1 MOL1         0.0830
       4    C2      20.616754   18.813729   21.799999 C.3        1 MOL1        -0.1689
       5    H3      21.405082   18.691027   22.555452 H          1 MOL1         0.0830
       6    H4      21.101439   19.096024   20.855336 H          1 MOL1         0.0830
       7    C3      19.609525   19.892906   22.250891 C.3        1 MOL1        -0.1765
       8    H5      19.274528   20.469420   21.378521 H          1 MOL1         0.0830
       9    H6      20.048811   20.598260   22.968881 H          1 MOL1         0.0830
      10    C4      18.410606   19.136428   22.838538 C.3        1 MOL1         0.1214
      11    H7      17.480164   19.714040   22.740433 H          1 MOL1         0.0787
      12    C5      18.356029   17.835577   22.026279 C.3        1 MOL1        -0.1765
      13    H8      17.868584   17.020756   22.578066 H          1 MOL1         0.0830
      14    H9      17.777344   18.011465   21.109868 H          1 MOL1         0.0830
      15    O1      18.673975   18.827383   24.199396 O.3        1 MOL1        -0.5512
      16    H10     19.510831   18.318758   24.187815 H          1 MOL1         0.3776
@<TRIPOS>BOND
    1     1     2    1
    2     1     3    1
    3     1     4    1
    4     4     5    1
    5     4     6    1
    6     4     7    1
    7     7     8    1
    8     7     9    1
    9     7    10    1
   10    10    11    1
   11     1    12    1
   12    10    12    1
   13    12    13    1
   14    12    14    1
   15    10    15    1
   16    15    16    1
@<TRIPOS>SUBSTRUCTURE
       1 MOL1            1 RESIDUE      1      MOL     
@<SCITEGIC>MOL_PROPERTY
VConf Rank
SciTegic.value.IntegerValue
108

@<SCITEGIC>MOL_PROPERTY
Conf_Id
SciTegic.value.IntegerValue
20

@<SCITEGIC>MOL_PROPERTY
Delta U+W
SciTegic.value.DoubleValue
-0.483

@<SCITEGIC>MOL_PROPERTY
U+W
SciTegic.value.DoubleValue
2.527

@<SCITEGIC>MOL_PROPERTY
Grad RMS
SciTegic.value.DoubleValue
0.000000

@<SCITEGIC>MOL_PROPERTY
U
SciTegic.value.DoubleValue
4.508

@<SCITEGIC>MOL_PROPERTY
W
SciTegic.value.DoubleValue
-1.981

@<SCITEGIC>MOL_PROPERTY
W(PB)
SciTegic.value.DoubleValue
-3.712

@<SCITEGIC>MOL_PROPERTY
W(SA)
SciTegic.value.DoubleValue
1.732

@<SCITEGIC>MOL_PROPERTY
Valence
SciTegic.value.DoubleValue
14.705

@<SCITEGIC>MOL_PROPERTY
Coulomb
SciTegic.value.DoubleValue
-10.687

@<SCITEGIC>MOL_PROPERTY
VdW
SciTegic.value.DoubleValue
0.490

@<SCITEGIC>MOL_PROPERTY
VdW6
SciTegic.value.DoubleValue
-3.745

@<SCITEGIC>MOL_PROPERTY
VdW12
SciTegic.value.DoubleValue
4.235

@<SCITEGIC>MOL_PROPERTY
Bond
SciTegic.value.DoubleValue
0.068

@<SCITEGIC>MOL_PROPERTY
Angle
SciTegic.value.DoubleValue
3.901

@<SCITEGIC>MOL_PROPERTY
Pdih
SciTegic.value.DoubleValue
10.737

@<SCITEGIC>MOL_PROPERTY
Idih
SciTegic.value.DoubleValue
0.000

@<SCITEGIC>MOL_PROPERTY
Tether
SciTegic.value.DoubleValue
0.000

@<TRIPOS>MOLECULE
guest-4_confgen4.mol2 : confsearch ligand conformer 109
          16          16           1
SMALL
USER_CHARGES
 
@<TRIPOS>ATOM
       1    C1      19.444534   19.040778   23.681405 C.3        1 MOL1        -0.1689
       2    H1      18.403132   19.207755   23.990076 H          1 MOL1         0.0830
       3    H2      20.096204   19.253839   24.539645 H          1 MOL1         0.0830
       4    C2      19.768398   19.921227   22.466642 C.3        1 MOL1        -0.1689
       5    H3      19.320952   20.921492   22.544234 H          1 MOL1         0.0830
       6    H4      20.857202   20.038073   22.374561 H          1 MOL1         0.0830
       7    C3      19.225955   19.128444   21.263393 C.3        1 MOL1        -0.1765
       8    H5      19.799904   19.340012   20.351983 H          1 MOL1         0.0830
       9    H6      18.182025   19.416704   21.079273 H          1 MOL1         0.0830
      10    C4      19.308307   17.637249   21.652282 C.3        1 MOL1         0.1214
      11    H7      20.131561   17.151393   21.108486 H          1 MOL1         0.0787
      12    C5      19.604587   17.598694   23.165743 C.3        1 MOL1        -0.1765
      13    H8      18.946053   16.902261   23.701780 H          1 MOL1         0.0830
      14    H9      20.639045   17.265062   23.319585 H          1 MOL1         0.0830
      15    O1      18.071919   16.989292   21.377717 O.3        1 MOL1        -0.5512
      16    H10     17.929787   17.053262   20.409606 H          1 MOL1         0.3776
@<TRIPOS>BOND
    1     1     2    1
    2     1     3    1
    3     1     4    1
    4     4     5    1
    5     4     6    1
    6     4     7    1
    7     7     8    1
    8     7     9    1
    9     7    10    1
   10    10    11    1
   11     1    12    1
   12    10    12    1
   13    12    13    1
   14    12    14    1
   15    10    15    1
   16    15    16    1
@<TRIPOS>SUBSTRUCTURE
       1 MOL1            1 RESIDUE      1      MOL     
@<SCITEGIC>MOL_PROPERTY
VConf Rank
SciTegic.value.IntegerValue
109

@<SCITEGIC>MOL_PROPERTY
Conf_Id
SciTegic.value.IntegerValue
59

@<SCITEGIC>MOL_PROPERTY
Delta U+W
SciTegic.value.DoubleValue
0.000

@<SCITEGIC>MOL_PROPERTY
U+W
SciTegic.value.DoubleValue
3.010

@<SCITEGIC>MOL_PROPERTY
Grad RMS
SciTegic.value.DoubleValue
0.000000

@<SCITEGIC>MOL_PROPERTY
U
SciTegic.value.DoubleValue
5.843

@<SCITEGIC>MOL_PROPERTY
W
SciTegic.value.DoubleValue
-2.833

@<SCITEGIC>MOL_PROPERTY
W(PB)
SciTegic.value.DoubleValue
-4.568

@<SCITEGIC>MOL_PROPERTY
W(SA)
SciTegic.value.DoubleValue
1.735

@<SCITEGIC>MOL_PROPERTY
Valence
SciTegic.value.DoubleValue
13.789

@<SCITEGIC>MOL_PROPERTY
Coulomb
SciTegic.value.DoubleValue
-8.574

@<SCITEGIC>MOL_PROPERTY
VdW
SciTegic.value.DoubleValue
0.628

@<SCITEGIC>MOL_PROPERTY
VdW6
SciTegic.value.DoubleValue
-3.284

@<SCITEGIC>MOL_PROPERTY
VdW12
SciTegic.value.DoubleValue
3.912

@<SCITEGIC>MOL_PROPERTY
Bond
SciTegic.value.DoubleValue
0.054

@<SCITEGIC>MOL_PROPERTY
Angle
SciTegic.value.DoubleValue
4.034

@<SCITEGIC>MOL_PROPERTY
Pdih
SciTegic.value.DoubleValue
9.702

@<SCITEGIC>MOL_PROPERTY
Idih
SciTegic.value.DoubleValue
0.000

@<SCITEGIC>MOL_PROPERTY
Tether
SciTegic.value.DoubleValue
0.000

@<TRIPOS>MOLECULE
guest-4_confgen4.mol2 : confsearch ligand conformer 110
          16          16           1
SMALL
USER_CHARGES
 
@<TRIPOS>ATOM
       1    C1      18.726098   18.583810   23.530443 C.3        1 MOL1        -0.1689
       2    H1      17.882525   18.050204   23.989146 H          1 MOL1         0.0830
       3    H2      19.206687   19.197358   24.305178 H          1 MOL1         0.0830
       4    C2      18.286211   19.477846   22.362999 C.3        1 MOL1        -0.1689
       5    H3      17.513863   18.962475   21.775163 H          1 MOL1         0.0830
       6    H4      17.876524   20.439067   22.701900 H          1 MOL1         0.0830
       7    C3      19.556002   19.648636   21.508869 C.3        1 MOL1        -0.1765
       8    H5      20.113853   20.530292   21.850291 H          1 MOL1         0.0830
       9    H6      19.312908   19.797537   20.448325 H          1 MOL1         0.0830
      10    C4      20.415202   18.388668   21.741363 C.3        1 MOL1         0.1214
      11    H7      21.436526   18.690876   22.015382 H          1 MOL1         0.0787
      12    C5      19.758758   17.624643   22.910586 C.3        1 MOL1        -0.1765
      13    H8      19.244344   16.728171   22.538434 H          1 MOL1         0.0830
      14    H9      20.502796   17.303457   23.650920 H          1 MOL1         0.0830
      15    O1      20.426383   17.579762   20.571131 O.3        1 MOL1        -0.5512
      16    H10     20.973936   16.793108   20.778228 H          1 MOL1         0.3776
@<TRIPOS>BOND
    1     1     2    1
    2     1     3    1
    3     1     4    1
    4     4     5    1
    5     4     6    1
    6     4     7    1
    7     7     8    1
    8     7     9    1
    9     7    10    1
   10    10    11    1
   11     1    12    1
   12    10    12    1
   13    12    13    1
   14    12    14    1
   15    10    15    1
   16    15    16    1
@<TRIPOS>SUBSTRUCTURE
       1 MOL1            1 RESIDUE      1      MOL     
@<SCITEGIC>MOL_PROPERTY
VConf Rank
SciTegic.value.IntegerValue
110

@<SCITEGIC>MOL_PROPERTY
Conf_Id
SciTegic.value.IntegerValue
33

@<SCITEGIC>MOL_PROPERTY
Delta U+W
SciTegic.value.DoubleValue
0.015

@<SCITEGIC>MOL_PROPERTY
U+W
SciTegic.value.DoubleValue
3.025

@<SCITEGIC>MOL_PROPERTY
Grad RMS
SciTegic.value.DoubleValue
0.000000

@<SCITEGIC>MOL_PROPERTY
U
SciTegic.value.DoubleValue
5.843

@<SCITEGIC>MOL_PROPERTY
W
SciTegic.value.DoubleValue
-2.819

@<SCITEGIC>MOL_PROPERTY
W(PB)
SciTegic.value.DoubleValue
-4.568

@<SCITEGIC>MOL_PROPERTY
W(SA)
SciTegic.value.DoubleValue
1.750

@<SCITEGIC>MOL_PROPERTY
Valence
SciTegic.value.DoubleValue
13.789

@<SCITEGIC>MOL_PROPERTY
Coulomb
SciTegic.value.DoubleValue
-8.574

@<SCITEGIC>MOL_PROPERTY
VdW
SciTegic.value.DoubleValue
0.628

@<SCITEGIC>MOL_PROPERTY
VdW6
SciTegic.value.DoubleValue
-3.284

@<SCITEGIC>MOL_PROPERTY
VdW12
SciTegic.value.DoubleValue
3.913

@<SCITEGIC>MOL_PROPERTY
Bond
SciTegic.value.DoubleValue
0.054

@<SCITEGIC>MOL_PROPERTY
Angle
SciTegic.value.DoubleValue
4.033

@<SCITEGIC>MOL_PROPERTY
Pdih
SciTegic.value.DoubleValue
9.702

@<SCITEGIC>MOL_PROPERTY
Idih
SciTegic.value.DoubleValue
0.000

@<SCITEGIC>MOL_PROPERTY
Tether
SciTegic.value.DoubleValue
0.000

@<TRIPOS>MOLECULE
guest-4_confgen4.mol2 : confsearch ligand conformer 111
          16          16           1
SMALL
USER_CHARGES
 
@<TRIPOS>ATOM
       1    C1      19.016013   18.719154   20.976759 C.3        1 MOL1        -0.1689
       2    H1      18.015765   19.147578   20.824498 H          1 MOL1         0.0830
       3    H2      19.445377   18.514837   19.986356 H          1 MOL1         0.0830
       4    C2      18.913115   17.434154   21.827177 C.3        1 MOL1        -0.1689
       5    H3      17.862979   17.240097   22.085598 H          1 MOL1         0.0830
       6    H4      19.289610   16.557792   21.281980 H          1 MOL1         0.0830
       7    C3      19.738714   17.688566   23.106277 C.3        1 MOL1        -0.1765
       8    H5      20.738149   17.248624   22.991375 H          1 MOL1         0.0830
       9    H6      19.276620   17.240336   23.995977 H          1 MOL1         0.0830
      10    C4      19.875916   19.212190   23.227673 C.3        1 MOL1         0.1214
      11    H7      20.792617   19.494336   23.765293 H          1 MOL1         0.0787
      12    C5      19.900941   19.701348   21.773350 C.3        1 MOL1        -0.1765
      13    H8      19.559209   20.740650   21.678088 H          1 MOL1         0.0830
      14    H9      20.931881   19.652951   21.398594 H          1 MOL1         0.0830
      15    O1      18.726351   19.735021   23.877253 O.3        1 MOL1        -0.5512
      16    H10     17.968498   19.436131   23.333667 H          1 MOL1         0.3776
@<TRIPOS>BOND
    1     1     2    1
    2     1     3    1
    3     1     4    1
    4     4     5    1
    5     4     6    1
    6     4     7    1
    7     7     8    1
    8     7     9    1
    9     7    10    1
   10    10    11    1
   11     1    12    1
   12    10    12    1
   13    12    13    1
   14    12    14    1
   15    10    15    1
   16    15    16    1
@<TRIPOS>SUBSTRUCTURE
       1 MOL1            1 RESIDUE      1      MOL     
@<SCITEGIC>MOL_PROPERTY
VConf Rank
SciTegic.value.IntegerValue
111

@<SCITEGIC>MOL_PROPERTY
Conf_Id
SciTegic.value.IntegerValue
20

@<SCITEGIC>MOL_PROPERTY
Delta U+W
SciTegic.value.DoubleValue
-0.483

@<SCITEGIC>MOL_PROPERTY
U+W
SciTegic.value.DoubleValue
2.527

@<SCITEGIC>MOL_PROPERTY
Grad RMS
SciTegic.value.DoubleValue
0.000000

@<SCITEGIC>MOL_PROPERTY
U
SciTegic.value.DoubleValue
4.508

@<SCITEGIC>MOL_PROPERTY
W
SciTegic.value.DoubleValue
-1.981

@<SCITEGIC>MOL_PROPERTY
W(PB)
SciTegic.value.DoubleValue
-3.712

@<SCITEGIC>MOL_PROPERTY
W(SA)
SciTegic.value.DoubleValue
1.732

@<SCITEGIC>MOL_PROPERTY
Valence
SciTegic.value.DoubleValue
14.705

@<SCITEGIC>MOL_PROPERTY
Coulomb
SciTegic.value.DoubleValue
-10.687

@<SCITEGIC>MOL_PROPERTY
VdW
SciTegic.value.DoubleValue
0.490

@<SCITEGIC>MOL_PROPERTY
VdW6
SciTegic.value.DoubleValue
-3.745

@<SCITEGIC>MOL_PROPERTY
VdW12
SciTegic.value.DoubleValue
4.235

@<SCITEGIC>MOL_PROPERTY
Bond
SciTegic.value.DoubleValue
0.068

@<SCITEGIC>MOL_PROPERTY
Angle
SciTegic.value.DoubleValue
3.901

@<SCITEGIC>MOL_PROPERTY
Pdih
SciTegic.value.DoubleValue
10.737

@<SCITEGIC>MOL_PROPERTY
Idih
SciTegic.value.DoubleValue
0.000

@<SCITEGIC>MOL_PROPERTY
Tether
SciTegic.value.DoubleValue
0.000

@<TRIPOS>MOLECULE
guest-4_confgen4.mol2 : confsearch ligand conformer 112
          16          16           1
SMALL
USER_CHARGES
 
@<TRIPOS>ATOM
       1    C1      18.020488   18.535824   21.744783 C.3        1 MOL1        -0.1689
       2    H1      17.349217   18.380538   22.600913 H          1 MOL1         0.0830
       3    H2      17.405127   18.666381   20.844266 H          1 MOL1         0.0830
       4    C2      18.987114   17.349419   21.627294 C.3        1 MOL1        -0.1689
       5    H3      18.497016   16.388711   21.836105 H          1 MOL1         0.0830
       6    H4      19.401766   17.309746   20.610379 H          1 MOL1         0.0830
       7    C3      20.107406   17.666825   22.634645 C.3        1 MOL1        -0.1765
       8    H5      21.064586   17.230912   22.320586 H          1 MOL1         0.0830
       9    H6      19.847467   17.240660   23.613215 H          1 MOL1         0.0830
      10    C4      20.187399   19.205332   22.725623 C.3        1 MOL1         0.1214
      11    H7      21.084569   19.567147   22.202465 H          1 MOL1         0.0787
      12    C5      18.929941   19.748464   22.015946 C.3        1 MOL1        -0.1765
      13    H8      18.414793   20.515404   22.609619 H          1 MOL1         0.0830
      14    H9      19.226348   20.206999   21.063596 H          1 MOL1         0.0830
      15    O1      20.198406   19.616679   24.087445 O.3        1 MOL1        -0.5512
      16    H10     21.007924   19.236493   24.489530 H          1 MOL1         0.3776
@<TRIPOS>BOND
    1     1     2    1
    2     1     3    1
    3     1     4    1
    4     4     5    1
    5     4     6    1
    6     4     7    1
    7     7     8    1
    8     7     9    1
    9     7    10    1
   10    10    11    1
   11     1    12    1
   12    10    12    1
   13    12    13    1
   14    12    14    1
   15    10    15    1
   16    15    16    1
@<TRIPOS>SUBSTRUCTURE
       1 MOL1            1 RESIDUE      1      MOL     
@<SCITEGIC>MOL_PROPERTY
VConf Rank
SciTegic.value.IntegerValue
112

@<SCITEGIC>MOL_PROPERTY
Conf_Id
SciTegic.value.IntegerValue
59

@<SCITEGIC>MOL_PROPERTY
Delta U+W
SciTegic.value.DoubleValue
0.000

@<SCITEGIC>MOL_PROPERTY
U+W
SciTegic.value.DoubleValue
3.010

@<SCITEGIC>MOL_PROPERTY
Grad RMS
SciTegic.value.DoubleValue
0.000000

@<SCITEGIC>MOL_PROPERTY
U
SciTegic.value.DoubleValue
5.843

@<SCITEGIC>MOL_PROPERTY
W
SciTegic.value.DoubleValue
-2.833

@<SCITEGIC>MOL_PROPERTY
W(PB)
SciTegic.value.DoubleValue
-4.568

@<SCITEGIC>MOL_PROPERTY
W(SA)
SciTegic.value.DoubleValue
1.735

@<SCITEGIC>MOL_PROPERTY
Valence
SciTegic.value.DoubleValue
13.789

@<SCITEGIC>MOL_PROPERTY
Coulomb
SciTegic.value.DoubleValue
-8.574

@<SCITEGIC>MOL_PROPERTY
VdW
SciTegic.value.DoubleValue
0.628

@<SCITEGIC>MOL_PROPERTY
VdW6
SciTegic.value.DoubleValue
-3.284

@<SCITEGIC>MOL_PROPERTY
VdW12
SciTegic.value.DoubleValue
3.912

@<SCITEGIC>MOL_PROPERTY
Bond
SciTegic.value.DoubleValue
0.054

@<SCITEGIC>MOL_PROPERTY
Angle
SciTegic.value.DoubleValue
4.034

@<SCITEGIC>MOL_PROPERTY
Pdih
SciTegic.value.DoubleValue
9.702

@<SCITEGIC>MOL_PROPERTY
Idih
SciTegic.value.DoubleValue
0.000

@<SCITEGIC>MOL_PROPERTY
Tether
SciTegic.value.DoubleValue
0.000

@<TRIPOS>MOLECULE
guest-4_confgen4.mol2 : confsearch ligand conformer 113
          16          16           1
SMALL
USER_CHARGES
 
@<TRIPOS>ATOM
       1    C1      18.876206   17.442801   21.691255 C.3        1 MOL1        -0.1689
       2    H1      18.116281   17.179380   20.943001 H          1 MOL1         0.0830
       3    H2      19.415026   16.526789   21.970925 H          1 MOL1         0.0830
       4    C2      18.264365   18.084722   22.943978 C.3        1 MOL1        -0.1689
       5    H3      17.453235   18.765486   22.650195 H          1 MOL1         0.0830
       6    H4      17.853706   17.339877   23.639109 H          1 MOL1         0.0830
       7    C3      19.417830   18.894446   23.564414 C.3        1 MOL1        -0.1765
       8    H5      19.971103   18.264179   24.272747 H          1 MOL1         0.0830
       9    H6      19.047226   19.769350   24.115064 H          1 MOL1         0.0830
      10    C4      20.354092   19.287073   22.402924 C.3        1 MOL1         0.1214
      11    H7      21.385584   19.000792   22.655089 H          1 MOL1         0.0787
      12    C5      19.872427   18.494413   21.169464 C.3        1 MOL1        -0.1765
      13    H8      19.359368   19.162412   20.464248 H          1 MOL1         0.0830
      14    H9      20.710828   18.024360   20.639388 H          1 MOL1         0.0830
      15    O1      20.266297   20.684855   22.153139 O.3        1 MOL1        -0.5512
      16    H10     20.869042   20.874977   21.403418 H          1 MOL1         0.3776
@<TRIPOS>BOND
    1     1     2    1
    2     1     3    1
    3     1     4    1
    4     4     5    1
    5     4     6    1
    6     4     7    1
    7     7     8    1
    8     7     9    1
    9     7    10    1
   10    10    11    1
   11     1    12    1
   12    10    12    1
   13    12    13    1
   14    12    14    1
   15    10    15    1
   16    15    16    1
@<TRIPOS>SUBSTRUCTURE
       1 MOL1            1 RESIDUE      1      MOL     
@<SCITEGIC>MOL_PROPERTY
VConf Rank
SciTegic.value.IntegerValue
113

@<SCITEGIC>MOL_PROPERTY
Conf_Id
SciTegic.value.IntegerValue
33

@<SCITEGIC>MOL_PROPERTY
Delta U+W
SciTegic.value.DoubleValue
0.015

@<SCITEGIC>MOL_PROPERTY
U+W
SciTegic.value.DoubleValue
3.025

@<SCITEGIC>MOL_PROPERTY
Grad RMS
SciTegic.value.DoubleValue
0.000000

@<SCITEGIC>MOL_PROPERTY
U
SciTegic.value.DoubleValue
5.843

@<SCITEGIC>MOL_PROPERTY
W
SciTegic.value.DoubleValue
-2.819

@<SCITEGIC>MOL_PROPERTY
W(PB)
SciTegic.value.DoubleValue
-4.568

@<SCITEGIC>MOL_PROPERTY
W(SA)
SciTegic.value.DoubleValue
1.750

@<SCITEGIC>MOL_PROPERTY
Valence
SciTegic.value.DoubleValue
13.789

@<SCITEGIC>MOL_PROPERTY
Coulomb
SciTegic.value.DoubleValue
-8.574

@<SCITEGIC>MOL_PROPERTY
VdW
SciTegic.value.DoubleValue
0.628

@<SCITEGIC>MOL_PROPERTY
VdW6
SciTegic.value.DoubleValue
-3.284

@<SCITEGIC>MOL_PROPERTY
VdW12
SciTegic.value.DoubleValue
3.913

@<SCITEGIC>MOL_PROPERTY
Bond
SciTegic.value.DoubleValue
0.054

@<SCITEGIC>MOL_PROPERTY
Angle
SciTegic.value.DoubleValue
4.033

@<SCITEGIC>MOL_PROPERTY
Pdih
SciTegic.value.DoubleValue
9.702

@<SCITEGIC>MOL_PROPERTY
Idih
SciTegic.value.DoubleValue
0.000

@<SCITEGIC>MOL_PROPERTY
Tether
SciTegic.value.DoubleValue
0.000

@<TRIPOS>MOLECULE
guest-4_confgen4.mol2 : confsearch ligand conformer 114
          16          16           1
SMALL
USER_CHARGES
 
@<TRIPOS>ATOM
       1    C1      18.174643   18.516473   22.830420 C.3        1 MOL1        -0.1689
       2    H1      18.078708   17.690760   23.548905 H          1 MOL1         0.0830
       3    H2      17.215774   19.052276   22.808466 H          1 MOL1         0.0830
       4    C2      18.546688   17.960843   21.438343 C.3        1 MOL1        -0.1689
       5    H3      18.629773   16.866155   21.482857 H          1 MOL1         0.0830
       6    H4      17.782901   18.206880   20.687947 H          1 MOL1         0.0830
       7    C3      19.909260   18.584348   21.068105 C.3        1 MOL1        -0.1765
       8    H5      19.749985   19.453659   20.416530 H          1 MOL1         0.0830
       9    H6      20.557757   17.878974   20.531540 H          1 MOL1         0.0830
      10    C4      20.532530   19.058377   22.387887 C.3        1 MOL1         0.1214
      11    H7      21.214858   19.906303   22.231578 H          1 MOL1         0.0787
      12    C5      19.325787   19.455825   23.248563 C.3        1 MOL1        -0.1765
      13    H8      19.543238   19.394934   24.323277 H          1 MOL1         0.0830
      14    H9      19.052478   20.494713   23.021326 H          1 MOL1         0.0830
      15    O1      21.208060   17.971226   23.003167 O.3        1 MOL1        -0.5512
      16    H10     20.529313   17.272017   23.101004 H          1 MOL1         0.3776
@<TRIPOS>BOND
    1     1     2    1
    2     1     3    1
    3     1     4    1
    4     4     5    1
    5     4     6    1
    6     4     7    1
    7     7     8    1
    8     7     9    1
    9     7    10    1
   10    10    11    1
   11     1    12    1
   12    10    12    1
   13    12    13    1
   14    12    14    1
   15    10    15    1
   16    15    16    1
@<TRIPOS>SUBSTRUCTURE
       1 MOL1            1 RESIDUE      1      MOL     
@<SCITEGIC>MOL_PROPERTY
VConf Rank
SciTegic.value.IntegerValue
114

@<SCITEGIC>MOL_PROPERTY
Conf_Id
SciTegic.value.IntegerValue
20

@<SCITEGIC>MOL_PROPERTY
Delta U+W
SciTegic.value.DoubleValue
-0.483

@<SCITEGIC>MOL_PROPERTY
U+W
SciTegic.value.DoubleValue
2.527

@<SCITEGIC>MOL_PROPERTY
Grad RMS
SciTegic.value.DoubleValue
0.000000

@<SCITEGIC>MOL_PROPERTY
U
SciTegic.value.DoubleValue
4.508

@<SCITEGIC>MOL_PROPERTY
W
SciTegic.value.DoubleValue
-1.981

@<SCITEGIC>MOL_PROPERTY
W(PB)
SciTegic.value.DoubleValue
-3.712

@<SCITEGIC>MOL_PROPERTY
W(SA)
SciTegic.value.DoubleValue
1.732

@<SCITEGIC>MOL_PROPERTY
Valence
SciTegic.value.DoubleValue
14.705

@<SCITEGIC>MOL_PROPERTY
Coulomb
SciTegic.value.DoubleValue
-10.687

@<SCITEGIC>MOL_PROPERTY
VdW
SciTegic.value.DoubleValue
0.490

@<SCITEGIC>MOL_PROPERTY
VdW6
SciTegic.value.DoubleValue
-3.745

@<SCITEGIC>MOL_PROPERTY
VdW12
SciTegic.value.DoubleValue
4.235

@<SCITEGIC>MOL_PROPERTY
Bond
SciTegic.value.DoubleValue
0.068

@<SCITEGIC>MOL_PROPERTY
Angle
SciTegic.value.DoubleValue
3.901

@<SCITEGIC>MOL_PROPERTY
Pdih
SciTegic.value.DoubleValue
10.737

@<SCITEGIC>MOL_PROPERTY
Idih
SciTegic.value.DoubleValue
0.000

@<SCITEGIC>MOL_PROPERTY
Tether
SciTegic.value.DoubleValue
0.000

@<TRIPOS>MOLECULE
guest-4_confgen4.mol2 : confsearch ligand conformer 115
          16          16           1
SMALL
USER_CHARGES
 
@<TRIPOS>ATOM
       1    C1      19.044362   17.139864   22.190728 C.3        1 MOL1        -0.1689
       2    H1      17.981301   17.107609   21.914073 H          1 MOL1         0.0830
       3    H2      19.428582   16.110831   22.201217 H          1 MOL1         0.0830
       4    C2      19.201525   17.838134   23.548464 C.3        1 MOL1        -0.1689
       5    H3      18.407957   17.560581   24.255553 H          1 MOL1         0.0830
       6    H4      20.168851   17.566937   23.993837 H          1 MOL1         0.0830
       7    C3      19.186341   19.340229   23.210769 C.3        1 MOL1        -0.1765
       8    H5      19.774165   19.919946   23.934120 H          1 MOL1         0.0830
       9    H6      18.152209   19.709417   23.243252 H          1 MOL1         0.0830
      10    C4      19.756073   19.470652   21.782457 C.3        1 MOL1         0.1214
      11    H7      20.774505   19.884077   21.819793 H          1 MOL1         0.0787
      12    C5      19.807091   18.041882   21.202934 C.3        1 MOL1        -0.1765
      13    H8      19.380343   17.986411   20.192572 H          1 MOL1         0.0830
      14    H9      20.854120   17.717857   21.141140 H          1 MOL1         0.0830
      15    O1      18.908011   20.292051   20.988741 O.3        1 MOL1        -0.5512
      16    H10     18.904130   21.179056   21.406758 H          1 MOL1         0.3776
@<TRIPOS>BOND
    1     1     2    1
    2     1     3    1
    3     1     4    1
    4     4     5    1
    5     4     6    1
    6     4     7    1
    7     7     8    1
    8     7     9    1
    9     7    10    1
   10    10    11    1
   11     1    12    1
   12    10    12    1
   13    12    13    1
   14    12    14    1
   15    10    15    1
   16    15    16    1
@<TRIPOS>SUBSTRUCTURE
       1 MOL1            1 RESIDUE      1      MOL     
@<SCITEGIC>MOL_PROPERTY
VConf Rank
SciTegic.value.IntegerValue
115

@<SCITEGIC>MOL_PROPERTY
Conf_Id
SciTegic.value.IntegerValue
59

@<SCITEGIC>MOL_PROPERTY
Delta U+W
SciTegic.value.DoubleValue
0.000

@<SCITEGIC>MOL_PROPERTY
U+W
SciTegic.value.DoubleValue
3.010

@<SCITEGIC>MOL_PROPERTY
Grad RMS
SciTegic.value.DoubleValue
0.000000

@<SCITEGIC>MOL_PROPERTY
U
SciTegic.value.DoubleValue
5.843

@<SCITEGIC>MOL_PROPERTY
W
SciTegic.value.DoubleValue
-2.833

@<SCITEGIC>MOL_PROPERTY
W(PB)
SciTegic.value.DoubleValue
-4.568

@<SCITEGIC>MOL_PROPERTY
W(SA)
SciTegic.value.DoubleValue
1.735

@<SCITEGIC>MOL_PROPERTY
Valence
SciTegic.value.DoubleValue
13.789

@<SCITEGIC>MOL_PROPERTY
Coulomb
SciTegic.value.DoubleValue
-8.574

@<SCITEGIC>MOL_PROPERTY
VdW
SciTegic.value.DoubleValue
0.628

@<SCITEGIC>MOL_PROPERTY
VdW6
SciTegic.value.DoubleValue
-3.284

@<SCITEGIC>MOL_PROPERTY
VdW12
SciTegic.value.DoubleValue
3.912

@<SCITEGIC>MOL_PROPERTY
Bond
SciTegic.value.DoubleValue
0.054

@<SCITEGIC>MOL_PROPERTY
Angle
SciTegic.value.DoubleValue
4.034

@<SCITEGIC>MOL_PROPERTY
Pdih
SciTegic.value.DoubleValue
9.702

@<SCITEGIC>MOL_PROPERTY
Idih
SciTegic.value.DoubleValue
0.000

@<SCITEGIC>MOL_PROPERTY
Tether
SciTegic.value.DoubleValue
0.000

@<TRIPOS>MOLECULE
guest-4_confgen4.mol2 : confsearch ligand conformer 116
          16          16           1
SMALL
USER_CHARGES
 
@<TRIPOS>ATOM
       1    C1      18.472790   17.666466   22.747514 C.3        1 MOL1        -0.1689
       2    H1      17.522048   17.651587   23.297630 H          1 MOL1         0.0830
       3    H2      18.652987   16.659676   22.345615 H          1 MOL1         0.0830
       4    C2      19.653400   18.087724   23.633195 C.3        1 MOL1        -0.1689
       5    H3      19.338730   18.898168   24.305387 H          1 MOL1         0.0830
       6    H4      20.033881   17.259870   24.246818 H          1 MOL1         0.0830
       7    C3      20.707175   18.618364   22.643722 C.3        1 MOL1        -0.1765
       8    H5      21.361220   17.795993   22.325895 H          1 MOL1         0.0830
       9    H6      21.339945   19.389993   23.102208 H          1 MOL1         0.0830
      10    C4      19.933124   19.147610   21.418755 C.3        1 MOL1         0.1214
      11    H7      20.354389   18.705590   20.504057 H          1 MOL1         0.0787
      12    C5      18.469558   18.692663   21.599681 C.3        1 MOL1        -0.1765
      13    H8      17.837043   19.546714   21.877716 H          1 MOL1         0.0830
      14    H9      18.064512   18.259818   20.675869 H          1 MOL1         0.0830
      15    O1      20.003317   20.567684   21.370186 O.3        1 MOL1        -0.5512
      16    H10     19.488496   20.847992   20.584110 H          1 MOL1         0.3776
@<TRIPOS>BOND
    1     1     2    1
    2     1     3    1
    3     1     4    1
    4     4     5    1
    5     4     6    1
    6     4     7    1
    7     7     8    1
    8     7     9    1
    9     7    10    1
   10    10    11    1
   11     1    12    1
   12    10    12    1
   13    12    13    1
   14    12    14    1
   15    10    15    1
   16    15    16    1
@<TRIPOS>SUBSTRUCTURE
       1 MOL1            1 RESIDUE      1      MOL     
@<SCITEGIC>MOL_PROPERTY
VConf Rank
SciTegic.value.IntegerValue
116

@<SCITEGIC>MOL_PROPERTY
Conf_Id
SciTegic.value.IntegerValue
33

@<SCITEGIC>MOL_PROPERTY
Delta U+W
SciTegic.value.DoubleValue
0.015

@<SCITEGIC>MOL_PROPERTY
U+W
SciTegic.value.DoubleValue
3.025

@<SCITEGIC>MOL_PROPERTY
Grad RMS
SciTegic.value.DoubleValue
0.000000

@<SCITEGIC>MOL_PROPERTY
U
SciTegic.value.DoubleValue
5.843

@<SCITEGIC>MOL_PROPERTY
W
SciTegic.value.DoubleValue
-2.819

@<SCITEGIC>MOL_PROPERTY
W(PB)
SciTegic.value.DoubleValue
-4.568

@<SCITEGIC>MOL_PROPERTY
W(SA)
SciTegic.value.DoubleValue
1.750

@<SCITEGIC>MOL_PROPERTY
Valence
SciTegic.value.DoubleValue
13.789

@<SCITEGIC>MOL_PROPERTY
Coulomb
SciTegic.value.DoubleValue
-8.574

@<SCITEGIC>MOL_PROPERTY
VdW
SciTegic.value.DoubleValue
0.628

@<SCITEGIC>MOL_PROPERTY
VdW6
SciTegic.value.DoubleValue
-3.284

@<SCITEGIC>MOL_PROPERTY
VdW12
SciTegic.value.DoubleValue
3.913

@<SCITEGIC>MOL_PROPERTY
Bond
SciTegic.value.DoubleValue
0.054

@<SCITEGIC>MOL_PROPERTY
Angle
SciTegic.value.DoubleValue
4.033

@<SCITEGIC>MOL_PROPERTY
Pdih
SciTegic.value.DoubleValue
9.702

@<SCITEGIC>MOL_PROPERTY
Idih
SciTegic.value.DoubleValue
0.000

@<SCITEGIC>MOL_PROPERTY
Tether
SciTegic.value.DoubleValue
0.000

@<TRIPOS>MOLECULE
guest-4_confgen4.mol2 : confsearch ligand conformer 117
          16          16           1
SMALL
USER_CHARGES
 
@<TRIPOS>ATOM
       1    C1      19.010471   18.389736   20.992781 C.3        1 MOL1        -0.1689
       2    H1      19.464500   17.498121   20.538791 H          1 MOL1         0.0830
       3    H2      18.347660   18.844322   20.243762 H          1 MOL1         0.0830
       4    C2      20.115337   19.370288   21.443127 C.3        1 MOL1        -0.1689
       5    H3      21.104039   18.953717   21.206138 H          1 MOL1         0.0830
       6    H4      20.029866   20.338183   20.930415 H          1 MOL1         0.0830
       7    C3      19.958311   19.535391   22.969731 C.3        1 MOL1        -0.1765
       8    H5      19.389657   20.450090   23.183225 H          1 MOL1         0.0830
       9    H6      20.926604   19.616866   23.481371 H          1 MOL1         0.0830
      10    C4      19.148711   18.322416   23.447467 C.3        1 MOL1         0.1214
      11    H7      18.574795   18.551748   24.356869 H          1 MOL1         0.0787
      12    C5      18.226520   18.000097   22.263985 C.3        1 MOL1        -0.1765
      13    H8      17.914658   16.947171   22.254355 H          1 MOL1         0.0830
      14    H9      17.320767   18.616137   22.339672 H          1 MOL1         0.0830
      15    O1      20.028699   17.229385   23.665897 O.3        1 MOL1        -0.5512
      16    H10     20.491158   17.100097   22.812329 H          1 MOL1         0.3776
@<TRIPOS>BOND
    1     1     2    1
    2     1     3    1
    3     1     4    1
    4     4     5    1
    5     4     6    1
    6     4     7    1
    7     7     8    1
    8     7     9    1
    9     7    10    1
   10    10    11    1
   11     1    12    1
   12    10    12    1
   13    12    13    1
   14    12    14    1
   15    10    15    1
   16    15    16    1
@<TRIPOS>SUBSTRUCTURE
       1 MOL1            1 RESIDUE      1      MOL     
@<SCITEGIC>MOL_PROPERTY
VConf Rank
SciTegic.value.IntegerValue
117

@<SCITEGIC>MOL_PROPERTY
Conf_Id
SciTegic.value.IntegerValue
20

@<SCITEGIC>MOL_PROPERTY
Delta U+W
SciTegic.value.DoubleValue
-0.483

@<SCITEGIC>MOL_PROPERTY
U+W
SciTegic.value.DoubleValue
2.527

@<SCITEGIC>MOL_PROPERTY
Grad RMS
SciTegic.value.DoubleValue
0.000000

@<SCITEGIC>MOL_PROPERTY
U
SciTegic.value.DoubleValue
4.508

@<SCITEGIC>MOL_PROPERTY
W
SciTegic.value.DoubleValue
-1.981

@<SCITEGIC>MOL_PROPERTY
W(PB)
SciTegic.value.DoubleValue
-3.712

@<SCITEGIC>MOL_PROPERTY
W(SA)
SciTegic.value.DoubleValue
1.732

@<SCITEGIC>MOL_PROPERTY
Valence
SciTegic.value.DoubleValue
14.705

@<SCITEGIC>MOL_PROPERTY
Coulomb
SciTegic.value.DoubleValue
-10.687

@<SCITEGIC>MOL_PROPERTY
VdW
SciTegic.value.DoubleValue
0.490

@<SCITEGIC>MOL_PROPERTY
VdW6
SciTegic.value.DoubleValue
-3.745

@<SCITEGIC>MOL_PROPERTY
VdW12
SciTegic.value.DoubleValue
4.235

@<SCITEGIC>MOL_PROPERTY
Bond
SciTegic.value.DoubleValue
0.068

@<SCITEGIC>MOL_PROPERTY
Angle
SciTegic.value.DoubleValue
3.901

@<SCITEGIC>MOL_PROPERTY
Pdih
SciTegic.value.DoubleValue
10.737

@<SCITEGIC>MOL_PROPERTY
Idih
SciTegic.value.DoubleValue
0.000

@<SCITEGIC>MOL_PROPERTY
Tether
SciTegic.value.DoubleValue
0.000

@<TRIPOS>MOLECULE
guest-4_confgen4.mol2 : confsearch ligand conformer 118
          16          16           1
SMALL
USER_CHARGES
 
@<TRIPOS>ATOM
       1    C1      20.468536   19.492519   22.316070 C.3        1 MOL1        -0.1689
       2    H1      20.781259   19.560723   23.367369 H          1 MOL1         0.0830
       3    H2      21.151071   20.107057   21.713465 H          1 MOL1         0.0830
       4    C2      19.006212   19.939732   22.184405 C.3        1 MOL1        -0.1689
       5    H3      18.774247   20.803502   22.822255 H          1 MOL1         0.0830
       6    H4      18.796739   20.216461   21.141731 H          1 MOL1         0.0830
       7    C3      18.188293   18.692585   22.566750 C.3        1 MOL1        -0.1765
       8    H5      17.217950   18.676533   22.053892 H          1 MOL1         0.0830
       9    H6      17.998025   18.700601   23.648655 H          1 MOL1         0.0830
      10    C4      19.052074   17.472078   22.184748 C.3        1 MOL1         0.1214
      11    H7      18.643703   16.988706   21.285247 H          1 MOL1         0.0787
      12    C5      20.461541   18.017250   21.874866 C.3        1 MOL1        -0.1765
      13    H8      21.250744   17.441509   22.376565 H          1 MOL1         0.0830
      14    H9      20.639523   17.955252   20.793405 H          1 MOL1         0.0830
      15    O1      19.109099   16.552428   23.268668 O.3        1 MOL1        -0.5512
      16    H10     18.190551   16.248597   23.428320 H          1 MOL1         0.3776
@<TRIPOS>BOND
    1     1     2    1
    2     1     3    1
    3     1     4    1
    4     4     5    1
    5     4     6    1
    6     4     7    1
    7     7     8    1
    8     7     9    1
    9     7    10    1
   10    10    11    1
   11     1    12    1
   12    10    12    1
   13    12    13    1
   14    12    14    1
   15    10    15    1
   16    15    16    1
@<TRIPOS>SUBSTRUCTURE
       1 MOL1            1 RESIDUE      1      MOL     
@<SCITEGIC>MOL_PROPERTY
VConf Rank
SciTegic.value.IntegerValue
118

@<SCITEGIC>MOL_PROPERTY
Conf_Id
SciTegic.value.IntegerValue
59

@<SCITEGIC>MOL_PROPERTY
Delta U+W
SciTegic.value.DoubleValue
0.000

@<SCITEGIC>MOL_PROPERTY
U+W
SciTegic.value.DoubleValue
3.010

@<SCITEGIC>MOL_PROPERTY
Grad RMS
SciTegic.value.DoubleValue
0.000000

@<SCITEGIC>MOL_PROPERTY
U
SciTegic.value.DoubleValue
5.843

@<SCITEGIC>MOL_PROPERTY
W
SciTegic.value.DoubleValue
-2.833

@<SCITEGIC>MOL_PROPERTY
W(PB)
SciTegic.value.DoubleValue
-4.568

@<SCITEGIC>MOL_PROPERTY
W(SA)
SciTegic.value.DoubleValue
1.735

@<SCITEGIC>MOL_PROPERTY
Valence
SciTegic.value.DoubleValue
13.789

@<SCITEGIC>MOL_PROPERTY
Coulomb
SciTegic.value.DoubleValue
-8.574

@<SCITEGIC>MOL_PROPERTY
VdW
SciTegic.value.DoubleValue
0.628

@<SCITEGIC>MOL_PROPERTY
VdW6
SciTegic.value.DoubleValue
-3.284

@<SCITEGIC>MOL_PROPERTY
VdW12
SciTegic.value.DoubleValue
3.912

@<SCITEGIC>MOL_PROPERTY
Bond
SciTegic.value.DoubleValue
0.054

@<SCITEGIC>MOL_PROPERTY
Angle
SciTegic.value.DoubleValue
4.034

@<SCITEGIC>MOL_PROPERTY
Pdih
SciTegic.value.DoubleValue
9.702

@<SCITEGIC>MOL_PROPERTY
Idih
SciTegic.value.DoubleValue
0.000

@<SCITEGIC>MOL_PROPERTY
Tether
SciTegic.value.DoubleValue
0.000

@<TRIPOS>MOLECULE
guest-4_confgen4.mol2 : confsearch ligand conformer 119
          16          16           1
SMALL
USER_CHARGES
 
@<TRIPOS>ATOM
       1    C1      19.273382   17.251766   21.870812 C.3        1 MOL1        -0.1689
       2    H1      19.327341   16.650353   20.953125 H          1 MOL1         0.0830
       3    H2      19.147475   16.568667   22.722367 H          1 MOL1         0.0830
       4    C2      18.115810   18.259189   21.841563 C.3        1 MOL1        -0.1689
       5    H3      18.031314   18.693985   20.835834 H          1 MOL1         0.0830
       6    H4      17.152385   17.798851   22.099521 H          1 MOL1         0.0830
       7    C3      18.531414   19.352724   22.842827 C.3        1 MOL1        -0.1765
       8    H5      18.158965   19.096999   23.843313 H          1 MOL1         0.0830
       9    H6      18.112385   20.330628   22.570543 H          1 MOL1         0.0830
      10    C4      20.073838   19.363010   22.867746 C.3        1 MOL1         0.1214
      11    H7      20.420816   19.296633   23.909244 H          1 MOL1         0.0787
      12    C5      20.529576   18.117419   22.078732 C.3        1 MOL1        -0.1765
      13    H8      20.933064   18.412957   21.100655 H          1 MOL1         0.0830
      14    H9      21.313038   17.565336   22.613744 H          1 MOL1         0.0830
      15    O1      20.566594   20.544562   22.247244 O.3        1 MOL1        -0.5512
      16    H10     21.545219   20.492831   22.281089 H          1 MOL1         0.3776
@<TRIPOS>BOND
    1     1     2    1
    2     1     3    1
    3     1     4    1
    4     4     5    1
    5     4     6    1
    6     4     7    1
    7     7     8    1
    8     7     9    1
    9     7    10    1
   10    10    11    1
   11     1    12    1
   12    10    12    1
   13    12    13    1
   14    12    14    1
   15    10    15    1
   16    15    16    1
@<TRIPOS>SUBSTRUCTURE
       1 MOL1            1 RESIDUE      1      MOL     
@<SCITEGIC>MOL_PROPERTY
VConf Rank
SciTegic.value.IntegerValue
119

@<SCITEGIC>MOL_PROPERTY
Conf_Id
SciTegic.value.IntegerValue
33

@<SCITEGIC>MOL_PROPERTY
Delta U+W
SciTegic.value.DoubleValue
0.015

@<SCITEGIC>MOL_PROPERTY
U+W
SciTegic.value.DoubleValue
3.025

@<SCITEGIC>MOL_PROPERTY
Grad RMS
SciTegic.value.DoubleValue
0.000000

@<SCITEGIC>MOL_PROPERTY
U
SciTegic.value.DoubleValue
5.843

@<SCITEGIC>MOL_PROPERTY
W
SciTegic.value.DoubleValue
-2.819

@<SCITEGIC>MOL_PROPERTY
W(PB)
SciTegic.value.DoubleValue
-4.568

@<SCITEGIC>MOL_PROPERTY
W(SA)
SciTegic.value.DoubleValue
1.750

@<SCITEGIC>MOL_PROPERTY
Valence
SciTegic.value.DoubleValue
13.789

@<SCITEGIC>MOL_PROPERTY
Coulomb
SciTegic.value.DoubleValue
-8.574

@<SCITEGIC>MOL_PROPERTY
VdW
SciTegic.value.DoubleValue
0.628

@<SCITEGIC>MOL_PROPERTY
VdW6
SciTegic.value.DoubleValue
-3.284

@<SCITEGIC>MOL_PROPERTY
VdW12
SciTegic.value.DoubleValue
3.913

@<SCITEGIC>MOL_PROPERTY
Bond
SciTegic.value.DoubleValue
0.054

@<SCITEGIC>MOL_PROPERTY
Angle
SciTegic.value.DoubleValue
4.033

@<SCITEGIC>MOL_PROPERTY
Pdih
SciTegic.value.DoubleValue
9.702

@<SCITEGIC>MOL_PROPERTY
Idih
SciTegic.value.DoubleValue
0.000

@<SCITEGIC>MOL_PROPERTY
Tether
SciTegic.value.DoubleValue
0.000

@<TRIPOS>MOLECULE
guest-4_confgen4.mol2 : confsearch ligand conformer 120
          16          16           1
SMALL
USER_CHARGES
 
@<TRIPOS>ATOM
       1    C1      19.460491   17.308372   22.546805 C.3        1 MOL1        -0.1689
       2    H1      19.589798   16.658227   21.670553 H          1 MOL1         0.0830
       3    H2      19.454005   16.667600   23.439198 H          1 MOL1         0.0830
       4    C2      18.148406   18.112222   22.415343 C.3        1 MOL1        -0.1689
       5    H3      17.642182   17.850341   21.475991 H          1 MOL1         0.0830
       6    H4      17.455954   17.892698   23.239551 H          1 MOL1         0.0830
       7    C3      18.547458   19.603243   22.408249 C.3        1 MOL1        -0.1765
       8    H5      18.424254   20.020775   23.416271 H          1 MOL1         0.0830
       9    H6      17.927858   20.196706   21.722754 H          1 MOL1         0.0830
      10    C4      20.034285   19.643602   22.030481 C.3        1 MOL1         0.1214
      11    H7      20.534325   20.528706   22.449448 H          1 MOL1         0.0787
      12    C5      20.603026   18.343872   22.615453 C.3        1 MOL1        -0.1765
      13    H8      21.502705   18.006946   22.083418 H          1 MOL1         0.0830
      14    H9      20.879711   18.515906   23.664010 H          1 MOL1         0.0830
      15    O1      20.158466   19.613573   20.616096 O.3        1 MOL1        -0.5512
      16    H10     19.688828   18.800975   20.336294 H          1 MOL1         0.3776
@<TRIPOS>BOND
    1     1     2    1
    2     1     3    1
    3     1     4    1
    4     4     5    1
    5     4     6    1
    6     4     7    1
    7     7     8    1
    8     7     9    1
    9     7    10    1
   10    10    11    1
   11     1    12    1
   12    10    12    1
   13    12    13    1
   14    12    14    1
   15    10    15    1
   16    15    16    1
@<TRIPOS>SUBSTRUCTURE
       1 MOL1            1 RESIDUE      1      MOL     
@<SCITEGIC>MOL_PROPERTY
VConf Rank
SciTegic.value.IntegerValue
120

@<SCITEGIC>MOL_PROPERTY
Conf_Id
SciTegic.value.IntegerValue
20

@<SCITEGIC>MOL_PROPERTY
Delta U+W
SciTegic.value.DoubleValue
-0.483

@<SCITEGIC>MOL_PROPERTY
U+W
SciTegic.value.DoubleValue
2.527

@<SCITEGIC>MOL_PROPERTY
Grad RMS
SciTegic.value.DoubleValue
0.000000

@<SCITEGIC>MOL_PROPERTY
U
SciTegic.value.DoubleValue
4.508

@<SCITEGIC>MOL_PROPERTY
W
SciTegic.value.DoubleValue
-1.981

@<SCITEGIC>MOL_PROPERTY
W(PB)
SciTegic.value.DoubleValue
-3.712

@<SCITEGIC>MOL_PROPERTY
W(SA)
SciTegic.value.DoubleValue
1.732

@<SCITEGIC>MOL_PROPERTY
Valence
SciTegic.value.DoubleValue
14.705

@<SCITEGIC>MOL_PROPERTY
Coulomb
SciTegic.value.DoubleValue
-10.687

@<SCITEGIC>MOL_PROPERTY
VdW
SciTegic.value.DoubleValue
0.490

@<SCITEGIC>MOL_PROPERTY
VdW6
SciTegic.value.DoubleValue
-3.745

@<SCITEGIC>MOL_PROPERTY
VdW12
SciTegic.value.DoubleValue
4.235

@<SCITEGIC>MOL_PROPERTY
Bond
SciTegic.value.DoubleValue
0.068

@<SCITEGIC>MOL_PROPERTY
Angle
SciTegic.value.DoubleValue
3.901

@<SCITEGIC>MOL_PROPERTY
Pdih
SciTegic.value.DoubleValue
10.737

@<SCITEGIC>MOL_PROPERTY
Idih
SciTegic.value.DoubleValue
0.000

@<SCITEGIC>MOL_PROPERTY
Tether
SciTegic.value.DoubleValue
0.000

@<TRIPOS>MOLECULE
guest-4_confgen4.mol2 : confsearch ligand conformer 121
          16          16           1
SMALL
USER_CHARGES
 
@<TRIPOS>ATOM
       1    C1      19.130573   19.988460   22.246718 C.3        1 MOL1        -0.1689
       2    H1      20.097336   20.415804   21.946009 H          1 MOL1         0.0830
       3    H2      18.398932   20.805154   22.312716 H          1 MOL1         0.0830
       4    C2      19.291414   19.236753   23.575173 C.3        1 MOL1        -0.1689
       5    H3      19.956498   19.761518   24.274490 H          1 MOL1         0.0830
       6    H4      18.309893   19.121136   24.055668 H          1 MOL1         0.0830
       7    C3      19.839017   17.855942   23.170146 C.3        1 MOL1        -0.1765
       8    H5      19.531181   17.078127   23.880841 H          1 MOL1         0.0830
       9    H6      20.937016   17.889067   23.160862 H          1 MOL1         0.0830
      10    C4      19.300549   17.573535   21.751703 C.3        1 MOL1         0.1214
      11    H7      18.504698   16.815745   21.795215 H          1 MOL1         0.0787
      12    C5      18.710492   18.903224   21.238290 C.3        1 MOL1        -0.1765
      13    H8      19.048016   19.143928   20.221353 H          1 MOL1         0.0830
      14    H9      17.615784   18.824337   21.216588 H          1 MOL1         0.0830
      15    O1      20.357720   17.145182   20.901532 O.3        1 MOL1        -0.5512
      16    H10     20.700447   16.307621   21.279107 H          1 MOL1         0.3776
@<TRIPOS>BOND
    1     1     2    1
    2     1     3    1
    3     1     4    1
    4     4     5    1
    5     4     6    1
    6     4     7    1
    7     7     8    1
    8     7     9    1
    9     7    10    1
   10    10    11    1
   11     1    12    1
   12    10    12    1
   13    12    13    1
   14    12    14    1
   15    10    15    1
   16    15    16    1
@<TRIPOS>SUBSTRUCTURE
       1 MOL1            1 RESIDUE      1      MOL     
@<SCITEGIC>MOL_PROPERTY
VConf Rank
SciTegic.value.IntegerValue
121

@<SCITEGIC>MOL_PROPERTY
Conf_Id
SciTegic.value.IntegerValue
59

@<SCITEGIC>MOL_PROPERTY
Delta U+W
SciTegic.value.DoubleValue
0.000

@<SCITEGIC>MOL_PROPERTY
U+W
SciTegic.value.DoubleValue
3.010

@<SCITEGIC>MOL_PROPERTY
Grad RMS
SciTegic.value.DoubleValue
0.000000

@<SCITEGIC>MOL_PROPERTY
U
SciTegic.value.DoubleValue
5.843

@<SCITEGIC>MOL_PROPERTY
W
SciTegic.value.DoubleValue
-2.833

@<SCITEGIC>MOL_PROPERTY
W(PB)
SciTegic.value.DoubleValue
-4.568

@<SCITEGIC>MOL_PROPERTY
W(SA)
SciTegic.value.DoubleValue
1.735

@<SCITEGIC>MOL_PROPERTY
Valence
SciTegic.value.DoubleValue
13.789

@<SCITEGIC>MOL_PROPERTY
Coulomb
SciTegic.value.DoubleValue
-8.574

@<SCITEGIC>MOL_PROPERTY
VdW
SciTegic.value.DoubleValue
0.628

@<SCITEGIC>MOL_PROPERTY
VdW6
SciTegic.value.DoubleValue
-3.284

@<SCITEGIC>MOL_PROPERTY
VdW12
SciTegic.value.DoubleValue
3.912

@<SCITEGIC>MOL_PROPERTY
Bond
SciTegic.value.DoubleValue
0.054

@<SCITEGIC>MOL_PROPERTY
Angle
SciTegic.value.DoubleValue
4.034

@<SCITEGIC>MOL_PROPERTY
Pdih
SciTegic.value.DoubleValue
9.702

@<SCITEGIC>MOL_PROPERTY
Idih
SciTegic.value.DoubleValue
0.000

@<SCITEGIC>MOL_PROPERTY
Tether
SciTegic.value.DoubleValue
0.000

@<TRIPOS>MOLECULE
guest-4_confgen4.mol2 : confsearch ligand conformer 122
          16          16           1
SMALL
USER_CHARGES
 
@<TRIPOS>ATOM
       1    C1      19.688672   19.201317   21.004937 C.3        1 MOL1        -0.1689
       2    H1      19.509117   20.147374   20.476265 H          1 MOL1         0.0830
       3    H2      20.336082   18.574031   20.376452 H          1 MOL1         0.0830
       4    C2      18.386914   18.450203   21.316356 C.3        1 MOL1        -0.1689
       5    H3      17.611656   19.167302   21.620370 H          1 MOL1         0.0830
       6    H4      18.012355   17.884000   20.452780 H          1 MOL1         0.0830
       7    C3      18.742571   17.540000   22.506362 C.3        1 MOL1        -0.1765
       8    H5      19.101757   16.571444   22.134922 H          1 MOL1         0.0830
       9    H6      17.869601   17.349704   23.144900 H          1 MOL1         0.0830
      10    C4      19.885046   18.240890   23.270103 C.3        1 MOL1         0.1214
      11    H7      20.712682   17.531643   23.416760 H          1 MOL1         0.0787
      12    C5      20.346522   19.414563   22.380572 C.3        1 MOL1        -0.1765
      13    H8      20.004645   20.369424   22.802641 H          1 MOL1         0.0830
      14    H9      21.440521   19.453956   22.300188 H          1 MOL1         0.0830
      15    O1      19.412503   18.728650   24.520179 O.3        1 MOL1        -0.5512
      16    H10     20.171974   19.171410   24.954571 H          1 MOL1         0.3776
@<TRIPOS>BOND
    1     1     2    1
    2     1     3    1
    3     1     4    1
    4     4     5    1
    5     4     6    1
    6     4     7    1
    7     7     8    1
    8     7     9    1
    9     7    10    1
   10    10    11    1
   11     1    12    1
   12    10    12    1
   13    12    13    1
   14    12    14    1
   15    10    15    1
   16    15    16    1
@<TRIPOS>SUBSTRUCTURE
       1 MOL1            1 RESIDUE      1      MOL     
@<SCITEGIC>MOL_PROPERTY
VConf Rank
SciTegic.value.IntegerValue
122

@<SCITEGIC>MOL_PROPERTY
Conf_Id
SciTegic.value.IntegerValue
33

@<SCITEGIC>MOL_PROPERTY
Delta U+W
SciTegic.value.DoubleValue
0.015

@<SCITEGIC>MOL_PROPERTY
U+W
SciTegic.value.DoubleValue
3.025

@<SCITEGIC>MOL_PROPERTY
Grad RMS
SciTegic.value.DoubleValue
0.000000

@<SCITEGIC>MOL_PROPERTY
U
SciTegic.value.DoubleValue
5.843

@<SCITEGIC>MOL_PROPERTY
W
SciTegic.value.DoubleValue
-2.819

@<SCITEGIC>MOL_PROPERTY
W(PB)
SciTegic.value.DoubleValue
-4.568

@<SCITEGIC>MOL_PROPERTY
W(SA)
SciTegic.value.DoubleValue
1.750

@<SCITEGIC>MOL_PROPERTY
Valence
SciTegic.value.DoubleValue
13.789

@<SCITEGIC>MOL_PROPERTY
Coulomb
SciTegic.value.DoubleValue
-8.574

@<SCITEGIC>MOL_PROPERTY
VdW
SciTegic.value.DoubleValue
0.628

@<SCITEGIC>MOL_PROPERTY
VdW6
SciTegic.value.DoubleValue
-3.284

@<SCITEGIC>MOL_PROPERTY
VdW12
SciTegic.value.DoubleValue
3.913

@<SCITEGIC>MOL_PROPERTY
Bond
SciTegic.value.DoubleValue
0.054

@<SCITEGIC>MOL_PROPERTY
Angle
SciTegic.value.DoubleValue
4.033

@<SCITEGIC>MOL_PROPERTY
Pdih
SciTegic.value.DoubleValue
9.702

@<SCITEGIC>MOL_PROPERTY
Idih
SciTegic.value.DoubleValue
0.000

@<SCITEGIC>MOL_PROPERTY
Tether
SciTegic.value.DoubleValue
0.000

@<TRIPOS>MOLECULE
guest-4_confgen4.mol2 : confsearch ligand conformer 123
          16          16           1
SMALL
USER_CHARGES
 
@<TRIPOS>ATOM
       1    C1      20.276438   17.839744   21.638019 C.3        1 MOL1        -0.1689
       2    H1      20.179001   16.767150   21.855451 H          1 MOL1         0.0830
       3    H2      21.108948   17.962353   20.931696 H          1 MOL1         0.0830
       4    C2      20.522837   18.620805   22.947314 C.3        1 MOL1        -0.1689
       5    H3      20.545705   17.926119   23.798263 H          1 MOL1         0.0830
       6    H4      21.483810   19.152832   22.925479 H          1 MOL1         0.0830
       7    C3      19.345538   19.607825   23.096295 C.3        1 MOL1        -0.1765
       8    H5      19.647395   20.597161   22.727898 H          1 MOL1         0.0830
       9    H6      19.028542   19.722892   24.141416 H          1 MOL1         0.0830
      10    C4      18.220793   19.065731   22.204063 C.3        1 MOL1         0.1214
      11    H7      17.563352   19.871620   21.847276 H          1 MOL1         0.0787
      12    C5      18.960138   18.384981   21.044363 C.3        1 MOL1        -0.1765
      13    H8      18.358183   17.596746   20.572834 H          1 MOL1         0.0830
      14    H9      19.187440   19.136211   20.276503 H          1 MOL1         0.0830
      15    O1      17.481514   18.090234   22.924256 O.3        1 MOL1        -0.5512
      16    H10     18.142120   17.421358   23.198787 H          1 MOL1         0.3776
@<TRIPOS>BOND
    1     1     2    1
    2     1     3    1
    3     1     4    1
    4     4     5    1
    5     4     6    1
    6     4     7    1
    7     7     8    1
    8     7     9    1
    9     7    10    1
   10    10    11    1
   11     1    12    1
   12    10    12    1
   13    12    13    1
   14    12    14    1
   15    10    15    1
   16    15    16    1
@<TRIPOS>SUBSTRUCTURE
       1 MOL1            1 RESIDUE      1      MOL     
@<SCITEGIC>MOL_PROPERTY
VConf Rank
SciTegic.value.IntegerValue
123

@<SCITEGIC>MOL_PROPERTY
Conf_Id
SciTegic.value.IntegerValue
20

@<SCITEGIC>MOL_PROPERTY
Delta U+W
SciTegic.value.DoubleValue
-0.483

@<SCITEGIC>MOL_PROPERTY
U+W
SciTegic.value.DoubleValue
2.527

@<SCITEGIC>MOL_PROPERTY
Grad RMS
SciTegic.value.DoubleValue
0.000000

@<SCITEGIC>MOL_PROPERTY
U
SciTegic.value.DoubleValue
4.508

@<SCITEGIC>MOL_PROPERTY
W
SciTegic.value.DoubleValue
-1.981

@<SCITEGIC>MOL_PROPERTY
W(PB)
SciTegic.value.DoubleValue
-3.712

@<SCITEGIC>MOL_PROPERTY
W(SA)
SciTegic.value.DoubleValue
1.732

@<SCITEGIC>MOL_PROPERTY
Valence
SciTegic.value.DoubleValue
14.705

@<SCITEGIC>MOL_PROPERTY
Coulomb
SciTegic.value.DoubleValue
-10.687

@<SCITEGIC>MOL_PROPERTY
VdW
SciTegic.value.DoubleValue
0.490

@<SCITEGIC>MOL_PROPERTY
VdW6
SciTegic.value.DoubleValue
-3.745

@<SCITEGIC>MOL_PROPERTY
VdW12
SciTegic.value.DoubleValue
4.235

@<SCITEGIC>MOL_PROPERTY
Bond
SciTegic.value.DoubleValue
0.068

@<SCITEGIC>MOL_PROPERTY
Angle
SciTegic.value.DoubleValue
3.901

@<SCITEGIC>MOL_PROPERTY
Pdih
SciTegic.value.DoubleValue
10.737

@<SCITEGIC>MOL_PROPERTY
Idih
SciTegic.value.DoubleValue
0.000

@<SCITEGIC>MOL_PROPERTY
Tether
SciTegic.value.DoubleValue
0.000

@<TRIPOS>MOLECULE
guest-4_confgen4.mol2 : confsearch ligand conformer 124
          16          16           1
SMALL
USER_CHARGES
 
@<TRIPOS>ATOM
       1    C1      20.090119   17.994288   23.438639 C.3        1 MOL1        -0.1689
       2    H1      19.419213   18.111221   24.301129 H          1 MOL1         0.0830
       3    H2      20.990888   17.461907   23.773048 H          1 MOL1         0.0830
       4    C2      20.410428   19.373178   22.845518 C.3        1 MOL1        -0.1689
       5    H3      20.560852   20.136901   23.620669 H          1 MOL1         0.0830
       6    H4      21.326212   19.311956   22.241186 H          1 MOL1         0.0830
       7    C3      19.207439   19.688610   21.937842 C.3        1 MOL1        -0.1765
       8    H5      19.496984   20.332713   21.097520 H          1 MOL1         0.0830
       9    H6      18.441623   20.218298   22.520716 H          1 MOL1         0.0830
      10    C4      18.662918   18.329654   21.449565 C.3        1 MOL1         0.1214
      11    H7      18.926927   18.176073   20.393047 H          1 MOL1         0.0787
      12    C5      19.353305   17.250749   22.309311 C.3        1 MOL1        -0.1765
      13    H8      18.640830   16.515683   22.706903 H          1 MOL1         0.0830
      14    H9      20.079775   16.709660   21.689193 H          1 MOL1         0.0830
      15    O1      17.252889   18.272418   21.629658 O.3        1 MOL1        -0.5512
      16    H10     16.869165   18.982224   21.072465 H          1 MOL1         0.3776
@<TRIPOS>BOND
    1     1     2    1
    2     1     3    1
    3     1     4    1
    4     4     5    1
    5     4     6    1
    6     4     7    1
    7     7     8    1
    8     7     9    1
    9     7    10    1
   10    10    11    1
   11     1    12    1
   12    10    12    1
   13    12    13    1
   14    12    14    1
   15    10    15    1
   16    15    16    1
@<TRIPOS>SUBSTRUCTURE
       1 MOL1            1 RESIDUE      1      MOL     
@<SCITEGIC>MOL_PROPERTY
VConf Rank
SciTegic.value.IntegerValue
124

@<SCITEGIC>MOL_PROPERTY
Conf_Id
SciTegic.value.IntegerValue
59

@<SCITEGIC>MOL_PROPERTY
Delta U+W
SciTegic.value.DoubleValue
0.000

@<SCITEGIC>MOL_PROPERTY
U+W
SciTegic.value.DoubleValue
3.010

@<SCITEGIC>MOL_PROPERTY
Grad RMS
SciTegic.value.DoubleValue
0.000000

@<SCITEGIC>MOL_PROPERTY
U
SciTegic.value.DoubleValue
5.843

@<SCITEGIC>MOL_PROPERTY
W
SciTegic.value.DoubleValue
-2.833

@<SCITEGIC>MOL_PROPERTY
W(PB)
SciTegic.value.DoubleValue
-4.568

@<SCITEGIC>MOL_PROPERTY
W(SA)
SciTegic.value.DoubleValue
1.735

@<SCITEGIC>MOL_PROPERTY
Valence
SciTegic.value.DoubleValue
13.789

@<SCITEGIC>MOL_PROPERTY
Coulomb
SciTegic.value.DoubleValue
-8.574

@<SCITEGIC>MOL_PROPERTY
VdW
SciTegic.value.DoubleValue
0.628

@<SCITEGIC>MOL_PROPERTY
VdW6
SciTegic.value.DoubleValue
-3.284

@<SCITEGIC>MOL_PROPERTY
VdW12
SciTegic.value.DoubleValue
3.912

@<SCITEGIC>MOL_PROPERTY
Bond
SciTegic.value.DoubleValue
0.054

@<SCITEGIC>MOL_PROPERTY
Angle
SciTegic.value.DoubleValue
4.034

@<SCITEGIC>MOL_PROPERTY
Pdih
SciTegic.value.DoubleValue
9.702

@<SCITEGIC>MOL_PROPERTY
Idih
SciTegic.value.DoubleValue
0.000

@<SCITEGIC>MOL_PROPERTY
Tether
SciTegic.value.DoubleValue
0.000

@<TRIPOS>MOLECULE
guest-4_confgen4.mol2 : confsearch ligand conformer 125
          16          16           1
SMALL
USER_CHARGES
 
@<TRIPOS>ATOM
       1    C1      18.811307   18.895696   23.545263 C.3        1 MOL1        -0.1689
       2    H1      18.025723   18.480983   24.191506 H          1 MOL1         0.0830
       3    H2      19.312543   19.707065   24.091216 H          1 MOL1         0.0830
       4    C2      18.254069   19.432609   22.219769 C.3        1 MOL1        -0.1689
       5    H3      17.469727   18.757689   21.849674 H          1 MOL1         0.0830
       6    H4      17.822942   20.437721   22.322345 H          1 MOL1         0.0830
       7    C3      19.455466   19.403951   21.257012 C.3        1 MOL1        -0.1765
       8    H5      19.992609   20.359879   21.309584 H          1 MOL1         0.0830
       9    H6      19.136367   19.257160   20.216509 H          1 MOL1         0.0830
      10    C4      20.386264   18.276258   21.748664 C.3        1 MOL1         0.1214
      11    H7      21.408108   18.668863   21.854563 H          1 MOL1         0.0787
      12    C5      19.844778   17.834705   23.124731 C.3        1 MOL1        -0.1765
      13    H8      19.349601   16.857494   23.043239 H          1 MOL1         0.0830
      14    H9      20.650183   17.743820   23.864940 H          1 MOL1         0.0830
      15    O1      20.358317   17.184611   20.836840 O.3        1 MOL1        -0.5512
      16    H10     20.954613   16.497406   21.202503 H          1 MOL1         0.3776
@<TRIPOS>BOND
    1     1     2    1
    2     1     3    1
    3     1     4    1
    4     4     5    1
    5     4     6    1
    6     4     7    1
    7     7     8    1
    8     7     9    1
    9     7    10    1
   10    10    11    1
   11     1    12    1
   12    10    12    1
   13    12    13    1
   14    12    14    1
   15    10    15    1
   16    15    16    1
@<TRIPOS>SUBSTRUCTURE
       1 MOL1            1 RESIDUE      1      MOL     
@<SCITEGIC>MOL_PROPERTY
VConf Rank
SciTegic.value.IntegerValue
125

@<SCITEGIC>MOL_PROPERTY
Conf_Id
SciTegic.value.IntegerValue
33

@<SCITEGIC>MOL_PROPERTY
Delta U+W
SciTegic.value.DoubleValue
0.015

@<SCITEGIC>MOL_PROPERTY
U+W
SciTegic.value.DoubleValue
3.025

@<SCITEGIC>MOL_PROPERTY
Grad RMS
SciTegic.value.DoubleValue
0.000000

@<SCITEGIC>MOL_PROPERTY
U
SciTegic.value.DoubleValue
5.843

@<SCITEGIC>MOL_PROPERTY
W
SciTegic.value.DoubleValue
-2.819

@<SCITEGIC>MOL_PROPERTY
W(PB)
SciTegic.value.DoubleValue
-4.568

@<SCITEGIC>MOL_PROPERTY
W(SA)
SciTegic.value.DoubleValue
1.750

@<SCITEGIC>MOL_PROPERTY
Valence
SciTegic.value.DoubleValue
13.789

@<SCITEGIC>MOL_PROPERTY
Coulomb
SciTegic.value.DoubleValue
-8.574

@<SCITEGIC>MOL_PROPERTY
VdW
SciTegic.value.DoubleValue
0.628

@<SCITEGIC>MOL_PROPERTY
VdW6
SciTegic.value.DoubleValue
-3.284

@<SCITEGIC>MOL_PROPERTY
VdW12
SciTegic.value.DoubleValue
3.913

@<SCITEGIC>MOL_PROPERTY
Bond
SciTegic.value.DoubleValue
0.054

@<SCITEGIC>MOL_PROPERTY
Angle
SciTegic.value.DoubleValue
4.033

@<SCITEGIC>MOL_PROPERTY
Pdih
SciTegic.value.DoubleValue
9.702

@<SCITEGIC>MOL_PROPERTY
Idih
SciTegic.value.DoubleValue
0.000

@<SCITEGIC>MOL_PROPERTY
Tether
SciTegic.value.DoubleValue
0.000

@<TRIPOS>MOLECULE
guest-4_confgen4.mol2 : confsearch ligand conformer 126
          16          16           1
SMALL
USER_CHARGES
 
@<TRIPOS>ATOM
       1    C1      19.485304   19.755848   22.937133 C.3        1 MOL1        -0.1689
       2    H1      20.518671   20.097913   23.086703 H          1 MOL1         0.0830
       3    H2      18.818581   20.498839   23.395872 H          1 MOL1         0.0830
       4    C2      19.298048   18.358671   23.567890 C.3        1 MOL1        -0.1689
       5    H3      20.240481   18.025004   24.023645 H          1 MOL1         0.0830
       6    H4      18.532619   18.370582   24.355911 H          1 MOL1         0.0830
       7    C3      18.896330   17.409898   22.418591 C.3        1 MOL1        -0.1765
       8    H5      17.804989   17.289681   22.406615 H          1 MOL1         0.0830
       9    H6      19.341231   16.411849   22.527981 H          1 MOL1         0.0830
      10    C4      19.335535   18.103132   21.121857 C.3        1 MOL1         0.1214
      11    H7      18.708863   17.802295   20.269940 H          1 MOL1         0.0787
      12    C5      19.188507   19.599137   21.430578 C.3        1 MOL1        -0.1765
      13    H8      19.848936   20.218923   20.809528 H          1 MOL1         0.0830
      14    H9      18.153936   19.905268   21.226694 H          1 MOL1         0.0830
      15    O1      20.702580   17.808862   20.874067 O.3        1 MOL1        -0.5512
      16    H10     21.177144   18.107859   21.676908 H          1 MOL1         0.3776
@<TRIPOS>BOND
    1     1     2    1
    2     1     3    1
    3     1     4    1
    4     4     5    1
    5     4     6    1
    6     4     7    1
    7     7     8    1
    8     7     9    1
    9     7    10    1
   10    10    11    1
   11     1    12    1
   12    10    12    1
   13    12    13    1
   14    12    14    1
   15    10    15    1
   16    15    16    1
@<TRIPOS>SUBSTRUCTURE
       1 MOL1            1 RESIDUE      1      MOL     
@<SCITEGIC>MOL_PROPERTY
VConf Rank
SciTegic.value.IntegerValue
126

@<SCITEGIC>MOL_PROPERTY
Conf_Id
SciTegic.value.IntegerValue
20

@<SCITEGIC>MOL_PROPERTY
Delta U+W
SciTegic.value.DoubleValue
-0.483

@<SCITEGIC>MOL_PROPERTY
U+W
SciTegic.value.DoubleValue
2.527

@<SCITEGIC>MOL_PROPERTY
Grad RMS
SciTegic.value.DoubleValue
0.000000

@<SCITEGIC>MOL_PROPERTY
U
SciTegic.value.DoubleValue
4.508

@<SCITEGIC>MOL_PROPERTY
W
SciTegic.value.DoubleValue
-1.981

@<SCITEGIC>MOL_PROPERTY
W(PB)
SciTegic.value.DoubleValue
-3.712

@<SCITEGIC>MOL_PROPERTY
W(SA)
SciTegic.value.DoubleValue
1.732

@<SCITEGIC>MOL_PROPERTY
Valence
SciTegic.value.DoubleValue
14.705

@<SCITEGIC>MOL_PROPERTY
Coulomb
SciTegic.value.DoubleValue
-10.687

@<SCITEGIC>MOL_PROPERTY
VdW
SciTegic.value.DoubleValue
0.490

@<SCITEGIC>MOL_PROPERTY
VdW6
SciTegic.value.DoubleValue
-3.745

@<SCITEGIC>MOL_PROPERTY
VdW12
SciTegic.value.DoubleValue
4.235

@<SCITEGIC>MOL_PROPERTY
Bond
SciTegic.value.DoubleValue
0.068

@<SCITEGIC>MOL_PROPERTY
Angle
SciTegic.value.DoubleValue
3.901

@<SCITEGIC>MOL_PROPERTY
Pdih
SciTegic.value.DoubleValue
10.737

@<SCITEGIC>MOL_PROPERTY
Idih
SciTegic.value.DoubleValue
0.000

@<SCITEGIC>MOL_PROPERTY
Tether
SciTegic.value.DoubleValue
0.000

@<TRIPOS>MOLECULE
guest-4_confgen4.mol2 : confsearch ligand conformer 127
          16          16           1
SMALL
USER_CHARGES
 
@<TRIPOS>ATOM
       1    C1      20.532785   19.384108   22.102242 C.3        1 MOL1        -0.1689
       2    H1      20.305924   20.332479   22.609000 H          1 MOL1         0.0830
       3    H2      21.555500   19.441967   21.705567 H          1 MOL1         0.0830
       4    C2      19.491907   19.125837   21.004245 C.3        1 MOL1        -0.1689
       5    H3      19.218697   20.042162   20.463446 H          1 MOL1         0.0830
       6    H4      19.891885   18.404568   20.278011 H          1 MOL1         0.0830
       7    C3      18.295256   18.506118   21.748912 C.3        1 MOL1        -0.1765
       8    H5      17.726954   17.827243   21.100061 H          1 MOL1         0.0830
       9    H6      17.617379   19.306122   22.076418 H          1 MOL1         0.0830
      10    C4      18.879263   17.766408   22.970978 C.3        1 MOL1         0.1214
      11    H7      18.843591   16.679726   22.805544 H          1 MOL1         0.0787
      12    C5      20.350305   18.215869   23.088674 C.3        1 MOL1        -0.1765
      13    H8      20.616505   18.506861   24.113605 H          1 MOL1         0.0830
      14    H9      21.003464   17.382798   22.798056 H          1 MOL1         0.0830
      15    O1      18.162446   18.120360   24.147744 O.3        1 MOL1        -0.5512
      16    H10     17.237707   17.822908   24.013907 H          1 MOL1         0.3776
@<TRIPOS>BOND
    1     1     2    1
    2     1     3    1
    3     1     4    1
    4     4     5    1
    5     4     6    1
    6     4     7    1
    7     7     8    1
    8     7     9    1
    9     7    10    1
   10    10    11    1
   11     1    12    1
   12    10    12    1
   13    12    13    1
   14    12    14    1
   15    10    15    1
   16    15    16    1
@<TRIPOS>SUBSTRUCTURE
       1 MOL1            1 RESIDUE      1      MOL     
@<SCITEGIC>MOL_PROPERTY
VConf Rank
SciTegic.value.IntegerValue
127

@<SCITEGIC>MOL_PROPERTY
Conf_Id
SciTegic.value.IntegerValue
59

@<SCITEGIC>MOL_PROPERTY
Delta U+W
SciTegic.value.DoubleValue
0.000

@<SCITEGIC>MOL_PROPERTY
U+W
SciTegic.value.DoubleValue
3.010

@<SCITEGIC>MOL_PROPERTY
Grad RMS
SciTegic.value.DoubleValue
0.000000

@<SCITEGIC>MOL_PROPERTY
U
SciTegic.value.DoubleValue
5.843

@<SCITEGIC>MOL_PROPERTY
W
SciTegic.value.DoubleValue
-2.833

@<SCITEGIC>MOL_PROPERTY
W(PB)
SciTegic.value.DoubleValue
-4.568

@<SCITEGIC>MOL_PROPERTY
W(SA)
SciTegic.value.DoubleValue
1.735

@<SCITEGIC>MOL_PROPERTY
Valence
SciTegic.value.DoubleValue
13.789

@<SCITEGIC>MOL_PROPERTY
Coulomb
SciTegic.value.DoubleValue
-8.574

@<SCITEGIC>MOL_PROPERTY
VdW
SciTegic.value.DoubleValue
0.628

@<SCITEGIC>MOL_PROPERTY
VdW6
SciTegic.value.DoubleValue
-3.284

@<SCITEGIC>MOL_PROPERTY
VdW12
SciTegic.value.DoubleValue
3.912

@<SCITEGIC>MOL_PROPERTY
Bond
SciTegic.value.DoubleValue
0.054

@<SCITEGIC>MOL_PROPERTY
Angle
SciTegic.value.DoubleValue
4.034

@<SCITEGIC>MOL_PROPERTY
Pdih
SciTegic.value.DoubleValue
9.702

@<SCITEGIC>MOL_PROPERTY
Idih
SciTegic.value.DoubleValue
0.000

@<SCITEGIC>MOL_PROPERTY
Tether
SciTegic.value.DoubleValue
0.000

@<TRIPOS>MOLECULE
guest-4_confgen4.mol2 : confsearch ligand conformer 128
          16          16           1
SMALL
USER_CHARGES
 
@<TRIPOS>ATOM
       1    C1      18.512115   17.571201   22.597894 C.3        1 MOL1        -0.1689
       2    H1      17.490956   17.266557   22.331091 H          1 MOL1         0.0830
       3    H2      18.965361   16.767789   23.195153 H          1 MOL1         0.0830
       4    C2      18.541077   18.884191   23.392215 C.3        1 MOL1        -0.1689
       5    H3      17.797797   19.580648   22.979708 H          1 MOL1         0.0830
       6    H4      18.318841   18.735012   24.457579 H          1 MOL1         0.0830
       7    C3      19.956695   19.443800   23.159964 C.3        1 MOL1        -0.1765
       8    H5      20.633685   19.067970   23.938116 H          1 MOL1         0.0830
       9    H6      19.970510   20.540897   23.206927 H          1 MOL1         0.0830
      10    C4      20.420967   18.910511   21.788887 C.3        1 MOL1         0.1214
      11    H7      21.410661   18.443244   21.896990 H          1 MOL1         0.0787
      12    C5      19.381854   17.853484   21.359152 C.3        1 MOL1        -0.1765
      13    H8      18.748567   18.248036   20.552891 H          1 MOL1         0.0830
      14    H9      19.864983   16.939016   20.991481 H          1 MOL1         0.0830
      15    O1      20.465151   19.969551   20.840004 O.3        1 MOL1        -0.5512
      16    H10     20.753396   19.574005   19.990306 H          1 MOL1         0.3776
@<TRIPOS>BOND
    1     1     2    1
    2     1     3    1
    3     1     4    1
    4     4     5    1
    5     4     6    1
    6     4     7    1
    7     7     8    1
    8     7     9    1
    9     7    10    1
   10    10    11    1
   11     1    12    1
   12    10    12    1
   13    12    13    1
   14    12    14    1
   15    10    15    1
   16    15    16    1
@<TRIPOS>SUBSTRUCTURE
       1 MOL1            1 RESIDUE      1      MOL     
@<SCITEGIC>MOL_PROPERTY
VConf Rank
SciTegic.value.IntegerValue
128

@<SCITEGIC>MOL_PROPERTY
Conf_Id
SciTegic.value.IntegerValue
33

@<SCITEGIC>MOL_PROPERTY
Delta U+W
SciTegic.value.DoubleValue
0.015

@<SCITEGIC>MOL_PROPERTY
U+W
SciTegic.value.DoubleValue
3.025

@<SCITEGIC>MOL_PROPERTY
Grad RMS
SciTegic.value.DoubleValue
0.000000

@<SCITEGIC>MOL_PROPERTY
U
SciTegic.value.DoubleValue
5.843

@<SCITEGIC>MOL_PROPERTY
W
SciTegic.value.DoubleValue
-2.819

@<SCITEGIC>MOL_PROPERTY
W(PB)
SciTegic.value.DoubleValue
-4.568

@<SCITEGIC>MOL_PROPERTY
W(SA)
SciTegic.value.DoubleValue
1.750

@<SCITEGIC>MOL_PROPERTY
Valence
SciTegic.value.DoubleValue
13.789

@<SCITEGIC>MOL_PROPERTY
Coulomb
SciTegic.value.DoubleValue
-8.574

@<SCITEGIC>MOL_PROPERTY
VdW
SciTegic.value.DoubleValue
0.628

@<SCITEGIC>MOL_PROPERTY
VdW6
SciTegic.value.DoubleValue
-3.284

@<SCITEGIC>MOL_PROPERTY
VdW12
SciTegic.value.DoubleValue
3.913

@<SCITEGIC>MOL_PROPERTY
Bond
SciTegic.value.DoubleValue
0.054

@<SCITEGIC>MOL_PROPERTY
Angle
SciTegic.value.DoubleValue
4.033

@<SCITEGIC>MOL_PROPERTY
Pdih
SciTegic.value.DoubleValue
9.702

@<SCITEGIC>MOL_PROPERTY
Idih
SciTegic.value.DoubleValue
0.000

@<SCITEGIC>MOL_PROPERTY
Tether
SciTegic.value.DoubleValue
0.000

@<TRIPOS>MOLECULE
guest-4_confgen4.mol2 : confsearch ligand conformer 129
          16          16           1
SMALL
USER_CHARGES
 
@<TRIPOS>ATOM
       1    C1      19.890083   19.732108   21.743955 C.3        1 MOL1        -0.1689
       2    H1      19.501297   20.655061   22.195873 H          1 MOL1         0.0830
       3    H2      20.628279   20.019097   20.982574 H          1 MOL1         0.0830
       4    C2      18.729547   18.917963   21.131300 C.3        1 MOL1        -0.1689
       5    H3      17.779247   19.447391   21.285775 H          1 MOL1         0.0830
       6    H4      18.861190   18.778197   20.049572 H          1 MOL1         0.0830
       7    C3      18.710005   17.561537   21.867617 C.3        1 MOL1        -0.1765
       8    H5      19.239731   16.810397   21.266952 H          1 MOL1         0.0830
       9    H6      17.688915   17.194483   22.036891 H          1 MOL1         0.0830
      10    C4      19.474469   17.779342   23.180305 C.3        1 MOL1         0.1214
      11    H7      19.938488   16.848710   23.537505 H          1 MOL1         0.0787
      12    C5      20.529019   18.836600   22.826630 C.3        1 MOL1        -0.1765
      13    H8      20.852508   19.411452   23.704641 H          1 MOL1         0.0830
      14    H9      21.412870   18.333899   22.412238 H          1 MOL1         0.0830
      15    O1      18.588471   18.310261   24.154953 O.3        1 MOL1        -0.5512
      16    H10     18.227634   19.127267   23.753131 H          1 MOL1         0.3776
@<TRIPOS>BOND
    1     1     2    1
    2     1     3    1
    3     1     4    1
    4     4     5    1
    5     4     6    1
    6     4     7    1
    7     7     8    1
    8     7     9    1
    9     7    10    1
   10    10    11    1
   11     1    12    1
   12    10    12    1
   13    12    13    1
   14    12    14    1
   15    10    15    1
   16    15    16    1
@<TRIPOS>SUBSTRUCTURE
       1 MOL1            1 RESIDUE      1      MOL     
@<SCITEGIC>MOL_PROPERTY
VConf Rank
SciTegic.value.IntegerValue
129

@<SCITEGIC>MOL_PROPERTY
Conf_Id
SciTegic.value.IntegerValue
20

@<SCITEGIC>MOL_PROPERTY
Delta U+W
SciTegic.value.DoubleValue
-0.483

@<SCITEGIC>MOL_PROPERTY
U+W
SciTegic.value.DoubleValue
2.527

@<SCITEGIC>MOL_PROPERTY
Grad RMS
SciTegic.value.DoubleValue
0.000000

@<SCITEGIC>MOL_PROPERTY
U
SciTegic.value.DoubleValue
4.508

@<SCITEGIC>MOL_PROPERTY
W
SciTegic.value.DoubleValue
-1.981

@<SCITEGIC>MOL_PROPERTY
W(PB)
SciTegic.value.DoubleValue
-3.712

@<SCITEGIC>MOL_PROPERTY
W(SA)
SciTegic.value.DoubleValue
1.732

@<SCITEGIC>MOL_PROPERTY
Valence
SciTegic.value.DoubleValue
14.705

@<SCITEGIC>MOL_PROPERTY
Coulomb
SciTegic.value.DoubleValue
-10.687

@<SCITEGIC>MOL_PROPERTY
VdW
SciTegic.value.DoubleValue
0.490

@<SCITEGIC>MOL_PROPERTY
VdW6
SciTegic.value.DoubleValue
-3.745

@<SCITEGIC>MOL_PROPERTY
VdW12
SciTegic.value.DoubleValue
4.235

@<SCITEGIC>MOL_PROPERTY
Bond
SciTegic.value.DoubleValue
0.068

@<SCITEGIC>MOL_PROPERTY
Angle
SciTegic.value.DoubleValue
3.901

@<SCITEGIC>MOL_PROPERTY
Pdih
SciTegic.value.DoubleValue
10.737

@<SCITEGIC>MOL_PROPERTY
Idih
SciTegic.value.DoubleValue
0.000

@<SCITEGIC>MOL_PROPERTY
Tether
SciTegic.value.DoubleValue
0.000

@<TRIPOS>MOLECULE
guest-4_confgen4.mol2 : confsearch ligand conformer 130
          16          16           1
SMALL
USER_CHARGES
 
@<TRIPOS>ATOM
       1    C1      20.031896   19.686496   22.928463 C.3        1 MOL1        -0.1689
       2    H1      21.095971   19.412104   22.939910 H          1 MOL1         0.0830
       3    H2      19.935043   20.705689   23.326595 H          1 MOL1         0.0830
       4    C2      19.227642   18.661392   23.739674 C.3        1 MOL1        -0.1689
       5    H3      19.753357   18.343901   24.650487 H          1 MOL1         0.0830
       6    H4      18.263020   19.097760   24.034146 H          1 MOL1         0.0830
       7    C3      18.995038   17.495808   22.760966 C.3        1 MOL1        -0.1765
       8    H5      18.062280   16.962869   22.986321 H          1 MOL1         0.0830
       9    H6      19.822675   16.778588   22.846978 H          1 MOL1         0.0830
      10    C4      18.967849   18.113910   21.347145 C.3        1 MOL1         0.1214
      11    H7      17.937042   18.132429   20.964245 H          1 MOL1         0.0787
      12    C5      19.482341   19.560669   21.495534 C.3        1 MOL1        -0.1765
      13    H8      20.245545   19.810539   20.746464 H          1 MOL1         0.0830
      14    H9      18.642639   20.254784   21.360678 H          1 MOL1         0.0830
      15    O1      19.816356   17.378619   20.473491 O.3        1 MOL1        -0.5512
      16    H10     19.450871   16.469976   20.425314 H          1 MOL1         0.3776
@<TRIPOS>BOND
    1     1     2    1
    2     1     3    1
    3     1     4    1
    4     4     5    1
    5     4     6    1
    6     4     7    1
    7     7     8    1
    8     7     9    1
    9     7    10    1
   10    10    11    1
   11     1    12    1
   12    10    12    1
   13    12    13    1
   14    12    14    1
   15    10    15    1
   16    15    16    1
@<TRIPOS>SUBSTRUCTURE
       1 MOL1            1 RESIDUE      1      MOL     
@<SCITEGIC>MOL_PROPERTY
VConf Rank
SciTegic.value.IntegerValue
130

@<SCITEGIC>MOL_PROPERTY
Conf_Id
SciTegic.value.IntegerValue
59

@<SCITEGIC>MOL_PROPERTY
Delta U+W
SciTegic.value.DoubleValue
0.000

@<SCITEGIC>MOL_PROPERTY
U+W
SciTegic.value.DoubleValue
3.010

@<SCITEGIC>MOL_PROPERTY
Grad RMS
SciTegic.value.DoubleValue
0.000000

@<SCITEGIC>MOL_PROPERTY
U
SciTegic.value.DoubleValue
5.843

@<SCITEGIC>MOL_PROPERTY
W
SciTegic.value.DoubleValue
-2.833

@<SCITEGIC>MOL_PROPERTY
W(PB)
SciTegic.value.DoubleValue
-4.568

@<SCITEGIC>MOL_PROPERTY
W(SA)
SciTegic.value.DoubleValue
1.735

@<SCITEGIC>MOL_PROPERTY
Valence
SciTegic.value.DoubleValue
13.789

@<SCITEGIC>MOL_PROPERTY
Coulomb
SciTegic.value.DoubleValue
-8.574

@<SCITEGIC>MOL_PROPERTY
VdW
SciTegic.value.DoubleValue
0.628

@<SCITEGIC>MOL_PROPERTY
VdW6
SciTegic.value.DoubleValue
-3.284

@<SCITEGIC>MOL_PROPERTY
VdW12
SciTegic.value.DoubleValue
3.912

@<SCITEGIC>MOL_PROPERTY
Bond
SciTegic.value.DoubleValue
0.054

@<SCITEGIC>MOL_PROPERTY
Angle
SciTegic.value.DoubleValue
4.034

@<SCITEGIC>MOL_PROPERTY
Pdih
SciTegic.value.DoubleValue
9.702

@<SCITEGIC>MOL_PROPERTY
Idih
SciTegic.value.DoubleValue
0.000

@<SCITEGIC>MOL_PROPERTY
Tether
SciTegic.value.DoubleValue
0.000

@<TRIPOS>MOLECULE
guest-4_confgen4.mol2 : confsearch ligand conformer 131
          16          16           1
SMALL
USER_CHARGES
 
@<TRIPOS>ATOM
       1    C1      18.470243   17.625267   21.942387 C.3        1 MOL1        -0.1689
       2    H1      17.689492   17.458267   21.187869 H          1 MOL1         0.0830
       3    H2      18.585986   16.702095   22.527176 H          1 MOL1         0.0830
       4    C2      18.135076   18.792414   22.881086 C.3        1 MOL1        -0.1689
       5    H3      17.675778   19.607961   22.305232 H          1 MOL1         0.0830
       6    H4      17.439981   18.501642   23.680421 H          1 MOL1         0.0830
       7    C3      19.499612   19.251666   23.427171 C.3        1 MOL1        -0.1765
       8    H5      19.732033   18.701303   24.348130 H          1 MOL1         0.0830
       9    H6      19.498340   20.322741   23.669691 H          1 MOL1         0.0830
      10    C4      20.546223   18.896196   22.351047 C.3        1 MOL1         0.1214
      11    H7      21.367311   18.330883   22.815541 H          1 MOL1         0.0787
      12    C5      19.819882   18.015538   21.312488 C.3        1 MOL1        -0.1765
      13    H8      19.639374   18.584724   20.390411 H          1 MOL1         0.0830
      14    H9      20.411734   17.128890   21.050929 H          1 MOL1         0.0830
      15    O1      21.036486   20.080339   21.733514 O.3        1 MOL1        -0.5512
      16    H10     21.685064   19.795987   21.055266 H          1 MOL1         0.3776
@<TRIPOS>BOND
    1     1     2    1
    2     1     3    1
    3     1     4    1
    4     4     5    1
    5     4     6    1
    6     4     7    1
    7     7     8    1
    8     7     9    1
    9     7    10    1
   10    10    11    1
   11     1    12    1
   12    10    12    1
   13    12    13    1
   14    12    14    1
   15    10    15    1
   16    15    16    1
@<TRIPOS>SUBSTRUCTURE
       1 MOL1            1 RESIDUE      1      MOL     
@<SCITEGIC>MOL_PROPERTY
VConf Rank
SciTegic.value.IntegerValue
131

@<SCITEGIC>MOL_PROPERTY
Conf_Id
SciTegic.value.IntegerValue
33

@<SCITEGIC>MOL_PROPERTY
Delta U+W
SciTegic.value.DoubleValue
0.015

@<SCITEGIC>MOL_PROPERTY
U+W
SciTegic.value.DoubleValue
3.025

@<SCITEGIC>MOL_PROPERTY
Grad RMS
SciTegic.value.DoubleValue
0.000000

@<SCITEGIC>MOL_PROPERTY
U
SciTegic.value.DoubleValue
5.843

@<SCITEGIC>MOL_PROPERTY
W
SciTegic.value.DoubleValue
-2.819

@<SCITEGIC>MOL_PROPERTY
W(PB)
SciTegic.value.DoubleValue
-4.568

@<SCITEGIC>MOL_PROPERTY
W(SA)
SciTegic.value.DoubleValue
1.750

@<SCITEGIC>MOL_PROPERTY
Valence
SciTegic.value.DoubleValue
13.789

@<SCITEGIC>MOL_PROPERTY
Coulomb
SciTegic.value.DoubleValue
-8.574

@<SCITEGIC>MOL_PROPERTY
VdW
SciTegic.value.DoubleValue
0.628

@<SCITEGIC>MOL_PROPERTY
VdW6
SciTegic.value.DoubleValue
-3.284

@<SCITEGIC>MOL_PROPERTY
VdW12
SciTegic.value.DoubleValue
3.913

@<SCITEGIC>MOL_PROPERTY
Bond
SciTegic.value.DoubleValue
0.054

@<SCITEGIC>MOL_PROPERTY
Angle
SciTegic.value.DoubleValue
4.033

@<SCITEGIC>MOL_PROPERTY
Pdih
SciTegic.value.DoubleValue
9.702

@<SCITEGIC>MOL_PROPERTY
Idih
SciTegic.value.DoubleValue
0.000

@<SCITEGIC>MOL_PROPERTY
Tether
SciTegic.value.DoubleValue
0.000

@<TRIPOS>MOLECULE
guest-4_confgen4.mol2 : confsearch ligand conformer 132
          16          16           1
SMALL
USER_CHARGES
 
@<TRIPOS>ATOM
       1    C1      18.651047   18.572229   23.378256 C.3        1 MOL1        -0.1689
       2    H1      18.751892   17.640255   23.951390 H          1 MOL1         0.0830
       3    H2      17.965563   19.230178   23.929810 H          1 MOL1         0.0830
       4    C2      18.123002   18.262393   21.960444 C.3        1 MOL1        -0.1689
       5    H3      17.967285   17.180599   21.847748 H          1 MOL1         0.0830
       6    H4      17.161757   18.759108   21.769968 H          1 MOL1         0.0830
       7    C3      19.204981   18.750935   20.973994 C.3        1 MOL1        -0.1765
       8    H5      18.936479   19.747369   20.598965 H          1 MOL1         0.0830
       9    H6      19.309408   18.084685   20.107270 H          1 MOL1         0.0830
      10    C4      20.503236   18.857042   21.785332 C.3        1 MOL1         0.1214
      11    H7      21.180967   19.615124   21.367032 H          1 MOL1         0.0787
      12    C5      20.031739   19.237482   23.195266 C.3        1 MOL1        -0.1765
      13    H8      20.747322   18.931235   23.969965 H          1 MOL1         0.0830
      14    H9      19.923726   20.328650   23.252779 H          1 MOL1         0.0830
      15    O1      21.132186   17.584550   21.829968 O.3        1 MOL1        -0.5512
      16    H10     20.461163   16.981930   22.211727 H          1 MOL1         0.3776
@<TRIPOS>BOND
    1     1     2    1
    2     1     3    1
    3     1     4    1
    4     4     5    1
    5     4     6    1
    6     4     7    1
    7     7     8    1
    8     7     9    1
    9     7    10    1
   10    10    11    1
   11     1    12    1
   12    10    12    1
   13    12    13    1
   14    12    14    1
   15    10    15    1
   16    15    16    1
@<TRIPOS>SUBSTRUCTURE
       1 MOL1            1 RESIDUE      1      MOL     
@<SCITEGIC>MOL_PROPERTY
VConf Rank
SciTegic.value.IntegerValue
132

@<SCITEGIC>MOL_PROPERTY
Conf_Id
SciTegic.value.IntegerValue
20

@<SCITEGIC>MOL_PROPERTY
Delta U+W
SciTegic.value.DoubleValue
-0.483

@<SCITEGIC>MOL_PROPERTY
U+W
SciTegic.value.DoubleValue
2.527

@<SCITEGIC>MOL_PROPERTY
Grad RMS
SciTegic.value.DoubleValue
0.000000

@<SCITEGIC>MOL_PROPERTY
U
SciTegic.value.DoubleValue
4.508

@<SCITEGIC>MOL_PROPERTY
W
SciTegic.value.DoubleValue
-1.981

@<SCITEGIC>MOL_PROPERTY
W(PB)
SciTegic.value.DoubleValue
-3.712

@<SCITEGIC>MOL_PROPERTY
W(SA)
SciTegic.value.DoubleValue
1.732

@<SCITEGIC>MOL_PROPERTY
Valence
SciTegic.value.DoubleValue
14.705

@<SCITEGIC>MOL_PROPERTY
Coulomb
SciTegic.value.DoubleValue
-10.687

@<SCITEGIC>MOL_PROPERTY
VdW
SciTegic.value.DoubleValue
0.490

@<SCITEGIC>MOL_PROPERTY
VdW6
SciTegic.value.DoubleValue
-3.745

@<SCITEGIC>MOL_PROPERTY
VdW12
SciTegic.value.DoubleValue
4.235

@<SCITEGIC>MOL_PROPERTY
Bond
SciTegic.value.DoubleValue
0.068

@<SCITEGIC>MOL_PROPERTY
Angle
SciTegic.value.DoubleValue
3.901

@<SCITEGIC>MOL_PROPERTY
Pdih
SciTegic.value.DoubleValue
10.737

@<SCITEGIC>MOL_PROPERTY
Idih
SciTegic.value.DoubleValue
0.000

@<SCITEGIC>MOL_PROPERTY
Tether
SciTegic.value.DoubleValue
0.000

@<TRIPOS>MOLECULE
guest-4_confgen4.mol2 : confsearch ligand conformer 133
          16          16           1
SMALL
USER_CHARGES
 
@<TRIPOS>ATOM
       1    C1      20.000946   17.401863   21.703560 C.3        1 MOL1        -0.1689
       2    H1      19.675740   17.417949   20.653961 H          1 MOL1         0.0830
       3    H2      20.706885   16.570178   21.832377 H          1 MOL1         0.0830
       4    C2      18.775805   17.278095   22.619770 C.3        1 MOL1        -0.1689
       5    H3      18.020762   16.589147   22.217253 H          1 MOL1         0.0830
       6    H4      19.087827   16.907677   23.606207 H          1 MOL1         0.0830
       7    C3      18.246100   18.718093   22.747734 C.3        1 MOL1        -0.1765
       8    H5      17.742354   18.876155   23.710076 H          1 MOL1         0.0830
       9    H6      17.516024   18.908874   21.949375 H          1 MOL1         0.0830
      10    C4      19.468206   19.646847   22.587884 C.3        1 MOL1         0.1214
      11    H7      19.746129   20.074243   23.562363 H          1 MOL1         0.0787
      12    C5      20.621764   18.762019   22.071920 C.3        1 MOL1        -0.1765
      13    H8      21.142981   19.213290   21.217105 H          1 MOL1         0.0830
      14    H9      21.356065   18.626085   22.876535 H          1 MOL1         0.0830
      15    O1      19.182474   20.677043   21.649299 O.3        1 MOL1        -0.5512
      16    H10     18.439504   21.197977   22.020992 H          1 MOL1         0.3776
@<TRIPOS>BOND
    1     1     2    1
    2     1     3    1
    3     1     4    1
    4     4     5    1
    5     4     6    1
    6     4     7    1
    7     7     8    1
    8     7     9    1
    9     7    10    1
   10    10    11    1
   11     1    12    1
   12    10    12    1
   13    12    13    1
   14    12    14    1
   15    10    15    1
   16    15    16    1
@<TRIPOS>SUBSTRUCTURE
       1 MOL1            1 RESIDUE      1      MOL     
@<SCITEGIC>MOL_PROPERTY
VConf Rank
SciTegic.value.IntegerValue
133

@<SCITEGIC>MOL_PROPERTY
Conf_Id
SciTegic.value.IntegerValue
59

@<SCITEGIC>MOL_PROPERTY
Delta U+W
SciTegic.value.DoubleValue
0.000

@<SCITEGIC>MOL_PROPERTY
U+W
SciTegic.value.DoubleValue
3.010

@<SCITEGIC>MOL_PROPERTY
Grad RMS
SciTegic.value.DoubleValue
0.000000

@<SCITEGIC>MOL_PROPERTY
U
SciTegic.value.DoubleValue
5.843

@<SCITEGIC>MOL_PROPERTY
W
SciTegic.value.DoubleValue
-2.833

@<SCITEGIC>MOL_PROPERTY
W(PB)
SciTegic.value.DoubleValue
-4.568

@<SCITEGIC>MOL_PROPERTY
W(SA)
SciTegic.value.DoubleValue
1.735

@<SCITEGIC>MOL_PROPERTY
Valence
SciTegic.value.DoubleValue
13.789

@<SCITEGIC>MOL_PROPERTY
Coulomb
SciTegic.value.DoubleValue
-8.574

@<SCITEGIC>MOL_PROPERTY
VdW
SciTegic.value.DoubleValue
0.628

@<SCITEGIC>MOL_PROPERTY
VdW6
SciTegic.value.DoubleValue
-3.284

@<SCITEGIC>MOL_PROPERTY
VdW12
SciTegic.value.DoubleValue
3.912

@<SCITEGIC>MOL_PROPERTY
Bond
SciTegic.value.DoubleValue
0.054

@<SCITEGIC>MOL_PROPERTY
Angle
SciTegic.value.DoubleValue
4.034

@<SCITEGIC>MOL_PROPERTY
Pdih
SciTegic.value.DoubleValue
9.702

@<SCITEGIC>MOL_PROPERTY
Idih
SciTegic.value.DoubleValue
0.000

@<SCITEGIC>MOL_PROPERTY
Tether
SciTegic.value.DoubleValue
0.000

@<TRIPOS>MOLECULE
guest-4_confgen4.mol2 : confsearch ligand conformer 134
          16          16           1
SMALL
USER_CHARGES
 
@<TRIPOS>ATOM
       1    C1      19.043245   17.515591   21.461258 C.3        1 MOL1        -0.1689
       2    H1      19.492701   16.709514   20.865450 H          1 MOL1         0.0830
       3    H2      17.958058   17.347612   21.503368 H          1 MOL1         0.0830
       4    C2      19.328235   18.904591   20.873732 C.3        1 MOL1        -0.1689
       5    H3      20.361100   18.941638   20.500241 H          1 MOL1         0.0830
       6    H4      18.653180   19.155897   20.044401 H          1 MOL1         0.0830
       7    C3      19.176578   19.866078   22.066887 C.3        1 MOL1        -0.1765
       8    H5      18.136452   20.210975   22.132224 H          1 MOL1         0.0830
       9    H6      19.815719   20.752189   21.955870 H          1 MOL1         0.0830
      10    C4      19.517417   19.053152   23.332895 C.3        1 MOL1         0.1214
      11    H7      18.708916   19.171177   24.069045 H          1 MOL1         0.0787
      12    C5      19.616415   17.578433   22.888892 C.3        1 MOL1        -0.1765
      13    H8      20.666203   17.255189   22.873438 H          1 MOL1         0.0830
      14    H9      19.069203   16.914348   23.570359 H          1 MOL1         0.0830
      15    O1      20.759131   19.487026   23.874924 O.3        1 MOL1        -0.5512
      16    H10     20.930062   18.932501   24.665375 H          1 MOL1         0.3776
@<TRIPOS>BOND
    1     1     2    1
    2     1     3    1
    3     1     4    1
    4     4     5    1
    5     4     6    1
    6     4     7    1
    7     7     8    1
    8     7     9    1
    9     7    10    1
   10    10    11    1
   11     1    12    1
   12    10    12    1
   13    12    13    1
   14    12    14    1
   15    10    15    1
   16    15    16    1
@<TRIPOS>SUBSTRUCTURE
       1 MOL1            1 RESIDUE      1      MOL     
@<SCITEGIC>MOL_PROPERTY
VConf Rank
SciTegic.value.IntegerValue
134

@<SCITEGIC>MOL_PROPERTY
Conf_Id
SciTegic.value.IntegerValue
33

@<SCITEGIC>MOL_PROPERTY
Delta U+W
SciTegic.value.DoubleValue
0.015

@<SCITEGIC>MOL_PROPERTY
U+W
SciTegic.value.DoubleValue
3.025

@<SCITEGIC>MOL_PROPERTY
Grad RMS
SciTegic.value.DoubleValue
0.000000

@<SCITEGIC>MOL_PROPERTY
U
SciTegic.value.DoubleValue
5.843

@<SCITEGIC>MOL_PROPERTY
W
SciTegic.value.DoubleValue
-2.819

@<SCITEGIC>MOL_PROPERTY
W(PB)
SciTegic.value.DoubleValue
-4.568

@<SCITEGIC>MOL_PROPERTY
W(SA)
SciTegic.value.DoubleValue
1.750

@<SCITEGIC>MOL_PROPERTY
Valence
SciTegic.value.DoubleValue
13.789

@<SCITEGIC>MOL_PROPERTY
Coulomb
SciTegic.value.DoubleValue
-8.574

@<SCITEGIC>MOL_PROPERTY
VdW
SciTegic.value.DoubleValue
0.628

@<SCITEGIC>MOL_PROPERTY
VdW6
SciTegic.value.DoubleValue
-3.284

@<SCITEGIC>MOL_PROPERTY
VdW12
SciTegic.value.DoubleValue
3.913

@<SCITEGIC>MOL_PROPERTY
Bond
SciTegic.value.DoubleValue
0.054

@<SCITEGIC>MOL_PROPERTY
Angle
SciTegic.value.DoubleValue
4.033

@<SCITEGIC>MOL_PROPERTY
Pdih
SciTegic.value.DoubleValue
9.702

@<SCITEGIC>MOL_PROPERTY
Idih
SciTegic.value.DoubleValue
0.000

@<SCITEGIC>MOL_PROPERTY
Tether
SciTegic.value.DoubleValue
0.000

@<TRIPOS>MOLECULE
guest-4_confgen4.mol2 : confsearch ligand conformer 135
          16          16           1
SMALL
USER_CHARGES
 
@<TRIPOS>ATOM
       1    C1      19.113006   19.349199   21.177130 C.3        1 MOL1        -0.1689
       2    H1      19.305424   18.839749   20.222843 H          1 MOL1         0.0830
       3    H2      18.727194   20.351962   20.947755 H          1 MOL1         0.0830
       4    C2      20.413221   19.417268   22.007690 C.3        1 MOL1        -0.1689
       5    H3      21.235128   18.941714   21.454932 H          1 MOL1         0.0830
       6    H4      20.707010   20.455664   22.213657 H          1 MOL1         0.0830
       7    C3      20.136655   18.648783   23.317414 C.3        1 MOL1        -0.1765
       8    H5      19.872838   19.359942   24.111312 H          1 MOL1         0.0830
       9    H6      21.010831   18.077632   23.657426 H          1 MOL1         0.0830
      10    C4      18.927583   17.747190   23.034094 C.3        1 MOL1         0.1214
      11    H7      18.354187   17.539908   23.949098 H          1 MOL1         0.0787
      12    C5      18.099185   18.543187   22.016695 C.3        1 MOL1        -0.1765
      13    H8      17.467357   17.894079   21.395843 H          1 MOL1         0.0830
      14    H9      17.438881   19.234195   22.557184 H          1 MOL1         0.0830
      15    O1      19.374420   16.541077   22.432068 O.3        1 MOL1        -0.5512
      16    H10     19.868834   16.822215   21.634774 H          1 MOL1         0.3776
@<TRIPOS>BOND
    1     1     2    1
    2     1     3    1
    3     1     4    1
    4     4     5    1
    5     4     6    1
    6     4     7    1
    7     7     8    1
    8     7     9    1
    9     7    10    1
   10    10    11    1
   11     1    12    1
   12    10    12    1
   13    12    13    1
   14    12    14    1
   15    10    15    1
   16    15    16    1
@<TRIPOS>SUBSTRUCTURE
       1 MOL1            1 RESIDUE      1      MOL     
@<SCITEGIC>MOL_PROPERTY
VConf Rank
SciTegic.value.IntegerValue
135

@<SCITEGIC>MOL_PROPERTY
Conf_Id
SciTegic.value.IntegerValue
20

@<SCITEGIC>MOL_PROPERTY
Delta U+W
SciTegic.value.DoubleValue
-0.483

@<SCITEGIC>MOL_PROPERTY
U+W
SciTegic.value.DoubleValue
2.527

@<SCITEGIC>MOL_PROPERTY
Grad RMS
SciTegic.value.DoubleValue
0.000000

@<SCITEGIC>MOL_PROPERTY
U
SciTegic.value.DoubleValue
4.508

@<SCITEGIC>MOL_PROPERTY
W
SciTegic.value.DoubleValue
-1.981

@<SCITEGIC>MOL_PROPERTY
W(PB)
SciTegic.value.DoubleValue
-3.712

@<SCITEGIC>MOL_PROPERTY
W(SA)
SciTegic.value.DoubleValue
1.732

@<SCITEGIC>MOL_PROPERTY
Valence
SciTegic.value.DoubleValue
14.705

@<SCITEGIC>MOL_PROPERTY
Coulomb
SciTegic.value.DoubleValue
-10.687

@<SCITEGIC>MOL_PROPERTY
VdW
SciTegic.value.DoubleValue
0.490

@<SCITEGIC>MOL_PROPERTY
VdW6
SciTegic.value.DoubleValue
-3.745

@<SCITEGIC>MOL_PROPERTY
VdW12
SciTegic.value.DoubleValue
4.235

@<SCITEGIC>MOL_PROPERTY
Bond
SciTegic.value.DoubleValue
0.068

@<SCITEGIC>MOL_PROPERTY
Angle
SciTegic.value.DoubleValue
3.901

@<SCITEGIC>MOL_PROPERTY
Pdih
SciTegic.value.DoubleValue
10.737

@<SCITEGIC>MOL_PROPERTY
Idih
SciTegic.value.DoubleValue
0.000

@<SCITEGIC>MOL_PROPERTY
Tether
SciTegic.value.DoubleValue
0.000

@<TRIPOS>MOLECULE
guest-4_confgen4.mol2 : confsearch ligand conformer 136
          16          16           1
SMALL
USER_CHARGES
 
@<TRIPOS>ATOM
       1    C1      20.422310   19.247791   23.021224 C.3        1 MOL1        -0.1689
       2    H1      20.411498   18.825902   24.035901 H          1 MOL1         0.0830
       3    H2      21.254567   19.961583   22.954188 H          1 MOL1         0.0830
       4    C2      19.065550   19.899392   22.720649 C.3        1 MOL1        -0.1689
       5    H3      18.659266   20.437891   23.587662 H          1 MOL1         0.0830
       6    H4      19.173839   20.613560   21.892480 H          1 MOL1         0.0830
       7    C3      18.166366   18.728213   22.284339 C.3        1 MOL1        -0.1765
       8    H5      17.390268   19.058443   21.581868 H          1 MOL1         0.0830
       9    H6      17.665659   18.306456   23.166494 H          1 MOL1         0.0830
      10    C4      19.099563   17.677845   21.645942 C.3        1 MOL1         0.1214
      11    H7      18.972597   17.676028   20.553516 H          1 MOL1         0.0787
      12    C5      20.539880   18.109593   21.990781 C.3        1 MOL1        -0.1765
      13    H8      21.143851   17.276913   22.375338 H          1 MOL1         0.0830
      14    H9      21.028505   18.484341   21.081995 H          1 MOL1         0.0830
      15    O1      18.830914   16.389499   22.186201 O.3        1 MOL1        -0.5512
      16    H10     17.904932   16.172083   21.947831 H          1 MOL1         0.3776
@<TRIPOS>BOND
    1     1     2    1
    2     1     3    1
    3     1     4    1
    4     4     5    1
    5     4     6    1
    6     4     7    1
    7     7     8    1
    8     7     9    1
    9     7    10    1
   10    10    11    1
   11     1    12    1
   12    10    12    1
   13    12    13    1
   14    12    14    1
   15    10    15    1
   16    15    16    1
@<TRIPOS>SUBSTRUCTURE
       1 MOL1            1 RESIDUE      1      MOL     
@<SCITEGIC>MOL_PROPERTY
VConf Rank
SciTegic.value.IntegerValue
136

@<SCITEGIC>MOL_PROPERTY
Conf_Id
SciTegic.value.IntegerValue
59

@<SCITEGIC>MOL_PROPERTY
Delta U+W
SciTegic.value.DoubleValue
0.000

@<SCITEGIC>MOL_PROPERTY
U+W
SciTegic.value.DoubleValue
3.010

@<SCITEGIC>MOL_PROPERTY
Grad RMS
SciTegic.value.DoubleValue
0.000000

@<SCITEGIC>MOL_PROPERTY
U
SciTegic.value.DoubleValue
5.843

@<SCITEGIC>MOL_PROPERTY
W
SciTegic.value.DoubleValue
-2.833

@<SCITEGIC>MOL_PROPERTY
W(PB)
SciTegic.value.DoubleValue
-4.568

@<SCITEGIC>MOL_PROPERTY
W(SA)
SciTegic.value.DoubleValue
1.735

@<SCITEGIC>MOL_PROPERTY
Valence
SciTegic.value.DoubleValue
13.789

@<SCITEGIC>MOL_PROPERTY
Coulomb
SciTegic.value.DoubleValue
-8.574

@<SCITEGIC>MOL_PROPERTY
VdW
SciTegic.value.DoubleValue
0.628

@<SCITEGIC>MOL_PROPERTY
VdW6
SciTegic.value.DoubleValue
-3.284

@<SCITEGIC>MOL_PROPERTY
VdW12
SciTegic.value.DoubleValue
3.912

@<SCITEGIC>MOL_PROPERTY
Bond
SciTegic.value.DoubleValue
0.054

@<SCITEGIC>MOL_PROPERTY
Angle
SciTegic.value.DoubleValue
4.034

@<SCITEGIC>MOL_PROPERTY
Pdih
SciTegic.value.DoubleValue
9.702

@<SCITEGIC>MOL_PROPERTY
Idih
SciTegic.value.DoubleValue
0.000

@<SCITEGIC>MOL_PROPERTY
Tether
SciTegic.value.DoubleValue
0.000

@<TRIPOS>MOLECULE
guest-4_confgen4.mol2 : confsearch ligand conformer 137
          16          16           1
SMALL
USER_CHARGES
 
@<TRIPOS>ATOM
       1    C1      20.366235   18.188820   23.314900 C.3        1 MOL1        -0.1689
       2    H1      20.937579   18.616166   24.150184 H          1 MOL1         0.0830
       3    H2      20.454835   17.094506   23.362308 H          1 MOL1         0.0830
       4    C2      20.863177   18.688419   21.951384 C.3        1 MOL1        -0.1689
       5    H3      21.114581   19.756041   22.019638 H          1 MOL1         0.0830
       6    H4      21.753807   18.146596   21.605193 H          1 MOL1         0.0830
       7    C3      19.658827   18.501423   21.010293 C.3        1 MOL1        -0.1765
       8    H5      19.699375   17.503906   20.553784 H          1 MOL1         0.0830
       9    H6      19.661764   19.240577   20.198098 H          1 MOL1         0.0830
      10    C4      18.394601   18.601611   21.888639 C.3        1 MOL1         0.1214
      11    H7      17.751563   17.729437   21.700665 H          1 MOL1         0.0787
      12    C5      18.881140   18.593338   23.353203 C.3        1 MOL1        -0.1765
      13    H8      18.789131   19.596846   23.790569 H          1 MOL1         0.0830
      14    H9      18.292823   17.901611   23.969842 H          1 MOL1         0.0830
      15    O1      17.697959   19.810221   21.609623 O.3        1 MOL1        -0.5512
      16    H10     16.915219   19.826392   22.200035 H          1 MOL1         0.3776
@<TRIPOS>BOND
    1     1     2    1
    2     1     3    1
    3     1     4    1
    4     4     5    1
    5     4     6    1
    6     4     7    1
    7     7     8    1
    8     7     9    1
    9     7    10    1
   10    10    11    1
   11     1    12    1
   12    10    12    1
   13    12    13    1
   14    12    14    1
   15    10    15    1
   16    15    16    1
@<TRIPOS>SUBSTRUCTURE
       1 MOL1            1 RESIDUE      1      MOL     
@<SCITEGIC>MOL_PROPERTY
VConf Rank
SciTegic.value.IntegerValue
137

@<SCITEGIC>MOL_PROPERTY
Conf_Id
SciTegic.value.IntegerValue
33

@<SCITEGIC>MOL_PROPERTY
Delta U+W
SciTegic.value.DoubleValue
0.015

@<SCITEGIC>MOL_PROPERTY
U+W
SciTegic.value.DoubleValue
3.025

@<SCITEGIC>MOL_PROPERTY
Grad RMS
SciTegic.value.DoubleValue
0.000000

@<SCITEGIC>MOL_PROPERTY
U
SciTegic.value.DoubleValue
5.843

@<SCITEGIC>MOL_PROPERTY
W
SciTegic.value.DoubleValue
-2.819

@<SCITEGIC>MOL_PROPERTY
W(PB)
SciTegic.value.DoubleValue
-4.568

@<SCITEGIC>MOL_PROPERTY
W(SA)
SciTegic.value.DoubleValue
1.750

@<SCITEGIC>MOL_PROPERTY
Valence
SciTegic.value.DoubleValue
13.789

@<SCITEGIC>MOL_PROPERTY
Coulomb
SciTegic.value.DoubleValue
-8.574

@<SCITEGIC>MOL_PROPERTY
VdW
SciTegic.value.DoubleValue
0.628

@<SCITEGIC>MOL_PROPERTY
VdW6
SciTegic.value.DoubleValue
-3.284

@<SCITEGIC>MOL_PROPERTY
VdW12
SciTegic.value.DoubleValue
3.913

@<SCITEGIC>MOL_PROPERTY
Bond
SciTegic.value.DoubleValue
0.054

@<SCITEGIC>MOL_PROPERTY
Angle
SciTegic.value.DoubleValue
4.033

@<SCITEGIC>MOL_PROPERTY
Pdih
SciTegic.value.DoubleValue
9.702

@<SCITEGIC>MOL_PROPERTY
Idih
SciTegic.value.DoubleValue
0.000

@<SCITEGIC>MOL_PROPERTY
Tether
SciTegic.value.DoubleValue
0.000

@<TRIPOS>MOLECULE
guest-4_confgen4.mol2 : confsearch ligand conformer 138
          16          16           1
SMALL
USER_CHARGES
 
@<TRIPOS>ATOM
       1    C1      18.860676   18.104917   23.381391 C.3        1 MOL1        -0.1689
       2    H1      19.075582   17.038938   23.538649 H          1 MOL1         0.0830
       3    H2      18.273003   18.456702   24.240393 H          1 MOL1         0.0830
       4    C2      18.095776   18.296177   22.053473 C.3        1 MOL1        -0.1689
       5    H3      17.939564   17.322675   21.568585 H          1 MOL1         0.0830
       6    H4      17.108355   18.748964   22.217744 H          1 MOL1         0.0830
       7    C3      18.979050   19.198417   21.165652 C.3        1 MOL1        -0.1765
       8    H5      18.633065   20.237836   21.239959 H          1 MOL1         0.0830
       9    H6      18.939393   18.907922   20.107330 H          1 MOL1         0.0830
      10    C4      20.398222   19.103242   21.741748 C.3        1 MOL1         0.1214
      11    H7      20.979618   20.013934   21.537783 H          1 MOL1         0.0787
      12    C5      20.176878   18.899776   23.246595 C.3        1 MOL1        -0.1765
      13    H8      21.022571   18.389047   23.726141 H          1 MOL1         0.0830
      14    H9      20.063648   19.880992   23.726194 H          1 MOL1         0.0830
      15    O1      21.045011   17.958453   21.205159 O.3        1 MOL1        -0.5512
      16    H10     20.461341   17.205772   21.433118 H          1 MOL1         0.3776
@<TRIPOS>BOND
    1     1     2    1
    2     1     3    1
    3     1     4    1
    4     4     5    1
    5     4     6    1
    6     4     7    1
    7     7     8    1
    8     7     9    1
    9     7    10    1
   10    10    11    1
   11     1    12    1
   12    10    12    1
   13    12    13    1
   14    12    14    1
   15    10    15    1
   16    15    16    1
@<TRIPOS>SUBSTRUCTURE
       1 MOL1            1 RESIDUE      1      MOL     
@<SCITEGIC>MOL_PROPERTY
VConf Rank
SciTegic.value.IntegerValue
138

@<SCITEGIC>MOL_PROPERTY
Conf_Id
SciTegic.value.IntegerValue
20

@<SCITEGIC>MOL_PROPERTY
Delta U+W
SciTegic.value.DoubleValue
-0.483

@<SCITEGIC>MOL_PROPERTY
U+W
SciTegic.value.DoubleValue
2.527

@<SCITEGIC>MOL_PROPERTY
Grad RMS
SciTegic.value.DoubleValue
0.000000

@<SCITEGIC>MOL_PROPERTY
U
SciTegic.value.DoubleValue
4.508

@<SCITEGIC>MOL_PROPERTY
W
SciTegic.value.DoubleValue
-1.981

@<SCITEGIC>MOL_PROPERTY
W(PB)
SciTegic.value.DoubleValue
-3.712

@<SCITEGIC>MOL_PROPERTY
W(SA)
SciTegic.value.DoubleValue
1.732

@<SCITEGIC>MOL_PROPERTY
Valence
SciTegic.value.DoubleValue
14.705

@<SCITEGIC>MOL_PROPERTY
Coulomb
SciTegic.value.DoubleValue
-10.687

@<SCITEGIC>MOL_PROPERTY
VdW
SciTegic.value.DoubleValue
0.490

@<SCITEGIC>MOL_PROPERTY
VdW6
SciTegic.value.DoubleValue
-3.745

@<SCITEGIC>MOL_PROPERTY
VdW12
SciTegic.value.DoubleValue
4.235

@<SCITEGIC>MOL_PROPERTY
Bond
SciTegic.value.DoubleValue
0.068

@<SCITEGIC>MOL_PROPERTY
Angle
SciTegic.value.DoubleValue
3.901

@<SCITEGIC>MOL_PROPERTY
Pdih
SciTegic.value.DoubleValue
10.737

@<SCITEGIC>MOL_PROPERTY
Idih
SciTegic.value.DoubleValue
0.000

@<SCITEGIC>MOL_PROPERTY
Tether
SciTegic.value.DoubleValue
0.000

@<TRIPOS>MOLECULE
guest-4_confgen4.mol2 : confsearch ligand conformer 139
          16          16           1
SMALL
USER_CHARGES
 
@<TRIPOS>ATOM
       1    C1      20.024818   17.537720   23.111759 C.3        1 MOL1        -0.1689
       2    H1      20.700500   17.025623   22.412555 H          1 MOL1         0.0830
       3    H2      20.177332   17.111095   24.112446 H          1 MOL1         0.0830
       4    C2      18.575916   17.391755   22.626882 C.3        1 MOL1        -0.1689
       5    H3      18.369916   16.392252   22.220289 H          1 MOL1         0.0830
       6    H4      17.886300   17.571210   23.463453 H          1 MOL1         0.0830
       7    C3      18.412195   18.499379   21.570038 C.3        1 MOL1        -0.1765
       8    H5      17.373980   18.851494   21.515532 H          1 MOL1         0.0830
       9    H6      18.686299   18.102936   20.582878 H          1 MOL1         0.0830
      10    C4      19.375526   19.634387   21.976770 C.3        1 MOL1         0.1214
      11    H7      18.807220   20.480279   22.390306 H          1 MOL1         0.0787
      12    C5      20.293664   19.053392   23.071897 C.3        1 MOL1        -0.1765
      13    H8      21.353830   19.271156   22.885756 H          1 MOL1         0.0830
      14    H9      20.025801   19.500644   24.037970 H          1 MOL1         0.0830
      15    O1      20.148838   20.047098   20.856258 O.3        1 MOL1        -0.5512
      16    H10     19.517431   20.395113   20.191621 H          1 MOL1         0.3776
@<TRIPOS>BOND
    1     1     2    1
    2     1     3    1
    3     1     4    1
    4     4     5    1
    5     4     6    1
    6     4     7    1
    7     7     8    1
    8     7     9    1
    9     7    10    1
   10    10    11    1
   11     1    12    1
   12    10    12    1
   13    12    13    1
   14    12    14    1
   15    10    15    1
   16    15    16    1
@<TRIPOS>SUBSTRUCTURE
       1 MOL1            1 RESIDUE      1      MOL     
@<SCITEGIC>MOL_PROPERTY
VConf Rank
SciTegic.value.IntegerValue
139

@<SCITEGIC>MOL_PROPERTY
Conf_Id
SciTegic.value.IntegerValue
59

@<SCITEGIC>MOL_PROPERTY
Delta U+W
SciTegic.value.DoubleValue
0.000

@<SCITEGIC>MOL_PROPERTY
U+W
SciTegic.value.DoubleValue
3.010

@<SCITEGIC>MOL_PROPERTY
Grad RMS
SciTegic.value.DoubleValue
0.000000

@<SCITEGIC>MOL_PROPERTY
U
SciTegic.value.DoubleValue
5.843

@<SCITEGIC>MOL_PROPERTY
W
SciTegic.value.DoubleValue
-2.833

@<SCITEGIC>MOL_PROPERTY
W(PB)
SciTegic.value.DoubleValue
-4.568

@<SCITEGIC>MOL_PROPERTY
W(SA)
SciTegic.value.DoubleValue
1.735

@<SCITEGIC>MOL_PROPERTY
Valence
SciTegic.value.DoubleValue
13.789

@<SCITEGIC>MOL_PROPERTY
Coulomb
SciTegic.value.DoubleValue
-8.574

@<SCITEGIC>MOL_PROPERTY
VdW
SciTegic.value.DoubleValue
0.628

@<SCITEGIC>MOL_PROPERTY
VdW6
SciTegic.value.DoubleValue
-3.284

@<SCITEGIC>MOL_PROPERTY
VdW12
SciTegic.value.DoubleValue
3.912

@<SCITEGIC>MOL_PROPERTY
Bond
SciTegic.value.DoubleValue
0.054

@<SCITEGIC>MOL_PROPERTY
Angle
SciTegic.value.DoubleValue
4.034

@<SCITEGIC>MOL_PROPERTY
Pdih
SciTegic.value.DoubleValue
9.702

@<SCITEGIC>MOL_PROPERTY
Idih
SciTegic.value.DoubleValue
0.000

@<SCITEGIC>MOL_PROPERTY
Tether
SciTegic.value.DoubleValue
0.000

@<TRIPOS>MOLECULE
guest-4_confgen4.mol2 : confsearch ligand conformer 140
          16          16           1
SMALL
USER_CHARGES
 
@<TRIPOS>ATOM
       1    C1      20.324540   18.264800   21.206774 C.3        1 MOL1        -0.1689
       2    H1      20.282274   17.754162   20.235064 H          1 MOL1         0.0830
       3    H2      21.314454   18.731334   21.306970 H          1 MOL1         0.0830
       4    C2      20.084337   17.306209   22.381139 C.3        1 MOL1        -0.1689
       5    H3      19.294414   16.589681   22.116018 H          1 MOL1         0.0830
       6    H4      20.985911   16.739981   22.651681 H          1 MOL1         0.0830
       7    C3      19.594858   18.213411   23.525024 C.3        1 MOL1        -0.1765
       8    H5      20.454596   18.564584   24.110356 H          1 MOL1         0.0830
       9    H6      18.923152   17.676259   24.207884 H          1 MOL1         0.0830
      10    C4      18.908792   19.425678   22.862062 C.3        1 MOL1         0.1214
      11    H7      19.327028   20.353116   23.279743 H          1 MOL1         0.0787
      12    C5      19.227129   19.334572   21.354714 C.3        1 MOL1        -0.1765
      13    H8      18.335368   19.019935   20.795654 H          1 MOL1         0.0830
      14    H9      19.553408   20.302192   20.952099 H          1 MOL1         0.0830
      15    O1      17.502766   19.368539   23.071167 O.3        1 MOL1        -0.5512
      16    H10     17.119589   20.151458   22.622009 H          1 MOL1         0.3776
@<TRIPOS>BOND
    1     1     2    1
    2     1     3    1
    3     1     4    1
    4     4     5    1
    5     4     6    1
    6     4     7    1
    7     7     8    1
    8     7     9    1
    9     7    10    1
   10    10    11    1
   11     1    12    1
   12    10    12    1
   13    12    13    1
   14    12    14    1
   15    10    15    1
   16    15    16    1
@<TRIPOS>SUBSTRUCTURE
       1 MOL1            1 RESIDUE      1      MOL     
@<SCITEGIC>MOL_PROPERTY
VConf Rank
SciTegic.value.IntegerValue
140

@<SCITEGIC>MOL_PROPERTY
Conf_Id
SciTegic.value.IntegerValue
33

@<SCITEGIC>MOL_PROPERTY
Delta U+W
SciTegic.value.DoubleValue
0.015

@<SCITEGIC>MOL_PROPERTY
U+W
SciTegic.value.DoubleValue
3.025

@<SCITEGIC>MOL_PROPERTY
Grad RMS
SciTegic.value.DoubleValue
0.000000

@<SCITEGIC>MOL_PROPERTY
U
SciTegic.value.DoubleValue
5.843

@<SCITEGIC>MOL_PROPERTY
W
SciTegic.value.DoubleValue
-2.819

@<SCITEGIC>MOL_PROPERTY
W(PB)
SciTegic.value.DoubleValue
-4.568

@<SCITEGIC>MOL_PROPERTY
W(SA)
SciTegic.value.DoubleValue
1.750

@<SCITEGIC>MOL_PROPERTY
Valence
SciTegic.value.DoubleValue
13.789

@<SCITEGIC>MOL_PROPERTY
Coulomb
SciTegic.value.DoubleValue
-8.574

@<SCITEGIC>MOL_PROPERTY
VdW
SciTegic.value.DoubleValue
0.628

@<SCITEGIC>MOL_PROPERTY
VdW6
SciTegic.value.DoubleValue
-3.284

@<SCITEGIC>MOL_PROPERTY
VdW12
SciTegic.value.DoubleValue
3.913

@<SCITEGIC>MOL_PROPERTY
Bond
SciTegic.value.DoubleValue
0.054

@<SCITEGIC>MOL_PROPERTY
Angle
SciTegic.value.DoubleValue
4.033

@<SCITEGIC>MOL_PROPERTY
Pdih
SciTegic.value.DoubleValue
9.702

@<SCITEGIC>MOL_PROPERTY
Idih
SciTegic.value.DoubleValue
0.000

@<SCITEGIC>MOL_PROPERTY
Tether
SciTegic.value.DoubleValue
0.000

@<TRIPOS>MOLECULE
guest-4_confgen4.mol2 : confsearch ligand conformer 141
          16          16           1
SMALL
USER_CHARGES
 
@<TRIPOS>ATOM
       1    C1      20.018158   18.570380   23.430238 C.3        1 MOL1        -0.1689
       2    H1      20.348835   17.566659   23.730945 H          1 MOL1         0.0830
       3    H2      20.341169   19.274919   24.208881 H          1 MOL1         0.0830
       4    C2      18.484339   18.586277   23.250888 C.3        1 MOL1        -0.1689
       5    H3      18.072580   17.590543   23.465819 H          1 MOL1         0.0830
       6    H4      18.005080   19.299900   23.935032 H          1 MOL1         0.0830
       7    C3      18.219787   18.966169   21.778431 C.3        1 MOL1        -0.1765
       8    H5      18.001073   20.040009   21.710225 H          1 MOL1         0.0830
       9    H6      17.363767   18.423340   21.355851 H          1 MOL1         0.0830
      10    C4      19.523419   18.674211   21.023252 C.3        1 MOL1         0.1214
      11    H7      19.633127   19.320554   20.140536 H          1 MOL1         0.0787
      12    C5      20.622829   18.942467   22.059734 C.3        1 MOL1        -0.1765
      13    H8      21.542756   18.382527   21.844778 H          1 MOL1         0.0830
      14    H9      20.871828   20.011790   22.046744 H          1 MOL1         0.0830
      15    O1      19.553110   17.303196   20.654138 O.3        1 MOL1        -0.5512
      16    H10     19.449895   16.810820   21.494421 H          1 MOL1         0.3776
@<TRIPOS>BOND
    1     1     2    1
    2     1     3    1
    3     1     4    1
    4     4     5    1
    5     4     6    1
    6     4     7    1
    7     7     8    1
    8     7     9    1
    9     7    10    1
   10    10    11    1
   11     1    12    1
   12    10    12    1
   13    12    13    1
   14    12    14    1
   15    10    15    1
   16    15    16    1
@<TRIPOS>SUBSTRUCTURE
       1 MOL1            1 RESIDUE      1      MOL     
@<SCITEGIC>MOL_PROPERTY
VConf Rank
SciTegic.value.IntegerValue
141

@<SCITEGIC>MOL_PROPERTY
Conf_Id
SciTegic.value.IntegerValue
20

@<SCITEGIC>MOL_PROPERTY
Delta U+W
SciTegic.value.DoubleValue
-0.483

@<SCITEGIC>MOL_PROPERTY
U+W
SciTegic.value.DoubleValue
2.527

@<SCITEGIC>MOL_PROPERTY
Grad RMS
SciTegic.value.DoubleValue
0.000000

@<SCITEGIC>MOL_PROPERTY
U
SciTegic.value.DoubleValue
4.508

@<SCITEGIC>MOL_PROPERTY
W
SciTegic.value.DoubleValue
-1.981

@<SCITEGIC>MOL_PROPERTY
W(PB)
SciTegic.value.DoubleValue
-3.712

@<SCITEGIC>MOL_PROPERTY
W(SA)
SciTegic.value.DoubleValue
1.732

@<SCITEGIC>MOL_PROPERTY
Valence
SciTegic.value.DoubleValue
14.705

@<SCITEGIC>MOL_PROPERTY
Coulomb
SciTegic.value.DoubleValue
-10.687

@<SCITEGIC>MOL_PROPERTY
VdW
SciTegic.value.DoubleValue
0.490

@<SCITEGIC>MOL_PROPERTY
VdW6
SciTegic.value.DoubleValue
-3.745

@<SCITEGIC>MOL_PROPERTY
VdW12
SciTegic.value.DoubleValue
4.235

@<SCITEGIC>MOL_PROPERTY
Bond
SciTegic.value.DoubleValue
0.068

@<SCITEGIC>MOL_PROPERTY
Angle
SciTegic.value.DoubleValue
3.901

@<SCITEGIC>MOL_PROPERTY
Pdih
SciTegic.value.DoubleValue
10.737

@<SCITEGIC>MOL_PROPERTY
Idih
SciTegic.value.DoubleValue
0.000

@<SCITEGIC>MOL_PROPERTY
Tether
SciTegic.value.DoubleValue
0.000

@<TRIPOS>MOLECULE
guest-4_confgen4.mol2 : confsearch ligand conformer 142
          16          16           1
SMALL
USER_CHARGES
 
@<TRIPOS>ATOM
       1    C1      18.092534   18.044089   21.812197 C.3        1 MOL1        -0.1689
       2    H1      17.403002   18.104721   22.665747 H          1 MOL1         0.0830
       3    H2      17.529922   17.683796   20.940245 H          1 MOL1         0.0830
       4    C2      19.272037   17.128668   22.167874 C.3        1 MOL1        -0.1689
       5    H3      18.958808   16.249292   22.746962 H          1 MOL1         0.0830
       6    H4      19.758695   16.778160   21.247041 H          1 MOL1         0.0830
       7    C3      20.236716   18.034933   22.954408 C.3        1 MOL1        -0.1765
       8    H5      21.279124   17.714059   22.830828 H          1 MOL1         0.0830
       9    H6      19.992448   17.983614   24.024213 H          1 MOL1         0.0830
      10    C4      20.017478   19.467504   22.423978 C.3        1 MOL1         0.1214
      11    H7      20.865239   19.768435   21.791316 H          1 MOL1         0.0787
      12    C5      18.734292   19.422516   21.568850 C.3        1 MOL1        -0.1765
      13    H8      18.042056   20.239449   21.812678 H          1 MOL1         0.0830
      14    H9      19.006265   19.520537   20.509840 H          1 MOL1         0.0830
      15    O1      19.852577   20.372842   23.508901 O.3        1 MOL1        -0.5512
      16    H10     20.688371   20.352922   24.021331 H          1 MOL1         0.3776
@<TRIPOS>BOND
    1     1     2    1
    2     1     3    1
    3     1     4    1
    4     4     5    1
    5     4     6    1
    6     4     7    1
    7     7     8    1
    8     7     9    1
    9     7    10    1
   10    10    11    1
   11     1    12    1
   12    10    12    1
   13    12    13    1
   14    12    14    1
   15    10    15    1
   16    15    16    1
@<TRIPOS>SUBSTRUCTURE
       1 MOL1            1 RESIDUE      1      MOL     
@<SCITEGIC>MOL_PROPERTY
VConf Rank
SciTegic.value.IntegerValue
142

@<SCITEGIC>MOL_PROPERTY
Conf_Id
SciTegic.value.IntegerValue
59

@<SCITEGIC>MOL_PROPERTY
Delta U+W
SciTegic.value.DoubleValue
0.000

@<SCITEGIC>MOL_PROPERTY
U+W
SciTegic.value.DoubleValue
3.010

@<SCITEGIC>MOL_PROPERTY
Grad RMS
SciTegic.value.DoubleValue
0.000000

@<SCITEGIC>MOL_PROPERTY
U
SciTegic.value.DoubleValue
5.843

@<SCITEGIC>MOL_PROPERTY
W
SciTegic.value.DoubleValue
-2.833

@<SCITEGIC>MOL_PROPERTY
W(PB)
SciTegic.value.DoubleValue
-4.568

@<SCITEGIC>MOL_PROPERTY
W(SA)
SciTegic.value.DoubleValue
1.735

@<SCITEGIC>MOL_PROPERTY
Valence
SciTegic.value.DoubleValue
13.789

@<SCITEGIC>MOL_PROPERTY
Coulomb
SciTegic.value.DoubleValue
-8.574

@<SCITEGIC>MOL_PROPERTY
VdW
SciTegic.value.DoubleValue
0.628

@<SCITEGIC>MOL_PROPERTY
VdW6
SciTegic.value.DoubleValue
-3.284

@<SCITEGIC>MOL_PROPERTY
VdW12
SciTegic.value.DoubleValue
3.912

@<SCITEGIC>MOL_PROPERTY
Bond
SciTegic.value.DoubleValue
0.054

@<SCITEGIC>MOL_PROPERTY
Angle
SciTegic.value.DoubleValue
4.034

@<SCITEGIC>MOL_PROPERTY
Pdih
SciTegic.value.DoubleValue
9.702

@<SCITEGIC>MOL_PROPERTY
Idih
SciTegic.value.DoubleValue
0.000

@<SCITEGIC>MOL_PROPERTY
Tether
SciTegic.value.DoubleValue
0.000

@<TRIPOS>MOLECULE
guest-4_confgen4.mol2 : confsearch ligand conformer 143
          16          16           1
SMALL
USER_CHARGES
 
@<TRIPOS>ATOM
       1    C1      18.719468   17.590913   21.599016 C.3        1 MOL1        -0.1689
       2    H1      17.693093   17.381022   21.268473 H          1 MOL1         0.0830
       3    H2      19.382377   16.828605   21.166511 H          1 MOL1         0.0830
       4    C2      18.853457   17.584183   23.127979 C.3        1 MOL1        -0.1689
       5    H3      17.971235   18.061326   23.577087 H          1 MOL1         0.0830
       6    H4      18.940999   16.568464   23.536993 H          1 MOL1         0.0830
       7    C3      20.101975   18.440499   23.409053 C.3        1 MOL1        -0.1765
       8    H5      20.993017   17.799446   23.422490 H          1 MOL1         0.0830
       9    H6      20.037054   18.942290   24.383738 H          1 MOL1         0.0830
      10    C4      20.220368   19.441944   22.241624 C.3        1 MOL1         0.1214
      11    H7      21.237557   19.396746   21.825930 H          1 MOL1         0.0787
      12    C5      19.195002   18.993747   21.178854 C.3        1 MOL1        -0.1765
      13    H8      18.336718   19.679268   21.165045 H          1 MOL1         0.0830
      14    H9      19.634621   18.983688   20.173130 H          1 MOL1         0.0830
      15    O1      19.918207   20.757415   22.691217 O.3        1 MOL1        -0.5512
      16    H10     19.997467   21.346353   21.911218 H          1 MOL1         0.3776
@<TRIPOS>BOND
    1     1     2    1
    2     1     3    1
    3     1     4    1
    4     4     5    1
    5     4     6    1
    6     4     7    1
    7     7     8    1
    8     7     9    1
    9     7    10    1
   10    10    11    1
   11     1    12    1
   12    10    12    1
   13    12    13    1
   14    12    14    1
   15    10    15    1
   16    15    16    1
@<TRIPOS>SUBSTRUCTURE
       1 MOL1            1 RESIDUE      1      MOL     
@<SCITEGIC>MOL_PROPERTY
VConf Rank
SciTegic.value.IntegerValue
143

@<SCITEGIC>MOL_PROPERTY
Conf_Id
SciTegic.value.IntegerValue
33

@<SCITEGIC>MOL_PROPERTY
Delta U+W
SciTegic.value.DoubleValue
0.015

@<SCITEGIC>MOL_PROPERTY
U+W
SciTegic.value.DoubleValue
3.025

@<SCITEGIC>MOL_PROPERTY
Grad RMS
SciTegic.value.DoubleValue
0.000000

@<SCITEGIC>MOL_PROPERTY
U
SciTegic.value.DoubleValue
5.843

@<SCITEGIC>MOL_PROPERTY
W
SciTegic.value.DoubleValue
-2.819

@<SCITEGIC>MOL_PROPERTY
W(PB)
SciTegic.value.DoubleValue
-4.568

@<SCITEGIC>MOL_PROPERTY
W(SA)
SciTegic.value.DoubleValue
1.750

@<SCITEGIC>MOL_PROPERTY
Valence
SciTegic.value.DoubleValue
13.789

@<SCITEGIC>MOL_PROPERTY
Coulomb
SciTegic.value.DoubleValue
-8.574

@<SCITEGIC>MOL_PROPERTY
VdW
SciTegic.value.DoubleValue
0.628

@<SCITEGIC>MOL_PROPERTY
VdW6
SciTegic.value.DoubleValue
-3.284

@<SCITEGIC>MOL_PROPERTY
VdW12
SciTegic.value.DoubleValue
3.913

@<SCITEGIC>MOL_PROPERTY
Bond
SciTegic.value.DoubleValue
0.054

@<SCITEGIC>MOL_PROPERTY
Angle
SciTegic.value.DoubleValue
4.033

@<SCITEGIC>MOL_PROPERTY
Pdih
SciTegic.value.DoubleValue
9.702

@<SCITEGIC>MOL_PROPERTY
Idih
SciTegic.value.DoubleValue
0.000

@<SCITEGIC>MOL_PROPERTY
Tether
SciTegic.value.DoubleValue
0.000

@<TRIPOS>MOLECULE
guest-4_confgen4.mol2 : confsearch ligand conformer 144
          16          16           1
SMALL
USER_CHARGES
 
@<TRIPOS>ATOM
       1    C1      19.719387   17.371920   22.625737 C.3        1 MOL1        -0.1689
       2    H1      19.614765   16.619591   21.831834 H          1 MOL1         0.0830
       3    H2      20.106117   16.862356   23.518924 H          1 MOL1         0.0830
       4    C2      18.354179   18.039977   22.899470 C.3        1 MOL1        -0.1689
       5    H3      17.588634   17.610234   22.238798 H          1 MOL1         0.0830
       6    H4      18.027236   17.880733   23.936171 H          1 MOL1         0.0830
       7    C3      18.534536   19.543253   22.599355 C.3        1 MOL1        -0.1765
       8    H5      18.720181   20.084712   23.536361 H          1 MOL1         0.0830
       9    H6      17.644895   19.983596   22.129629 H          1 MOL1         0.0830
      10    C4      19.777628   19.652289   21.706144 C.3        1 MOL1         0.1214
      11    H7      20.277000   20.624689   21.824672 H          1 MOL1         0.0787
      12    C5      20.673768   18.496793   22.171674 C.3        1 MOL1        -0.1765
      13    H8      21.365301   18.164148   21.386096 H          1 MOL1         0.0830
      14    H9      21.275721   18.834211   23.025737 H          1 MOL1         0.0830
      15    O1      19.402000   19.437182   20.353577 O.3        1 MOL1        -0.5512
      16    H10     18.970402   18.558078   20.345735 H          1 MOL1         0.3776
@<TRIPOS>BOND
    1     1     2    1
    2     1     3    1
    3     1     4    1
    4     4     5    1
    5     4     6    1
    6     4     7    1
    7     7     8    1
    8     7     9    1
    9     7    10    1
   10    10    11    1
   11     1    12    1
   12    10    12    1
   13    12    13    1
   14    12    14    1
   15    10    15    1
   16    15    16    1
@<TRIPOS>SUBSTRUCTURE
       1 MOL1            1 RESIDUE      1      MOL     
@<SCITEGIC>MOL_PROPERTY
VConf Rank
SciTegic.value.IntegerValue
144

@<SCITEGIC>MOL_PROPERTY
Conf_Id
SciTegic.value.IntegerValue
20

@<SCITEGIC>MOL_PROPERTY
Delta U+W
SciTegic.value.DoubleValue
-0.483

@<SCITEGIC>MOL_PROPERTY
U+W
SciTegic.value.DoubleValue
2.527

@<SCITEGIC>MOL_PROPERTY
Grad RMS
SciTegic.value.DoubleValue
0.000000

@<SCITEGIC>MOL_PROPERTY
U
SciTegic.value.DoubleValue
4.508

@<SCITEGIC>MOL_PROPERTY
W
SciTegic.value.DoubleValue
-1.981

@<SCITEGIC>MOL_PROPERTY
W(PB)
SciTegic.value.DoubleValue
-3.712

@<SCITEGIC>MOL_PROPERTY
W(SA)
SciTegic.value.DoubleValue
1.732

@<SCITEGIC>MOL_PROPERTY
Valence
SciTegic.value.DoubleValue
14.705

@<SCITEGIC>MOL_PROPERTY
Coulomb
SciTegic.value.DoubleValue
-10.687

@<SCITEGIC>MOL_PROPERTY
VdW
SciTegic.value.DoubleValue
0.490

@<SCITEGIC>MOL_PROPERTY
VdW6
SciTegic.value.DoubleValue
-3.745

@<SCITEGIC>MOL_PROPERTY
VdW12
SciTegic.value.DoubleValue
4.235

@<SCITEGIC>MOL_PROPERTY
Bond
SciTegic.value.DoubleValue
0.068

@<SCITEGIC>MOL_PROPERTY
Angle
SciTegic.value.DoubleValue
3.901

@<SCITEGIC>MOL_PROPERTY
Pdih
SciTegic.value.DoubleValue
10.737

@<SCITEGIC>MOL_PROPERTY
Idih
SciTegic.value.DoubleValue
0.000

@<SCITEGIC>MOL_PROPERTY
Tether
SciTegic.value.DoubleValue
0.000

@<TRIPOS>MOLECULE
guest-4_confgen4.mol2 : confsearch ligand conformer 145
          16          16           1
SMALL
USER_CHARGES
 
@<TRIPOS>ATOM
       1    C1      18.873852   19.910782   22.117618 C.3        1 MOL1        -0.1689
       2    H1      17.983011   19.805477   21.482803 H          1 MOL1         0.0830
       3    H2      18.987372   20.971895   22.377996 H          1 MOL1         0.0830
       4    C2      20.099444   19.353707   21.380515 C.3        1 MOL1        -0.1689
       5    H3      20.094212   19.605454   20.311237 H          1 MOL1         0.0830
       6    H4      21.016578   19.764029   21.825628 H          1 MOL1         0.0830
       7    C3      20.036014   17.834935   21.625190 C.3        1 MOL1        -0.1765
       8    H5      21.037712   17.386111   21.623016 H          1 MOL1         0.0830
       9    H6      19.452587   17.361905   20.823542 H          1 MOL1         0.0830
      10    C4      19.331130   17.642485   22.984521 C.3        1 MOL1         0.1214
      11    H7      20.063237   17.344712   23.749288 H          1 MOL1         0.0787
      12    C5      18.730526   19.012845   23.360316 C.3        1 MOL1        -0.1765
      13    H8      17.684052   18.934647   23.684043 H          1 MOL1         0.0830
      14    H9      19.305988   19.439971   24.191873 H          1 MOL1         0.0830
      15    O1      18.299532   16.669655   22.869213 O.3        1 MOL1        -0.5512
      16    H10     18.734318   15.826926   22.619611 H          1 MOL1         0.3776
@<TRIPOS>BOND
    1     1     2    1
    2     1     3    1
    3     1     4    1
    4     4     5    1
    5     4     6    1
    6     4     7    1
    7     7     8    1
    8     7     9    1
    9     7    10    1
   10    10    11    1
   11     1    12    1
   12    10    12    1
   13    12    13    1
   14    12    14    1
   15    10    15    1
   16    15    16    1
@<TRIPOS>SUBSTRUCTURE
       1 MOL1            1 RESIDUE      1      MOL     
@<SCITEGIC>MOL_PROPERTY
VConf Rank
SciTegic.value.IntegerValue
145

@<SCITEGIC>MOL_PROPERTY
Conf_Id
SciTegic.value.IntegerValue
59

@<SCITEGIC>MOL_PROPERTY
Delta U+W
SciTegic.value.DoubleValue
0.000

@<SCITEGIC>MOL_PROPERTY
U+W
SciTegic.value.DoubleValue
3.010

@<SCITEGIC>MOL_PROPERTY
Grad RMS
SciTegic.value.DoubleValue
0.000000

@<SCITEGIC>MOL_PROPERTY
U
SciTegic.value.DoubleValue
5.843

@<SCITEGIC>MOL_PROPERTY
W
SciTegic.value.DoubleValue
-2.833

@<SCITEGIC>MOL_PROPERTY
W(PB)
SciTegic.value.DoubleValue
-4.568

@<SCITEGIC>MOL_PROPERTY
W(SA)
SciTegic.value.DoubleValue
1.735

@<SCITEGIC>MOL_PROPERTY
Valence
SciTegic.value.DoubleValue
13.789

@<SCITEGIC>MOL_PROPERTY
Coulomb
SciTegic.value.DoubleValue
-8.574

@<SCITEGIC>MOL_PROPERTY
VdW
SciTegic.value.DoubleValue
0.628

@<SCITEGIC>MOL_PROPERTY
VdW6
SciTegic.value.DoubleValue
-3.284

@<SCITEGIC>MOL_PROPERTY
VdW12
SciTegic.value.DoubleValue
3.912

@<SCITEGIC>MOL_PROPERTY
Bond
SciTegic.value.DoubleValue
0.054

@<SCITEGIC>MOL_PROPERTY
Angle
SciTegic.value.DoubleValue
4.034

@<SCITEGIC>MOL_PROPERTY
Pdih
SciTegic.value.DoubleValue
9.702

@<SCITEGIC>MOL_PROPERTY
Idih
SciTegic.value.DoubleValue
0.000

@<SCITEGIC>MOL_PROPERTY
Tether
SciTegic.value.DoubleValue
0.000

@<TRIPOS>MOLECULE
guest-4_confgen4.mol2 : confsearch ligand conformer 146
          16          16           1
SMALL
USER_CHARGES
 
@<TRIPOS>ATOM
       1    C1      20.547403   18.645359   23.219563 C.3        1 MOL1        -0.1689
       2    H1      20.845982   19.169855   24.137448 H          1 MOL1         0.0830
       3    H2      21.268736   17.836981   23.035646 H          1 MOL1         0.0830
       4    C2      20.497795   19.579712   22.002907 C.3        1 MOL1        -0.1689
       5    H3      20.077127   20.550261   22.300816 H          1 MOL1         0.0830
       6    H4      21.490937   19.754256   21.567192 H          1 MOL1         0.0830
       7    C3      19.539309   18.882058   21.020227 C.3        1 MOL1        -0.1765
       8    H5      20.108741   18.211557   20.363523 H          1 MOL1         0.0830
       9    H6      19.014996   19.607006   20.383387 H          1 MOL1         0.0830
      10    C4      18.567233   18.042862   21.874987 C.3        1 MOL1         0.1214
      11    H7      18.545993   17.011442   21.493883 H          1 MOL1         0.0787
      12    C5      19.125216   18.063013   23.313731 C.3        1 MOL1        -0.1765
      13    H8      18.508944   18.710786   23.951995 H          1 MOL1         0.0830
      14    H9      19.131413   17.059356   23.758118 H          1 MOL1         0.0830
      15    O1      17.266199   18.617586   21.844957 O.3        1 MOL1        -0.5512
      16    H10     16.696593   18.053821   22.409978 H          1 MOL1         0.3776
@<TRIPOS>BOND
    1     1     2    1
    2     1     3    1
    3     1     4    1
    4     4     5    1
    5     4     6    1
    6     4     7    1
    7     7     8    1
    8     7     9    1
    9     7    10    1
   10    10    11    1
   11     1    12    1
   12    10    12    1
   13    12    13    1
   14    12    14    1
   15    10    15    1
   16    15    16    1
@<TRIPOS>SUBSTRUCTURE
       1 MOL1            1 RESIDUE      1      MOL     
@<SCITEGIC>MOL_PROPERTY
VConf Rank
SciTegic.value.IntegerValue
146

@<SCITEGIC>MOL_PROPERTY
Conf_Id
SciTegic.value.IntegerValue
33

@<SCITEGIC>MOL_PROPERTY
Delta U+W
SciTegic.value.DoubleValue
0.015

@<SCITEGIC>MOL_PROPERTY
U+W
SciTegic.value.DoubleValue
3.025

@<SCITEGIC>MOL_PROPERTY
Grad RMS
SciTegic.value.DoubleValue
0.000000

@<SCITEGIC>MOL_PROPERTY
U
SciTegic.value.DoubleValue
5.843

@<SCITEGIC>MOL_PROPERTY
W
SciTegic.value.DoubleValue
-2.819

@<SCITEGIC>MOL_PROPERTY
W(PB)
SciTegic.value.DoubleValue
-4.568

@<SCITEGIC>MOL_PROPERTY
W(SA)
SciTegic.value.DoubleValue
1.750

@<SCITEGIC>MOL_PROPERTY
Valence
SciTegic.value.DoubleValue
13.789

@<SCITEGIC>MOL_PROPERTY
Coulomb
SciTegic.value.DoubleValue
-8.574

@<SCITEGIC>MOL_PROPERTY
VdW
SciTegic.value.DoubleValue
0.628

@<SCITEGIC>MOL_PROPERTY
VdW6
SciTegic.value.DoubleValue
-3.284

@<SCITEGIC>MOL_PROPERTY
VdW12
SciTegic.value.DoubleValue
3.913

@<SCITEGIC>MOL_PROPERTY
Bond
SciTegic.value.DoubleValue
0.054

@<SCITEGIC>MOL_PROPERTY
Angle
SciTegic.value.DoubleValue
4.033

@<SCITEGIC>MOL_PROPERTY
Pdih
SciTegic.value.DoubleValue
9.702

@<SCITEGIC>MOL_PROPERTY
Idih
SciTegic.value.DoubleValue
0.000

@<SCITEGIC>MOL_PROPERTY
Tether
SciTegic.value.DoubleValue
0.000

@<TRIPOS>MOLECULE
guest-4_confgen4.mol2 : confsearch ligand conformer 147
          16          16           1
SMALL
USER_CHARGES
 
@<TRIPOS>ATOM
       1    C1      19.948086   17.845793   23.193988 C.3        1 MOL1        -0.1689
       2    H1      20.626813   18.386550   23.867886 H          1 MOL1         0.0830
       3    H2      19.926537   16.795376   23.515167 H          1 MOL1         0.0830
       4    C2      20.436238   17.983717   21.735322 C.3        1 MOL1        -0.1689
       5    H3      21.351787   18.590326   21.703380 H          1 MOL1         0.0830
       6    H4      20.669080   17.005328   21.293123 H          1 MOL1         0.0830
       7    C3      19.302872   18.687706   20.959231 C.3        1 MOL1        -0.1765
       8    H5      18.696124   17.937480   20.435171 H          1 MOL1         0.0830
       9    H6      19.687025   19.390722   20.208099 H          1 MOL1         0.0830
      10    C4      18.432914   19.383099   22.014975 C.3        1 MOL1         0.1214
      11    H7      17.392088   19.487993   21.676357 H          1 MOL1         0.0787
      12    C5      18.537571   18.470513   23.244280 C.3        1 MOL1        -0.1765
      13    H8      18.355706   19.012893   24.181698 H          1 MOL1         0.0830
      14    H9      17.782132   17.677633   23.165074 H          1 MOL1         0.0830
      15    O1      18.995347   20.650033   22.323770 O.3        1 MOL1        -0.5512
      16    H10     19.911433   20.458601   22.612393 H          1 MOL1         0.3776
@<TRIPOS>BOND
    1     1     2    1
    2     1     3    1
    3     1     4    1
    4     4     5    1
    5     4     6    1
    6     4     7    1
    7     7     8    1
    8     7     9    1
    9     7    10    1
   10    10    11    1
   11     1    12    1
   12    10    12    1
   13    12    13    1
   14    12    14    1
   15    10    15    1
   16    15    16    1
@<TRIPOS>SUBSTRUCTURE
       1 MOL1            1 RESIDUE      1      MOL     
@<SCITEGIC>MOL_PROPERTY
VConf Rank
SciTegic.value.IntegerValue
147

@<SCITEGIC>MOL_PROPERTY
Conf_Id
SciTegic.value.IntegerValue
20

@<SCITEGIC>MOL_PROPERTY
Delta U+W
SciTegic.value.DoubleValue
-0.483

@<SCITEGIC>MOL_PROPERTY
U+W
SciTegic.value.DoubleValue
2.527

@<SCITEGIC>MOL_PROPERTY
Grad RMS
SciTegic.value.DoubleValue
0.000000

@<SCITEGIC>MOL_PROPERTY
U
SciTegic.value.DoubleValue
4.508

@<SCITEGIC>MOL_PROPERTY
W
SciTegic.value.DoubleValue
-1.981

@<SCITEGIC>MOL_PROPERTY
W(PB)
SciTegic.value.DoubleValue
-3.712

@<SCITEGIC>MOL_PROPERTY
W(SA)
SciTegic.value.DoubleValue
1.732

@<SCITEGIC>MOL_PROPERTY
Valence
SciTegic.value.DoubleValue
14.705

@<SCITEGIC>MOL_PROPERTY
Coulomb
SciTegic.value.DoubleValue
-10.687

@<SCITEGIC>MOL_PROPERTY
VdW
SciTegic.value.DoubleValue
0.490

@<SCITEGIC>MOL_PROPERTY
VdW6
SciTegic.value.DoubleValue
-3.745

@<SCITEGIC>MOL_PROPERTY
VdW12
SciTegic.value.DoubleValue
4.235

@<SCITEGIC>MOL_PROPERTY
Bond
SciTegic.value.DoubleValue
0.068

@<SCITEGIC>MOL_PROPERTY
Angle
SciTegic.value.DoubleValue
3.901

@<SCITEGIC>MOL_PROPERTY
Pdih
SciTegic.value.DoubleValue
10.737

@<SCITEGIC>MOL_PROPERTY
Idih
SciTegic.value.DoubleValue
0.000

@<SCITEGIC>MOL_PROPERTY
Tether
SciTegic.value.DoubleValue
0.000

@<TRIPOS>MOLECULE
guest-4_confgen4.mol2 : confsearch ligand conformer 148
          16          16           1
SMALL
USER_CHARGES
 
@<TRIPOS>ATOM
       1    C1      18.313640   19.564853   22.348691 C.3        1 MOL1        -0.1689
       2    H1      17.982056   19.595308   23.395974 H          1 MOL1         0.0830
       3    H2      17.765768   20.337009   21.791686 H          1 MOL1         0.0830
       4    C2      18.086673   18.158240   21.778032 C.3        1 MOL1        -0.1689
       5    H3      17.140099   17.716798   22.118454 H          1 MOL1         0.0830
       6    H4      18.069700   18.203033   20.680157 H          1 MOL1         0.0830
       7    C3      19.311481   17.352085   22.247624 C.3        1 MOL1        -0.1765
       8    H5      19.555967   16.546892   21.542828 H          1 MOL1         0.0830
       9    H6      19.092722   16.893217   23.221466 H          1 MOL1         0.0830
      10    C4      20.471459   18.361277   22.380519 C.3        1 MOL1         0.1214
      11    H7      21.183998   18.226696   21.553661 H          1 MOL1         0.0787
      12    C5      19.839072   19.765113   22.284779 C.3        1 MOL1        -0.1765
      13    H8      20.192294   20.436424   23.078880 H          1 MOL1         0.0830
      14    H9      20.111522   20.215486   21.321443 H          1 MOL1         0.0830
      15    O1      21.120840   18.200277   23.636016 O.3        1 MOL1        -0.5512
      16    H10     21.492274   17.292827   23.646201 H          1 MOL1         0.3776
@<TRIPOS>BOND
    1     1     2    1
    2     1     3    1
    3     1     4    1
    4     4     5    1
    5     4     6    1
    6     4     7    1
    7     7     8    1
    8     7     9    1
    9     7    10    1
   10    10    11    1
   11     1    12    1
   12    10    12    1
   13    12    13    1
   14    12    14    1
   15    10    15    1
   16    15    16    1
@<TRIPOS>SUBSTRUCTURE
       1 MOL1            1 RESIDUE      1      MOL     
@<SCITEGIC>MOL_PROPERTY
VConf Rank
SciTegic.value.IntegerValue
148

@<SCITEGIC>MOL_PROPERTY
Conf_Id
SciTegic.value.IntegerValue
59

@<SCITEGIC>MOL_PROPERTY
Delta U+W
SciTegic.value.DoubleValue
0.000

@<SCITEGIC>MOL_PROPERTY
U+W
SciTegic.value.DoubleValue
3.010

@<SCITEGIC>MOL_PROPERTY
Grad RMS
SciTegic.value.DoubleValue
0.000000

@<SCITEGIC>MOL_PROPERTY
U
SciTegic.value.DoubleValue
5.843

@<SCITEGIC>MOL_PROPERTY
W
SciTegic.value.DoubleValue
-2.833

@<SCITEGIC>MOL_PROPERTY
W(PB)
SciTegic.value.DoubleValue
-4.568

@<SCITEGIC>MOL_PROPERTY
W(SA)
SciTegic.value.DoubleValue
1.735

@<SCITEGIC>MOL_PROPERTY
Valence
SciTegic.value.DoubleValue
13.789

@<SCITEGIC>MOL_PROPERTY
Coulomb
SciTegic.value.DoubleValue
-8.574

@<SCITEGIC>MOL_PROPERTY
VdW
SciTegic.value.DoubleValue
0.628

@<SCITEGIC>MOL_PROPERTY
VdW6
SciTegic.value.DoubleValue
-3.284

@<SCITEGIC>MOL_PROPERTY
VdW12
SciTegic.value.DoubleValue
3.912

@<SCITEGIC>MOL_PROPERTY
Bond
SciTegic.value.DoubleValue
0.054

@<SCITEGIC>MOL_PROPERTY
Angle
SciTegic.value.DoubleValue
4.034

@<SCITEGIC>MOL_PROPERTY
Pdih
SciTegic.value.DoubleValue
9.702

@<SCITEGIC>MOL_PROPERTY
Idih
SciTegic.value.DoubleValue
0.000

@<SCITEGIC>MOL_PROPERTY
Tether
SciTegic.value.DoubleValue
0.000

@<TRIPOS>MOLECULE
guest-4_confgen4.mol2 : confsearch ligand conformer 149
          16          16           1
SMALL
USER_CHARGES
 
@<TRIPOS>ATOM
       1    C1      19.844139   19.973695   22.523191 C.3        1 MOL1        -0.1689
       2    H1      19.613859   20.981209   22.150842 H          1 MOL1         0.0830
       3    H2      20.491107   20.073173   23.405890 H          1 MOL1         0.0830
       4    C2      20.541957   19.106059   21.466788 C.3        1 MOL1        -0.1689
       5    H3      20.090884   19.290965   20.481891 H          1 MOL1         0.0830
       6    H4      21.618214   19.314485   21.396986 H          1 MOL1         0.0830
       7    C3      20.250847   17.658492   21.903688 C.3        1 MOL1        -0.1765
       8    H5      21.044550   17.310305   22.577399 H          1 MOL1         0.0830
       9    H6      20.218959   16.975448   21.044356 H          1 MOL1         0.0830
      10    C4      18.915227   17.692015   22.674915 C.3        1 MOL1         0.1214
      11    H7      19.042919   17.189142   23.644623 H          1 MOL1         0.0787
      12    C5      18.576555   19.181806   22.892997 C.3        1 MOL1        -0.1765
      13    H8      17.752879   19.485566   22.232641 H          1 MOL1         0.0830
      14    H9      18.268700   19.378201   23.928130 H          1 MOL1         0.0830
      15    O1      17.892448   17.062643   21.912214 O.3        1 MOL1        -0.5512
      16    H10     17.069373   17.122707   22.441807 H          1 MOL1         0.3776
@<TRIPOS>BOND
    1     1     2    1
    2     1     3    1
    3     1     4    1
    4     4     5    1
    5     4     6    1
    6     4     7    1
    7     7     8    1
    8     7     9    1
    9     7    10    1
   10    10    11    1
   11     1    12    1
   12    10    12    1
   13    12    13    1
   14    12    14    1
   15    10    15    1
   16    15    16    1
@<TRIPOS>SUBSTRUCTURE
       1 MOL1            1 RESIDUE      1      MOL     
@<SCITEGIC>MOL_PROPERTY
VConf Rank
SciTegic.value.IntegerValue
149

@<SCITEGIC>MOL_PROPERTY
Conf_Id
SciTegic.value.IntegerValue
33

@<SCITEGIC>MOL_PROPERTY
Delta U+W
SciTegic.value.DoubleValue
0.015

@<SCITEGIC>MOL_PROPERTY
U+W
SciTegic.value.DoubleValue
3.025

@<SCITEGIC>MOL_PROPERTY
Grad RMS
SciTegic.value.DoubleValue
0.000000

@<SCITEGIC>MOL_PROPERTY
U
SciTegic.value.DoubleValue
5.843

@<SCITEGIC>MOL_PROPERTY
W
SciTegic.value.DoubleValue
-2.819

@<SCITEGIC>MOL_PROPERTY
W(PB)
SciTegic.value.DoubleValue
-4.568

@<SCITEGIC>MOL_PROPERTY
W(SA)
SciTegic.value.DoubleValue
1.750

@<SCITEGIC>MOL_PROPERTY
Valence
SciTegic.value.DoubleValue
13.789

@<SCITEGIC>MOL_PROPERTY
Coulomb
SciTegic.value.DoubleValue
-8.574

@<SCITEGIC>MOL_PROPERTY
VdW
SciTegic.value.DoubleValue
0.628

@<SCITEGIC>MOL_PROPERTY
VdW6
SciTegic.value.DoubleValue
-3.284

@<SCITEGIC>MOL_PROPERTY
VdW12
SciTegic.value.DoubleValue
3.913

@<SCITEGIC>MOL_PROPERTY
Bond
SciTegic.value.DoubleValue
0.054

@<SCITEGIC>MOL_PROPERTY
Angle
SciTegic.value.DoubleValue
4.033

@<SCITEGIC>MOL_PROPERTY
Pdih
SciTegic.value.DoubleValue
9.702

@<SCITEGIC>MOL_PROPERTY
Idih
SciTegic.value.DoubleValue
0.000

@<SCITEGIC>MOL_PROPERTY
Tether
SciTegic.value.DoubleValue
0.000

@<TRIPOS>MOLECULE
guest-4_confgen4.mol2 : confsearch ligand conformer 150
          16          16           1
SMALL
USER_CHARGES
 
@<TRIPOS>ATOM
       1    C1      18.235213   18.422647   22.923901 C.3        1 MOL1        -0.1689
       2    H1      17.371868   18.192934   22.284296 H          1 MOL1         0.0830
       3    H2      17.889532   18.412535   23.966685 H          1 MOL1         0.0830
       4    C2      18.826580   19.795247   22.534956 C.3        1 MOL1        -0.1689
       5    H3      18.248805   20.230303   21.707836 H          1 MOL1         0.0830
       6    H4      18.791171   20.502855   23.374621 H          1 MOL1         0.0830
       7    C3      20.281419   19.534772   22.089949 C.3        1 MOL1        -0.1765
       8    H5      20.963351   19.743310   22.924876 H          1 MOL1         0.0830
       9    H6      20.579640   20.173075   21.247548 H          1 MOL1         0.0830
      10    C4      20.359300   18.041716   21.743953 C.3        1 MOL1         0.1214
      11    H7      21.374711   17.645365   21.888270 H          1 MOL1         0.0787
      12    C5      19.355304   17.384456   22.700487 C.3        1 MOL1        -0.1765
      13    H8      18.969517   16.433503   22.309512 H          1 MOL1         0.0830
      14    H9      19.856660   17.174637   23.654552 H          1 MOL1         0.0830
      15    O1      19.925504   17.848531   20.405556 O.3        1 MOL1        -0.5512
      16    H10     19.023177   18.227878   20.372914 H          1 MOL1         0.3776
@<TRIPOS>BOND
    1     1     2    1
    2     1     3    1
    3     1     4    1
    4     4     5    1
    5     4     6    1
    6     4     7    1
    7     7     8    1
    8     7     9    1
    9     7    10    1
   10    10    11    1
   11     1    12    1
   12    10    12    1
   13    12    13    1
   14    12    14    1
   15    10    15    1
   16    15    16    1
@<TRIPOS>SUBSTRUCTURE
       1 MOL1            1 RESIDUE      1      MOL     
@<SCITEGIC>MOL_PROPERTY
VConf Rank
SciTegic.value.IntegerValue
150

@<SCITEGIC>MOL_PROPERTY
Conf_Id
SciTegic.value.IntegerValue
20

@<SCITEGIC>MOL_PROPERTY
Delta U+W
SciTegic.value.DoubleValue
-0.483

@<SCITEGIC>MOL_PROPERTY
U+W
SciTegic.value.DoubleValue
2.527

@<SCITEGIC>MOL_PROPERTY
Grad RMS
SciTegic.value.DoubleValue
0.000000

@<SCITEGIC>MOL_PROPERTY
U
SciTegic.value.DoubleValue
4.508

@<SCITEGIC>MOL_PROPERTY
W
SciTegic.value.DoubleValue
-1.981

@<SCITEGIC>MOL_PROPERTY
W(PB)
SciTegic.value.DoubleValue
-3.712

@<SCITEGIC>MOL_PROPERTY
W(SA)
SciTegic.value.DoubleValue
1.732

@<SCITEGIC>MOL_PROPERTY
Valence
SciTegic.value.DoubleValue
14.705

@<SCITEGIC>MOL_PROPERTY
Coulomb
SciTegic.value.DoubleValue
-10.687

@<SCITEGIC>MOL_PROPERTY
VdW
SciTegic.value.DoubleValue
0.490

@<SCITEGIC>MOL_PROPERTY
VdW6
SciTegic.value.DoubleValue
-3.745

@<SCITEGIC>MOL_PROPERTY
VdW12
SciTegic.value.DoubleValue
4.235

@<SCITEGIC>MOL_PROPERTY
Bond
SciTegic.value.DoubleValue
0.068

@<SCITEGIC>MOL_PROPERTY
Angle
SciTegic.value.DoubleValue
3.901

@<SCITEGIC>MOL_PROPERTY
Pdih
SciTegic.value.DoubleValue
10.737

@<SCITEGIC>MOL_PROPERTY
Idih
SciTegic.value.DoubleValue
0.000

@<SCITEGIC>MOL_PROPERTY
Tether
SciTegic.value.DoubleValue
0.000

@<TRIPOS>MOLECULE
guest-4_confgen4.mol2 : confsearch ligand conformer 151
          16          16           1
SMALL
USER_CHARGES
 
@<TRIPOS>ATOM
       1    C1      20.110726   19.625030   21.681405 C.3        1 MOL1        -0.1689
       2    H1      21.107917   19.201430   21.497420 H          1 MOL1         0.0830
       3    H2      20.086525   20.641434   21.265496 H          1 MOL1         0.0830
       4    C2      19.811084   19.600254   23.186506 C.3        1 MOL1        -0.1689
       5    H3      20.690814   19.857324   23.792104 H          1 MOL1         0.0830
       6    H4      19.013332   20.320201   23.416494 H          1 MOL1         0.0830
       7    C3      19.313450   18.168092   23.454518 C.3        1 MOL1        -0.1765
       8    H5      18.610351   18.138813   24.296920 H          1 MOL1         0.0830
       9    H6      20.169360   17.527411   23.706967 H          1 MOL1         0.0830
      10    C4      18.651834   17.685645   22.146394 C.3        1 MOL1         0.1214
      11    H7      17.558036   17.673004   22.260256 H          1 MOL1         0.0787
      12    C5      19.039224   18.710176   21.060070 C.3        1 MOL1        -0.1765
      13    H8      19.402094   18.227821   20.142639 H          1 MOL1         0.0830
      14    H9      18.154665   19.304684   20.797015 H          1 MOL1         0.0830
      15    O1      19.136766   16.394332   21.798197 O.3        1 MOL1        -0.5512
      16    H10     18.873389   15.789881   22.524010 H          1 MOL1         0.3776
@<TRIPOS>BOND
    1     1     2    1
    2     1     3    1
    3     1     4    1
    4     4     5    1
    5     4     6    1
    6     4     7    1
    7     7     8    1
    8     7     9    1
    9     7    10    1
   10    10    11    1
   11     1    12    1
   12    10    12    1
   13    12    13    1
   14    12    14    1
   15    10    15    1
   16    15    16    1
@<TRIPOS>SUBSTRUCTURE
       1 MOL1            1 RESIDUE      1      MOL     
@<SCITEGIC>MOL_PROPERTY
VConf Rank
SciTegic.value.IntegerValue
151

@<SCITEGIC>MOL_PROPERTY
Conf_Id
SciTegic.value.IntegerValue
59

@<SCITEGIC>MOL_PROPERTY
Delta U+W
SciTegic.value.DoubleValue
0.000

@<SCITEGIC>MOL_PROPERTY
U+W
SciTegic.value.DoubleValue
3.010

@<SCITEGIC>MOL_PROPERTY
Grad RMS
SciTegic.value.DoubleValue
0.000000

@<SCITEGIC>MOL_PROPERTY
U
SciTegic.value.DoubleValue
5.843

@<SCITEGIC>MOL_PROPERTY
W
SciTegic.value.DoubleValue
-2.833

@<SCITEGIC>MOL_PROPERTY
W(PB)
SciTegic.value.DoubleValue
-4.568

@<SCITEGIC>MOL_PROPERTY
W(SA)
SciTegic.value.DoubleValue
1.735

@<SCITEGIC>MOL_PROPERTY
Valence
SciTegic.value.DoubleValue
13.789

@<SCITEGIC>MOL_PROPERTY
Coulomb
SciTegic.value.DoubleValue
-8.574

@<SCITEGIC>MOL_PROPERTY
VdW
SciTegic.value.DoubleValue
0.628

@<SCITEGIC>MOL_PROPERTY
VdW6
SciTegic.value.DoubleValue
-3.284

@<SCITEGIC>MOL_PROPERTY
VdW12
SciTegic.value.DoubleValue
3.912

@<SCITEGIC>MOL_PROPERTY
Bond
SciTegic.value.DoubleValue
0.054

@<SCITEGIC>MOL_PROPERTY
Angle
SciTegic.value.DoubleValue
4.034

@<SCITEGIC>MOL_PROPERTY
Pdih
SciTegic.value.DoubleValue
9.702

@<SCITEGIC>MOL_PROPERTY
Idih
SciTegic.value.DoubleValue
0.000

@<SCITEGIC>MOL_PROPERTY
Tether
SciTegic.value.DoubleValue
0.000

@<TRIPOS>MOLECULE
guest-4_confgen4.mol2 : confsearch ligand conformer 152
          16          16           1
SMALL
USER_CHARGES
 
@<TRIPOS>ATOM
       1    C1      19.795333   17.247207   22.574134 C.3        1 MOL1        -0.1689
       2    H1      20.652776   16.567259   22.478097 H          1 MOL1         0.0830
       3    H2      19.016500   16.737630   23.158404 H          1 MOL1         0.0830
       4    C2      19.227103   17.666567   21.211424 C.3        1 MOL1        -0.1689
       5    H3      20.051807   17.840075   20.506131 H          1 MOL1         0.0830
       6    H4      18.561566   16.905366   20.782152 H          1 MOL1         0.0830
       7    C3      18.498765   18.994376   21.489853 C.3        1 MOL1        -0.1765
       8    H5      17.453539   18.792152   21.757609 H          1 MOL1         0.0830
       9    H6      18.496809   19.647344   20.606875 H          1 MOL1         0.0830
      10    C4      19.210592   19.642056   22.695510 C.3        1 MOL1         0.1214
      11    H7      18.463696   19.912149   23.456244 H          1 MOL1         0.0787
      12    C5      20.173703   18.574576   23.256437 C.3        1 MOL1        -0.1765
      13    H8      21.212322   18.829162   23.004965 H          1 MOL1         0.0830
      14    H9      20.100180   18.499127   24.349025 H          1 MOL1         0.0830
      15    O1      19.939824   20.789382   22.276272 O.3        1 MOL1        -0.5512
      16    H10     20.378100   21.151482   23.075226 H          1 MOL1         0.3776
@<TRIPOS>BOND
    1     1     2    1
    2     1     3    1
    3     1     4    1
    4     4     5    1
    5     4     6    1
    6     4     7    1
    7     7     8    1
    8     7     9    1
    9     7    10    1
   10    10    11    1
   11     1    12    1
   12    10    12    1
   13    12    13    1
   14    12    14    1
   15    10    15    1
   16    15    16    1
@<TRIPOS>SUBSTRUCTURE
       1 MOL1            1 RESIDUE      1      MOL     
@<SCITEGIC>MOL_PROPERTY
VConf Rank
SciTegic.value.IntegerValue
152

@<SCITEGIC>MOL_PROPERTY
Conf_Id
SciTegic.value.IntegerValue
33

@<SCITEGIC>MOL_PROPERTY
Delta U+W
SciTegic.value.DoubleValue
0.015

@<SCITEGIC>MOL_PROPERTY
U+W
SciTegic.value.DoubleValue
3.025

@<SCITEGIC>MOL_PROPERTY
Grad RMS
SciTegic.value.DoubleValue
0.000000

@<SCITEGIC>MOL_PROPERTY
U
SciTegic.value.DoubleValue
5.843

@<SCITEGIC>MOL_PROPERTY
W
SciTegic.value.DoubleValue
-2.819

@<SCITEGIC>MOL_PROPERTY
W(PB)
SciTegic.value.DoubleValue
-4.568

@<SCITEGIC>MOL_PROPERTY
W(SA)
SciTegic.value.DoubleValue
1.750

@<SCITEGIC>MOL_PROPERTY
Valence
SciTegic.value.DoubleValue
13.789

@<SCITEGIC>MOL_PROPERTY
Coulomb
SciTegic.value.DoubleValue
-8.574

@<SCITEGIC>MOL_PROPERTY
VdW
SciTegic.value.DoubleValue
0.628

@<SCITEGIC>MOL_PROPERTY
VdW6
SciTegic.value.DoubleValue
-3.284

@<SCITEGIC>MOL_PROPERTY
VdW12
SciTegic.value.DoubleValue
3.913

@<SCITEGIC>MOL_PROPERTY
Bond
SciTegic.value.DoubleValue
0.054

@<SCITEGIC>MOL_PROPERTY
Angle
SciTegic.value.DoubleValue
4.033

@<SCITEGIC>MOL_PROPERTY
Pdih
SciTegic.value.DoubleValue
9.702

@<SCITEGIC>MOL_PROPERTY
Idih
SciTegic.value.DoubleValue
0.000

@<SCITEGIC>MOL_PROPERTY
Tether
SciTegic.value.DoubleValue
0.000

@<TRIPOS>MOLECULE
guest-4_confgen4.mol2 : confsearch ligand conformer 153
          16          16           1
SMALL
USER_CHARGES
 
@<TRIPOS>ATOM
       1    C1      20.018752   17.789256   21.421052 C.3        1 MOL1        -0.1689
       2    H1      21.092092   17.998884   21.315107 H          1 MOL1         0.0830
       3    H2      19.785563   16.918741   20.792701 H          1 MOL1         0.0830
       4    C2      19.197734   19.028349   21.002009 C.3        1 MOL1        -0.1689
       5    H3      19.873678   19.837287   20.692258 H          1 MOL1         0.0830
       6    H4      18.534299   18.805724   20.155078 H          1 MOL1         0.0830
       7    C3      18.387345   19.456832   22.243826 C.3        1 MOL1        -0.1765
       8    H5      17.368724   19.052826   22.174464 H          1 MOL1         0.0830
       9    H6      18.308438   20.548539   22.333012 H          1 MOL1         0.0830
      10    C4      19.093065   18.824520   23.450944 C.3        1 MOL1         0.1214
      11    H7      18.392743   18.640582   24.278409 H          1 MOL1         0.0787
      12    C5      19.672715   17.514779   22.899997 C.3        1 MOL1        -0.1765
      13    H8      20.543344   17.171085   23.474352 H          1 MOL1         0.0830
      14    H9      18.904304   16.732594   22.957914 H          1 MOL1         0.0830
      15    O1      20.156942   19.668827   23.865816 O.3        1 MOL1        -0.5512
      16    H10     20.722014   19.774938   23.072975 H          1 MOL1         0.3776
@<TRIPOS>BOND
    1     1     2    1
    2     1     3    1
    3     1     4    1
    4     4     5    1
    5     4     6    1
    6     4     7    1
    7     7     8    1
    8     7     9    1
    9     7    10    1
   10    10    11    1
   11     1    12    1
   12    10    12    1
   13    12    13    1
   14    12    14    1
   15    10    15    1
   16    15    16    1
@<TRIPOS>SUBSTRUCTURE
       1 MOL1            1 RESIDUE      1      MOL     
@<SCITEGIC>MOL_PROPERTY
VConf Rank
SciTegic.value.IntegerValue
153

@<SCITEGIC>MOL_PROPERTY
Conf_Id
SciTegic.value.IntegerValue
20

@<SCITEGIC>MOL_PROPERTY
Delta U+W
SciTegic.value.DoubleValue
-0.483

@<SCITEGIC>MOL_PROPERTY
U+W
SciTegic.value.DoubleValue
2.527

@<SCITEGIC>MOL_PROPERTY
Grad RMS
SciTegic.value.DoubleValue
0.000000

@<SCITEGIC>MOL_PROPERTY
U
SciTegic.value.DoubleValue
4.508

@<SCITEGIC>MOL_PROPERTY
W
SciTegic.value.DoubleValue
-1.981

@<SCITEGIC>MOL_PROPERTY
W(PB)
SciTegic.value.DoubleValue
-3.712

@<SCITEGIC>MOL_PROPERTY
W(SA)
SciTegic.value.DoubleValue
1.732

@<SCITEGIC>MOL_PROPERTY
Valence
SciTegic.value.DoubleValue
14.705

@<SCITEGIC>MOL_PROPERTY
Coulomb
SciTegic.value.DoubleValue
-10.687

@<SCITEGIC>MOL_PROPERTY
VdW
SciTegic.value.DoubleValue
0.490

@<SCITEGIC>MOL_PROPERTY
VdW6
SciTegic.value.DoubleValue
-3.745

@<SCITEGIC>MOL_PROPERTY
VdW12
SciTegic.value.DoubleValue
4.235

@<SCITEGIC>MOL_PROPERTY
Bond
SciTegic.value.DoubleValue
0.068

@<SCITEGIC>MOL_PROPERTY
Angle
SciTegic.value.DoubleValue
3.901

@<SCITEGIC>MOL_PROPERTY
Pdih
SciTegic.value.DoubleValue
10.737

@<SCITEGIC>MOL_PROPERTY
Idih
SciTegic.value.DoubleValue
0.000

@<SCITEGIC>MOL_PROPERTY
Tether
SciTegic.value.DoubleValue
0.000

@<TRIPOS>MOLECULE
guest-4_confgen4.mol2 : confsearch ligand conformer 154
          16          16           1
SMALL
USER_CHARGES
 
@<TRIPOS>ATOM
       1    C1      18.144988   18.359010   21.536963 C.3        1 MOL1        -0.1689
       2    H1      18.325370   17.445787   20.952872 H          1 MOL1         0.0830
       3    H2      17.121072   18.700910   21.333627 H          1 MOL1         0.0830
       4    C2      19.198206   19.415965   21.177373 C.3        1 MOL1        -0.1689
       5    H3      19.427481   19.428971   20.103119 H          1 MOL1         0.0830
       6    H4      18.834185   20.412695   21.463107 H          1 MOL1         0.0830
       7    C3      20.422585   19.043419   22.033331 C.3        1 MOL1        -0.1765
       8    H5      21.023596   19.928113   22.280208 H          1 MOL1         0.0830
       9    H6      21.060789   18.348086   21.471200 H          1 MOL1         0.0830
      10    C4      19.873678   18.358311   23.302585 C.3        1 MOL1         0.1214
      11    H7      19.961846   19.036102   24.164180 H          1 MOL1         0.0787
      12    C5      18.382566   18.070944   23.030852 C.3        1 MOL1        -0.1765
      13    H8      18.101621   17.042401   23.293896 H          1 MOL1         0.0830
      14    H9      17.770608   18.749838   23.638874 H          1 MOL1         0.0830
      15    O1      20.571420   17.142459   23.544965 O.3        1 MOL1        -0.5512
      16    H10     21.509554   17.382524   23.699257 H          1 MOL1         0.3776
@<TRIPOS>BOND
    1     1     2    1
    2     1     3    1
    3     1     4    1
    4     4     5    1
    5     4     6    1
    6     4     7    1
    7     7     8    1
    8     7     9    1
    9     7    10    1
   10    10    11    1
   11     1    12    1
   12    10    12    1
   13    12    13    1
   14    12    14    1
   15    10    15    1
   16    15    16    1
@<TRIPOS>SUBSTRUCTURE
       1 MOL1            1 RESIDUE      1      MOL     
@<SCITEGIC>MOL_PROPERTY
VConf Rank
SciTegic.value.IntegerValue
154

@<SCITEGIC>MOL_PROPERTY
Conf_Id
SciTegic.value.IntegerValue
59

@<SCITEGIC>MOL_PROPERTY
Delta U+W
SciTegic.value.DoubleValue
0.000

@<SCITEGIC>MOL_PROPERTY
U+W
SciTegic.value.DoubleValue
3.010

@<SCITEGIC>MOL_PROPERTY
Grad RMS
SciTegic.value.DoubleValue
0.000000

@<SCITEGIC>MOL_PROPERTY
U
SciTegic.value.DoubleValue
5.843

@<SCITEGIC>MOL_PROPERTY
W
SciTegic.value.DoubleValue
-2.833

@<SCITEGIC>MOL_PROPERTY
W(PB)
SciTegic.value.DoubleValue
-4.568

@<SCITEGIC>MOL_PROPERTY
W(SA)
SciTegic.value.DoubleValue
1.735

@<SCITEGIC>MOL_PROPERTY
Valence
SciTegic.value.DoubleValue
13.789

@<SCITEGIC>MOL_PROPERTY
Coulomb
SciTegic.value.DoubleValue
-8.574

@<SCITEGIC>MOL_PROPERTY
VdW
SciTegic.value.DoubleValue
0.628

@<SCITEGIC>MOL_PROPERTY
VdW6
SciTegic.value.DoubleValue
-3.284

@<SCITEGIC>MOL_PROPERTY
VdW12
SciTegic.value.DoubleValue
3.912

@<SCITEGIC>MOL_PROPERTY
Bond
SciTegic.value.DoubleValue
0.054

@<SCITEGIC>MOL_PROPERTY
Angle
SciTegic.value.DoubleValue
4.034

@<SCITEGIC>MOL_PROPERTY
Pdih
SciTegic.value.DoubleValue
9.702

@<SCITEGIC>MOL_PROPERTY
Idih
SciTegic.value.DoubleValue
0.000

@<SCITEGIC>MOL_PROPERTY
Tether
SciTegic.value.DoubleValue
0.000

@<TRIPOS>MOLECULE
guest-4_confgen4.mol2 : confsearch ligand conformer 155
          16          16           1
SMALL
USER_CHARGES
 
@<TRIPOS>ATOM
       1    C1      20.196537   19.541181   23.094491 C.3        1 MOL1        -0.1689
       2    H1      20.089171   20.549681   23.516578 H          1 MOL1         0.0830
       3    H2      21.107177   19.089242   23.511754 H          1 MOL1         0.0830
       4    C2      20.282827   19.555607   21.562149 C.3        1 MOL1        -0.1689
       5    H3      19.581359   20.300270   21.160778 H          1 MOL1         0.0830
       6    H4      21.290476   19.802282   21.200986 H          1 MOL1         0.0830
       7    C3      19.835539   18.144597   21.137812 C.3        1 MOL1        -0.1765
       8    H5      20.708647   17.481163   21.086597 H          1 MOL1         0.0830
       9    H6      19.362811   18.151301   20.146600 H          1 MOL1         0.0830
      10    C4      18.881347   17.636190   22.238193 C.3        1 MOL1         0.1214
      11    H7      19.210039   16.641502   22.572974 H          1 MOL1         0.0787
      12    C5      18.982605   18.645235   23.401512 C.3        1 MOL1        -0.1765
      13    H8      18.076519   19.264600   23.448157 H          1 MOL1         0.0830
      14    H9      19.093564   18.136862   24.367996 H          1 MOL1         0.0830
      15    O1      17.547416   17.586471   21.746205 O.3        1 MOL1        -0.5512
      16    H10     16.986582   17.269729   22.485577 H          1 MOL1         0.3776
@<TRIPOS>BOND
    1     1     2    1
    2     1     3    1
    3     1     4    1
    4     4     5    1
    5     4     6    1
    6     4     7    1
    7     7     8    1
    8     7     9    1
    9     7    10    1
   10    10    11    1
   11     1    12    1
   12    10    12    1
   13    12    13    1
   14    12    14    1
   15    10    15    1
   16    15    16    1
@<TRIPOS>SUBSTRUCTURE
       1 MOL1            1 RESIDUE      1      MOL     
@<SCITEGIC>MOL_PROPERTY
VConf Rank
SciTegic.value.IntegerValue
155

@<SCITEGIC>MOL_PROPERTY
Conf_Id
SciTegic.value.IntegerValue
33

@<SCITEGIC>MOL_PROPERTY
Delta U+W
SciTegic.value.DoubleValue
0.015

@<SCITEGIC>MOL_PROPERTY
U+W
SciTegic.value.DoubleValue
3.025

@<SCITEGIC>MOL_PROPERTY
Grad RMS
SciTegic.value.DoubleValue
0.000000

@<SCITEGIC>MOL_PROPERTY
U
SciTegic.value.DoubleValue
5.843

@<SCITEGIC>MOL_PROPERTY
W
SciTegic.value.DoubleValue
-2.819

@<SCITEGIC>MOL_PROPERTY
W(PB)
SciTegic.value.DoubleValue
-4.568

@<SCITEGIC>MOL_PROPERTY
W(SA)
SciTegic.value.DoubleValue
1.750

@<SCITEGIC>MOL_PROPERTY
Valence
SciTegic.value.DoubleValue
13.789

@<SCITEGIC>MOL_PROPERTY
Coulomb
SciTegic.value.DoubleValue
-8.574

@<SCITEGIC>MOL_PROPERTY
VdW
SciTegic.value.DoubleValue
0.628

@<SCITEGIC>MOL_PROPERTY
VdW6
SciTegic.value.DoubleValue
-3.284

@<SCITEGIC>MOL_PROPERTY
VdW12
SciTegic.value.DoubleValue
3.913

@<SCITEGIC>MOL_PROPERTY
Bond
SciTegic.value.DoubleValue
0.054

@<SCITEGIC>MOL_PROPERTY
Angle
SciTegic.value.DoubleValue
4.033

@<SCITEGIC>MOL_PROPERTY
Pdih
SciTegic.value.DoubleValue
9.702

@<SCITEGIC>MOL_PROPERTY
Idih
SciTegic.value.DoubleValue
0.000

@<SCITEGIC>MOL_PROPERTY
Tether
SciTegic.value.DoubleValue
0.000

@<TRIPOS>MOLECULE
guest-4_confgen4.mol2 : confsearch ligand conformer 156
          16          16           1
SMALL
USER_CHARGES
 
@<TRIPOS>ATOM
       1    C1      20.059448   18.014914   21.275016 C.3        1 MOL1        -0.1689
       2    H1      20.949227   18.567229   20.942649 H          1 MOL1         0.0830
       3    H2      20.002234   17.089447   20.685750 H          1 MOL1         0.0830
       4    C2      18.799005   18.887101   21.086347 C.3        1 MOL1        -0.1689
       5    H3      19.078633   19.861115   20.661691 H          1 MOL1         0.0830
       6    H4      18.081977   18.417380   20.399155 H          1 MOL1         0.0830
       7    C3      18.182288   19.074190   22.488878 C.3        1 MOL1        -0.1765
       8    H5      17.369961   18.349457   22.632082 H          1 MOL1         0.0830
       9    H6      17.761875   20.079123   22.628046 H          1 MOL1         0.0830
      10    C4      19.304173   18.769601   23.490673 C.3        1 MOL1         0.1214
      11    H7      18.904373   18.398727   24.445447 H          1 MOL1         0.0787
      12    C5      20.156363   17.706691   22.784308 C.3        1 MOL1        -0.1765
      13    H8      21.194601   17.700726   23.142121 H          1 MOL1         0.0830
      14    H9      19.728258   16.715610   22.984576 H          1 MOL1         0.0830
      15    O1      20.084862   19.939303   23.688485 O.3        1 MOL1        -0.5512
      16    H10     20.394475   20.193147   22.794692 H          1 MOL1         0.3776
@<TRIPOS>BOND
    1     1     2    1
    2     1     3    1
    3     1     4    1
    4     4     5    1
    5     4     6    1
    6     4     7    1
    7     7     8    1
    8     7     9    1
    9     7    10    1
   10    10    11    1
   11     1    12    1
   12    10    12    1
   13    12    13    1
   14    12    14    1
   15    10    15    1
   16    15    16    1
@<TRIPOS>SUBSTRUCTURE
       1 MOL1            1 RESIDUE      1      MOL     
@<SCITEGIC>MOL_PROPERTY
VConf Rank
SciTegic.value.IntegerValue
156

@<SCITEGIC>MOL_PROPERTY
Conf_Id
SciTegic.value.IntegerValue
20

@<SCITEGIC>MOL_PROPERTY
Delta U+W
SciTegic.value.DoubleValue
-0.483

@<SCITEGIC>MOL_PROPERTY
U+W
SciTegic.value.DoubleValue
2.527

@<SCITEGIC>MOL_PROPERTY
Grad RMS
SciTegic.value.DoubleValue
0.000000

@<SCITEGIC>MOL_PROPERTY
U
SciTegic.value.DoubleValue
4.508

@<SCITEGIC>MOL_PROPERTY
W
SciTegic.value.DoubleValue
-1.981

@<SCITEGIC>MOL_PROPERTY
W(PB)
SciTegic.value.DoubleValue
-3.712

@<SCITEGIC>MOL_PROPERTY
W(SA)
SciTegic.value.DoubleValue
1.732

@<SCITEGIC>MOL_PROPERTY
Valence
SciTegic.value.DoubleValue
14.705

@<SCITEGIC>MOL_PROPERTY
Coulomb
SciTegic.value.DoubleValue
-10.687

@<SCITEGIC>MOL_PROPERTY
VdW
SciTegic.value.DoubleValue
0.490

@<SCITEGIC>MOL_PROPERTY
VdW6
SciTegic.value.DoubleValue
-3.745

@<SCITEGIC>MOL_PROPERTY
VdW12
SciTegic.value.DoubleValue
4.235

@<SCITEGIC>MOL_PROPERTY
Bond
SciTegic.value.DoubleValue
0.068

@<SCITEGIC>MOL_PROPERTY
Angle
SciTegic.value.DoubleValue
3.901

@<SCITEGIC>MOL_PROPERTY
Pdih
SciTegic.value.DoubleValue
10.737

@<SCITEGIC>MOL_PROPERTY
Idih
SciTegic.value.DoubleValue
0.000

@<SCITEGIC>MOL_PROPERTY
Tether
SciTegic.value.DoubleValue
0.000

@<TRIPOS>MOLECULE
guest-4_confgen4.mol2 : confsearch ligand conformer 157
          16          16           1
SMALL
USER_CHARGES
 
@<TRIPOS>ATOM
       1    C1      18.228722   19.387374   21.934847 C.3        1 MOL1        -0.1689
       2    H1      18.405772   19.643583   20.880955 H          1 MOL1         0.0830
       3    H2      17.262003   19.814009   22.234982 H          1 MOL1         0.0830
       4    C2      19.390501   19.907092   22.792687 C.3        1 MOL1        -0.1689
       5    H3      19.739096   20.897143   22.468588 H          1 MOL1         0.0830
       6    H4      19.071062   19.981661   23.841507 H          1 MOL1         0.0830
       7    C3      20.480453   18.828318   22.655546 C.3        1 MOL1        -0.1765
       8    H5      21.113445   18.781529   23.551078 H          1 MOL1         0.0830
       9    H6      21.124759   19.069721   21.799170 H          1 MOL1         0.0830
      10    C4      19.743805   17.494397   22.411243 C.3        1 MOL1         0.1214
      11    H7      19.784449   16.870782   23.316213 H          1 MOL1         0.0787
      12    C5      18.275482   17.858074   22.108587 C.3        1 MOL1        -0.1765
      13    H8      17.891916   17.338395   21.220424 H          1 MOL1         0.0830
      14    H9      17.650831   17.564978   22.962394 H          1 MOL1         0.0830
      15    O1      20.318624   16.811909   21.303235 O.3        1 MOL1        -0.5512
      16    H10     21.248649   16.616567   21.544953 H          1 MOL1         0.3776
@<TRIPOS>BOND
    1     1     2    1
    2     1     3    1
    3     1     4    1
    4     4     5    1
    5     4     6    1
    6     4     7    1
    7     7     8    1
    8     7     9    1
    9     7    10    1
   10    10    11    1
   11     1    12    1
   12    10    12    1
   13    12    13    1
   14    12    14    1
   15    10    15    1
   16    15    16    1
@<TRIPOS>SUBSTRUCTURE
       1 MOL1            1 RESIDUE      1      MOL     
@<SCITEGIC>MOL_PROPERTY
VConf Rank
SciTegic.value.IntegerValue
157

@<SCITEGIC>MOL_PROPERTY
Conf_Id
SciTegic.value.IntegerValue
59

@<SCITEGIC>MOL_PROPERTY
Delta U+W
SciTegic.value.DoubleValue
0.000

@<SCITEGIC>MOL_PROPERTY
U+W
SciTegic.value.DoubleValue
3.010

@<SCITEGIC>MOL_PROPERTY
Grad RMS
SciTegic.value.DoubleValue
0.000000

@<SCITEGIC>MOL_PROPERTY
U
SciTegic.value.DoubleValue
5.843

@<SCITEGIC>MOL_PROPERTY
W
SciTegic.value.DoubleValue
-2.833

@<SCITEGIC>MOL_PROPERTY
W(PB)
SciTegic.value.DoubleValue
-4.568

@<SCITEGIC>MOL_PROPERTY
W(SA)
SciTegic.value.DoubleValue
1.735

@<SCITEGIC>MOL_PROPERTY
Valence
SciTegic.value.DoubleValue
13.789

@<SCITEGIC>MOL_PROPERTY
Coulomb
SciTegic.value.DoubleValue
-8.574

@<SCITEGIC>MOL_PROPERTY
VdW
SciTegic.value.DoubleValue
0.628

@<SCITEGIC>MOL_PROPERTY
VdW6
SciTegic.value.DoubleValue
-3.284

@<SCITEGIC>MOL_PROPERTY
VdW12
SciTegic.value.DoubleValue
3.912

@<SCITEGIC>MOL_PROPERTY
Bond
SciTegic.value.DoubleValue
0.054

@<SCITEGIC>MOL_PROPERTY
Angle
SciTegic.value.DoubleValue
4.034

@<SCITEGIC>MOL_PROPERTY
Pdih
SciTegic.value.DoubleValue
9.702

@<SCITEGIC>MOL_PROPERTY
Idih
SciTegic.value.DoubleValue
0.000

@<SCITEGIC>MOL_PROPERTY
Tether
SciTegic.value.DoubleValue
0.000

@<TRIPOS>MOLECULE
guest-4_confgen4.mol2 : confsearch ligand conformer 158
          16          16           1
SMALL
USER_CHARGES
 
@<TRIPOS>ATOM
       1    C1      19.665797   19.575789   21.250071 C.3        1 MOL1        -0.1689
       2    H1      20.097022   20.577403   21.117508 H          1 MOL1         0.0830
       3    H2      19.430882   19.168640   20.256761 H          1 MOL1         0.0830
       4    C2      18.396741   19.595914   22.113101 C.3        1 MOL1        -0.1689
       5    H3      18.526307   20.305676   22.942033 H          1 MOL1         0.0830
       6    H4      17.506009   19.892048   21.542536 H          1 MOL1         0.0830
       7    C3      18.287970   18.165082   22.671640 C.3        1 MOL1        -0.1765
       8    H5      17.697254   17.545305   21.984606 H          1 MOL1         0.0830
       9    H6      17.787686   18.149559   23.649133 H          1 MOL1         0.0830
      10    C4      19.725430   17.609435   22.740660 C.3        1 MOL1         0.1214
      11    H7      19.761517   16.631736   22.238344 H          1 MOL1         0.0787
      12    C5      20.618848   18.621104   21.992284 C.3        1 MOL1        -0.1765
      13    H8      21.224598   19.195253   22.706569 H          1 MOL1         0.0830
      14    H9      21.303667   18.117846   21.297589 H          1 MOL1         0.0830
      15    O1      20.142497   17.494848   24.095954 O.3        1 MOL1        -0.5512
      16    H10     21.060391   17.150273   24.079569 H          1 MOL1         0.3776
@<TRIPOS>BOND
    1     1     2    1
    2     1     3    1
    3     1     4    1
    4     4     5    1
    5     4     6    1
    6     4     7    1
    7     7     8    1
    8     7     9    1
    9     7    10    1
   10    10    11    1
   11     1    12    1
   12    10    12    1
   13    12    13    1
   14    12    14    1
   15    10    15    1
   16    15    16    1
@<TRIPOS>SUBSTRUCTURE
       1 MOL1            1 RESIDUE      1      MOL     
@<SCITEGIC>MOL_PROPERTY
VConf Rank
SciTegic.value.IntegerValue
158

@<SCITEGIC>MOL_PROPERTY
Conf_Id
SciTegic.value.IntegerValue
33

@<SCITEGIC>MOL_PROPERTY
Delta U+W
SciTegic.value.DoubleValue
0.015

@<SCITEGIC>MOL_PROPERTY
U+W
SciTegic.value.DoubleValue
3.025

@<SCITEGIC>MOL_PROPERTY
Grad RMS
SciTegic.value.DoubleValue
0.000000

@<SCITEGIC>MOL_PROPERTY
U
SciTegic.value.DoubleValue
5.843

@<SCITEGIC>MOL_PROPERTY
W
SciTegic.value.DoubleValue
-2.819

@<SCITEGIC>MOL_PROPERTY
W(PB)
SciTegic.value.DoubleValue
-4.568

@<SCITEGIC>MOL_PROPERTY
W(SA)
SciTegic.value.DoubleValue
1.750

@<SCITEGIC>MOL_PROPERTY
Valence
SciTegic.value.DoubleValue
13.789

@<SCITEGIC>MOL_PROPERTY
Coulomb
SciTegic.value.DoubleValue
-8.574

@<SCITEGIC>MOL_PROPERTY
VdW
SciTegic.value.DoubleValue
0.628

@<SCITEGIC>MOL_PROPERTY
VdW6
SciTegic.value.DoubleValue
-3.284

@<SCITEGIC>MOL_PROPERTY
VdW12
SciTegic.value.DoubleValue
3.913

@<SCITEGIC>MOL_PROPERTY
Bond
SciTegic.value.DoubleValue
0.054

@<SCITEGIC>MOL_PROPERTY
Angle
SciTegic.value.DoubleValue
4.033

@<SCITEGIC>MOL_PROPERTY
Pdih
SciTegic.value.DoubleValue
9.702

@<SCITEGIC>MOL_PROPERTY
Idih
SciTegic.value.DoubleValue
0.000

@<SCITEGIC>MOL_PROPERTY
Tether
SciTegic.value.DoubleValue
0.000

@<TRIPOS>MOLECULE
guest-4_confgen4.mol2 : confsearch ligand conformer 159
          16          16           1
SMALL
USER_CHARGES
 
@<TRIPOS>ATOM
       1    C1      19.195702   17.645642   23.164317 C.3        1 MOL1        -0.1689
       2    H1      19.983128   17.588256   23.928447 H          1 MOL1         0.0830
       3    H2      18.452135   16.869893   23.393051 H          1 MOL1         0.0830
       4    C2      19.809907   17.447468   21.761284 C.3        1 MOL1        -0.1689
       5    H3      20.894410   17.293119   21.846463 H          1 MOL1         0.0830
       6    H4      19.386875   16.568609   21.255665 H          1 MOL1         0.0830
       7    C3      19.515781   18.738694   20.968402 C.3        1 MOL1        -0.1765
       8    H5      18.627414   18.589360   20.340609 H          1 MOL1         0.0830
       9    H6      20.347376   19.020739   20.308928 H          1 MOL1         0.0830
      10    C4      19.210921   19.819605   22.014196 C.3        1 MOL1         0.1214
      11    H7      18.542797   20.594739   21.612000 H          1 MOL1         0.0787
      12    C5      18.552422   19.048690   23.166162 C.3        1 MOL1        -0.1765
      13    H8      18.671675   19.560033   24.130688 H          1 MOL1         0.0830
      14    H9      17.476484   18.959231   22.966219 H          1 MOL1         0.0830
      15    O1      20.430481   20.387918   22.468618 O.3        1 MOL1        -0.5512
      16    H10     20.954246   19.631764   22.804867 H          1 MOL1         0.3776
@<TRIPOS>BOND
    1     1     2    1
    2     1     3    1
    3     1     4    1
    4     4     5    1
    5     4     6    1
    6     4     7    1
    7     7     8    1
    8     7     9    1
    9     7    10    1
   10    10    11    1
   11     1    12    1
   12    10    12    1
   13    12    13    1
   14    12    14    1
   15    10    15    1
   16    15    16    1
@<TRIPOS>SUBSTRUCTURE
       1 MOL1            1 RESIDUE      1      MOL     
@<SCITEGIC>MOL_PROPERTY
VConf Rank
SciTegic.value.IntegerValue
159

@<SCITEGIC>MOL_PROPERTY
Conf_Id
SciTegic.value.IntegerValue
20

@<SCITEGIC>MOL_PROPERTY
Delta U+W
SciTegic.value.DoubleValue
-0.483

@<SCITEGIC>MOL_PROPERTY
U+W
SciTegic.value.DoubleValue
2.527

@<SCITEGIC>MOL_PROPERTY
Grad RMS
SciTegic.value.DoubleValue
0.000000

@<SCITEGIC>MOL_PROPERTY
U
SciTegic.value.DoubleValue
4.508

@<SCITEGIC>MOL_PROPERTY
W
SciTegic.value.DoubleValue
-1.981

@<SCITEGIC>MOL_PROPERTY
W(PB)
SciTegic.value.DoubleValue
-3.712

@<SCITEGIC>MOL_PROPERTY
W(SA)
SciTegic.value.DoubleValue
1.732

@<SCITEGIC>MOL_PROPERTY
Valence
SciTegic.value.DoubleValue
14.705

@<SCITEGIC>MOL_PROPERTY
Coulomb
SciTegic.value.DoubleValue
-10.687

@<SCITEGIC>MOL_PROPERTY
VdW
SciTegic.value.DoubleValue
0.490

@<SCITEGIC>MOL_PROPERTY
VdW6
SciTegic.value.DoubleValue
-3.745

@<SCITEGIC>MOL_PROPERTY
VdW12
SciTegic.value.DoubleValue
4.235

@<SCITEGIC>MOL_PROPERTY
Bond
SciTegic.value.DoubleValue
0.068

@<SCITEGIC>MOL_PROPERTY
Angle
SciTegic.value.DoubleValue
3.901

@<SCITEGIC>MOL_PROPERTY
Pdih
SciTegic.value.DoubleValue
10.737

@<SCITEGIC>MOL_PROPERTY
Idih
SciTegic.value.DoubleValue
0.000

@<SCITEGIC>MOL_PROPERTY
Tether
SciTegic.value.DoubleValue
0.000

@<TRIPOS>MOLECULE
guest-4_confgen4.mol2 : confsearch ligand conformer 160
          16          16           1
SMALL
USER_CHARGES
 
@<TRIPOS>ATOM
       1    C1      18.178111   17.717557   22.167357 C.3        1 MOL1        -0.1689
       2    H1      18.515936   16.702722   22.419669 H          1 MOL1         0.0830
       3    H2      17.098155   17.681560   21.969763 H          1 MOL1         0.0830
       4    C2      18.976694   18.241662   20.965980 C.3        1 MOL1        -0.1689
       5    H3      19.151996   17.464607   20.209532 H          1 MOL1         0.0830
       6    H4      18.429368   19.067229   20.490060 H          1 MOL1         0.0830
       7    C3      20.287061   18.769804   21.577994 C.3        1 MOL1        -0.1765
       8    H5      20.704714   19.592307   20.983098 H          1 MOL1         0.0830
       9    H6      21.029049   17.960073   21.601955 H          1 MOL1         0.0830
      10    C4      19.944881   19.224157   23.012621 C.3        1 MOL1         0.1214
      11    H7      19.929738   20.322538   23.066009 H          1 MOL1         0.0787
      12    C5      18.533639   18.679790   23.315764 C.3        1 MOL1        -0.1765
      13    H8      18.480347   18.180669   24.292524 H          1 MOL1         0.0830
      14    H9      17.822654   19.516092   23.329192 H          1 MOL1         0.0830
      15    O1      20.886083   18.688158   23.934973 O.3        1 MOL1        -0.5512
      16    H10     21.761140   19.056609   23.689918 H          1 MOL1         0.3776
@<TRIPOS>BOND
    1     1     2    1
    2     1     3    1
    3     1     4    1
    4     4     5    1
    5     4     6    1
    6     4     7    1
    7     7     8    1
    8     7     9    1
    9     7    10    1
   10    10    11    1
   11     1    12    1
   12    10    12    1
   13    12    13    1
   14    12    14    1
   15    10    15    1
   16    15    16    1
@<TRIPOS>SUBSTRUCTURE
       1 MOL1            1 RESIDUE      1      MOL     
@<SCITEGIC>MOL_PROPERTY
VConf Rank
SciTegic.value.IntegerValue
160

@<SCITEGIC>MOL_PROPERTY
Conf_Id
SciTegic.value.IntegerValue
59

@<SCITEGIC>MOL_PROPERTY
Delta U+W
SciTegic.value.DoubleValue
0.000

@<SCITEGIC>MOL_PROPERTY
U+W
SciTegic.value.DoubleValue
3.010

@<SCITEGIC>MOL_PROPERTY
Grad RMS
SciTegic.value.DoubleValue
0.000000

@<SCITEGIC>MOL_PROPERTY
U
SciTegic.value.DoubleValue
5.843

@<SCITEGIC>MOL_PROPERTY
W
SciTegic.value.DoubleValue
-2.833

@<SCITEGIC>MOL_PROPERTY
W(PB)
SciTegic.value.DoubleValue
-4.568

@<SCITEGIC>MOL_PROPERTY
W(SA)
SciTegic.value.DoubleValue
1.735

@<SCITEGIC>MOL_PROPERTY
Valence
SciTegic.value.DoubleValue
13.789

@<SCITEGIC>MOL_PROPERTY
Coulomb
SciTegic.value.DoubleValue
-8.574

@<SCITEGIC>MOL_PROPERTY
VdW
SciTegic.value.DoubleValue
0.628

@<SCITEGIC>MOL_PROPERTY
VdW6
SciTegic.value.DoubleValue
-3.284

@<SCITEGIC>MOL_PROPERTY
VdW12
SciTegic.value.DoubleValue
3.912

@<SCITEGIC>MOL_PROPERTY
Bond
SciTegic.value.DoubleValue
0.054

@<SCITEGIC>MOL_PROPERTY
Angle
SciTegic.value.DoubleValue
4.034

@<SCITEGIC>MOL_PROPERTY
Pdih
SciTegic.value.DoubleValue
9.702

@<SCITEGIC>MOL_PROPERTY
Idih
SciTegic.value.DoubleValue
0.000

@<SCITEGIC>MOL_PROPERTY
Tether
SciTegic.value.DoubleValue
0.000

@<TRIPOS>MOLECULE
guest-4_confgen4.mol2 : confsearch ligand conformer 161
          16          16           1
SMALL
USER_CHARGES
 
@<TRIPOS>ATOM
       1    C1      19.650107   20.033756   22.317445 C.3        1 MOL1        -0.1689
       2    H1      20.469490   20.758828   22.415633 H          1 MOL1         0.0830
       3    H2      18.734820   20.582937   22.056158 H          1 MOL1         0.0830
       4    C2      19.421396   19.232898   23.606648 C.3        1 MOL1        -0.1689
       5    H3      20.389994   18.982688   24.061501 H          1 MOL1         0.0830
       6    H4      18.827354   19.787806   24.345455 H          1 MOL1         0.0830
       7    C3      18.722320   17.942763   23.139828 C.3        1 MOL1        -0.1765
       8    H5      17.634387   18.089017   23.149567 H          1 MOL1         0.0830
       9    H6      18.951312   17.096697   23.801459 H          1 MOL1         0.0830
      10    C4      19.183302   17.693008   21.688995 C.3        1 MOL1         0.1214
      11    H7      18.302152   17.538091   21.049390 H          1 MOL1         0.0787
      12    C5      19.939088   18.964302   21.248161 C.3        1 MOL1        -0.1765
      13    H8      21.019811   18.770894   21.210583 H          1 MOL1         0.0830
      14    H9      19.621380   19.297370   20.251680 H          1 MOL1         0.0830
      15    O1      20.048200   16.564695   21.636455 O.3        1 MOL1        -0.5512
      16    H10     20.317502   16.460161   20.699397 H          1 MOL1         0.3776
@<TRIPOS>BOND
    1     1     2    1
    2     1     3    1
    3     1     4    1
    4     4     5    1
    5     4     6    1
    6     4     7    1
    7     7     8    1
    8     7     9    1
    9     7    10    1
   10    10    11    1
   11     1    12    1
   12    10    12    1
   13    12    13    1
   14    12    14    1
   15    10    15    1
   16    15    16    1
@<TRIPOS>SUBSTRUCTURE
       1 MOL1            1 RESIDUE      1      MOL     
@<SCITEGIC>MOL_PROPERTY
VConf Rank
SciTegic.value.IntegerValue
161

@<SCITEGIC>MOL_PROPERTY
Conf_Id
SciTegic.value.IntegerValue
33

@<SCITEGIC>MOL_PROPERTY
Delta U+W
SciTegic.value.DoubleValue
0.015

@<SCITEGIC>MOL_PROPERTY
U+W
SciTegic.value.DoubleValue
3.025

@<SCITEGIC>MOL_PROPERTY
Grad RMS
SciTegic.value.DoubleValue
0.000000

@<SCITEGIC>MOL_PROPERTY
U
SciTegic.value.DoubleValue
5.843

@<SCITEGIC>MOL_PROPERTY
W
SciTegic.value.DoubleValue
-2.819

@<SCITEGIC>MOL_PROPERTY
W(PB)
SciTegic.value.DoubleValue
-4.568

@<SCITEGIC>MOL_PROPERTY
W(SA)
SciTegic.value.DoubleValue
1.750

@<SCITEGIC>MOL_PROPERTY
Valence
SciTegic.value.DoubleValue
13.789

@<SCITEGIC>MOL_PROPERTY
Coulomb
SciTegic.value.DoubleValue
-8.574

@<SCITEGIC>MOL_PROPERTY
VdW
SciTegic.value.DoubleValue
0.628

@<SCITEGIC>MOL_PROPERTY
VdW6
SciTegic.value.DoubleValue
-3.284

@<SCITEGIC>MOL_PROPERTY
VdW12
SciTegic.value.DoubleValue
3.913

@<SCITEGIC>MOL_PROPERTY
Bond
SciTegic.value.DoubleValue
0.054

@<SCITEGIC>MOL_PROPERTY
Angle
SciTegic.value.DoubleValue
4.033

@<SCITEGIC>MOL_PROPERTY
Pdih
SciTegic.value.DoubleValue
9.702

@<SCITEGIC>MOL_PROPERTY
Idih
SciTegic.value.DoubleValue
0.000

@<SCITEGIC>MOL_PROPERTY
Tether
SciTegic.value.DoubleValue
0.000

@<TRIPOS>MOLECULE
guest-4_confgen4.mol2 : confsearch ligand conformer 162
          16          16           1
SMALL
USER_CHARGES
 
@<TRIPOS>ATOM
       1    C1      19.410928   19.127047   21.026540 C.3        1 MOL1        -0.1689
       2    H1      18.475363   19.010494   20.462306 H          1 MOL1         0.0830
       3    H2      20.119467   19.672345   20.388089 H          1 MOL1         0.0830
       4    C2      19.958958   17.739897   21.427165 C.3        1 MOL1        -0.1689
       5    H3      19.289196   16.951975   21.055918 H          1 MOL1         0.0830
       6    H4      20.954644   17.559983   20.999100 H          1 MOL1         0.0830
       7    C3      20.005846   17.716693   22.969792 C.3        1 MOL1        -0.1765
       8    H5      21.022749   17.953596   23.309505 H          1 MOL1         0.0830
       9    H6      19.737100   16.733946   23.379660 H          1 MOL1         0.0830
      10    C4      19.052666   18.823317   23.440774 C.3        1 MOL1         0.1214
      11    H7      19.350195   19.223641   24.420672 H          1 MOL1         0.0787
      12    C5      19.148397   19.890419   22.342100 C.3        1 MOL1        -0.1765
      13    H8      18.246249   20.514322   22.288429 H          1 MOL1         0.0830
      14    H9      19.998621   20.550421   22.559216 H          1 MOL1         0.0830
      15    O1      17.728052   18.312997   23.482961 O.3        1 MOL1        -0.5512
      16    H10     17.553323   17.982671   22.577690 H          1 MOL1         0.3776
@<TRIPOS>BOND
    1     1     2    1
    2     1     3    1
    3     1     4    1
    4     4     5    1
    5     4     6    1
    6     4     7    1
    7     7     8    1
    8     7     9    1
    9     7    10    1
   10    10    11    1
   11     1    12    1
   12    10    12    1
   13    12    13    1
   14    12    14    1
   15    10    15    1
   16    15    16    1
@<TRIPOS>SUBSTRUCTURE
       1 MOL1            1 RESIDUE      1      MOL     
@<SCITEGIC>MOL_PROPERTY
VConf Rank
SciTegic.value.IntegerValue
162

@<SCITEGIC>MOL_PROPERTY
Conf_Id
SciTegic.value.IntegerValue
20

@<SCITEGIC>MOL_PROPERTY
Delta U+W
SciTegic.value.DoubleValue
-0.483

@<SCITEGIC>MOL_PROPERTY
U+W
SciTegic.value.DoubleValue
2.527

@<SCITEGIC>MOL_PROPERTY
Grad RMS
SciTegic.value.DoubleValue
0.000000

@<SCITEGIC>MOL_PROPERTY
U
SciTegic.value.DoubleValue
4.508

@<SCITEGIC>MOL_PROPERTY
W
SciTegic.value.DoubleValue
-1.981

@<SCITEGIC>MOL_PROPERTY
W(PB)
SciTegic.value.DoubleValue
-3.712

@<SCITEGIC>MOL_PROPERTY
W(SA)
SciTegic.value.DoubleValue
1.732

@<SCITEGIC>MOL_PROPERTY
Valence
SciTegic.value.DoubleValue
14.705

@<SCITEGIC>MOL_PROPERTY
Coulomb
SciTegic.value.DoubleValue
-10.687

@<SCITEGIC>MOL_PROPERTY
VdW
SciTegic.value.DoubleValue
0.490

@<SCITEGIC>MOL_PROPERTY
VdW6
SciTegic.value.DoubleValue
-3.745

@<SCITEGIC>MOL_PROPERTY
VdW12
SciTegic.value.DoubleValue
4.235

@<SCITEGIC>MOL_PROPERTY
Bond
SciTegic.value.DoubleValue
0.068

@<SCITEGIC>MOL_PROPERTY
Angle
SciTegic.value.DoubleValue
3.901

@<SCITEGIC>MOL_PROPERTY
Pdih
SciTegic.value.DoubleValue
10.737

@<SCITEGIC>MOL_PROPERTY
Idih
SciTegic.value.DoubleValue
0.000

@<SCITEGIC>MOL_PROPERTY
Tether
SciTegic.value.DoubleValue
0.000

@<TRIPOS>MOLECULE
guest-4_confgen4.mol2 : confsearch ligand conformer 163
          16          16           1
SMALL
USER_CHARGES
 
@<TRIPOS>ATOM
       1    C1      19.849286   17.446442   23.117614 C.3        1 MOL1        -0.1689
       2    H1      20.330847   16.766858   22.400717 H          1 MOL1         0.0830
       3    H2      19.989776   17.037306   24.127324 H          1 MOL1         0.0830
       4    C2      18.367578   17.612483   22.753334 C.3        1 MOL1        -0.1689
       5    H3      17.910139   16.669848   22.423261 H          1 MOL1         0.0830
       6    H4      17.810568   17.977051   23.627665 H          1 MOL1         0.0830
       7    C3      18.362561   18.684649   21.648349 C.3        1 MOL1        -0.1765
       8    H5      17.427777   19.259985   21.651926 H          1 MOL1         0.0830
       9    H6      18.454751   18.196789   20.668410 H          1 MOL1         0.0830
      10    C4      19.585574   19.587851   21.913198 C.3        1 MOL1         0.1214
      11    H7      19.257550   20.556426   22.317898 H          1 MOL1         0.0787
      12    C5      20.443522   18.859115   22.968045 C.3        1 MOL1        -0.1765
      13    H8      21.505238   18.823682   22.689609 H          1 MOL1         0.0830
      14    H9      20.366841   19.394156   23.923520 H          1 MOL1         0.0830
      15    O1      20.330657   19.769155   20.714921 O.3        1 MOL1        -0.5512
      16    H10     19.736901   20.223740   20.080620 H          1 MOL1         0.3776
@<TRIPOS>BOND
    1     1     2    1
    2     1     3    1
    3     1     4    1
    4     4     5    1
    5     4     6    1
    6     4     7    1
    7     7     8    1
    8     7     9    1
    9     7    10    1
   10    10    11    1
   11     1    12    1
   12    10    12    1
   13    12    13    1
   14    12    14    1
   15    10    15    1
   16    15    16    1
@<TRIPOS>SUBSTRUCTURE
       1 MOL1            1 RESIDUE      1      MOL     
@<SCITEGIC>MOL_PROPERTY
VConf Rank
SciTegic.value.IntegerValue
163

@<SCITEGIC>MOL_PROPERTY
Conf_Id
SciTegic.value.IntegerValue
59

@<SCITEGIC>MOL_PROPERTY
Delta U+W
SciTegic.value.DoubleValue
0.000

@<SCITEGIC>MOL_PROPERTY
U+W
SciTegic.value.DoubleValue
3.010

@<SCITEGIC>MOL_PROPERTY
Grad RMS
SciTegic.value.DoubleValue
0.000000

@<SCITEGIC>MOL_PROPERTY
U
SciTegic.value.DoubleValue
5.843

@<SCITEGIC>MOL_PROPERTY
W
SciTegic.value.DoubleValue
-2.833

@<SCITEGIC>MOL_PROPERTY
W(PB)
SciTegic.value.DoubleValue
-4.568

@<SCITEGIC>MOL_PROPERTY
W(SA)
SciTegic.value.DoubleValue
1.735

@<SCITEGIC>MOL_PROPERTY
Valence
SciTegic.value.DoubleValue
13.789

@<SCITEGIC>MOL_PROPERTY
Coulomb
SciTegic.value.DoubleValue
-8.574

@<SCITEGIC>MOL_PROPERTY
VdW
SciTegic.value.DoubleValue
0.628

@<SCITEGIC>MOL_PROPERTY
VdW6
SciTegic.value.DoubleValue
-3.284

@<SCITEGIC>MOL_PROPERTY
VdW12
SciTegic.value.DoubleValue
3.912

@<SCITEGIC>MOL_PROPERTY
Bond
SciTegic.value.DoubleValue
0.054

@<SCITEGIC>MOL_PROPERTY
Angle
SciTegic.value.DoubleValue
4.034

@<SCITEGIC>MOL_PROPERTY
Pdih
SciTegic.value.DoubleValue
9.702

@<SCITEGIC>MOL_PROPERTY
Idih
SciTegic.value.DoubleValue
0.000

@<SCITEGIC>MOL_PROPERTY
Tether
SciTegic.value.DoubleValue
0.000

@<TRIPOS>MOLECULE
guest-4_confgen4.mol2 : confsearch ligand conformer 164
          16          16           1
SMALL
USER_CHARGES
 
@<TRIPOS>ATOM
       1    C1      20.548467   18.517823   21.370723 C.3        1 MOL1        -0.1689
       2    H1      20.910305   17.856222   20.571902 H          1 MOL1         0.0830
       3    H2      21.170462   19.423764   21.374629 H          1 MOL1         0.0830
       4    C2      20.601296   17.849366   22.751339 C.3        1 MOL1        -0.1689
       5    H3      20.297279   16.797022   22.662875 H          1 MOL1         0.0830
       6    H4      21.605788   17.881269   23.194759 H          1 MOL1         0.0830
       7    C3      19.563630   18.617025   23.590996 C.3        1 MOL1        -0.1765
       8    H5      20.048356   19.467089   24.088507 H          1 MOL1         0.0830
       9    H6      19.123593   17.980720   24.370420 H          1 MOL1         0.0830
      10    C4      18.505212   19.149270   22.602934 C.3        1 MOL1         0.1214
      11    H7      18.362839   20.227106   22.768820 H          1 MOL1         0.0787
      12    C5      19.068920   18.902563   21.187623 C.3        1 MOL1        -0.1765
      13    H8      18.534947   18.072978   20.704462 H          1 MOL1         0.0830
      14    H9      18.961114   19.789618   20.550162 H          1 MOL1         0.0830
      15    O1      17.279313   18.447559   22.772258 O.3        1 MOL1        -0.5512
      16    H10     16.651096   18.816517   22.115948 H          1 MOL1         0.3776
@<TRIPOS>BOND
    1     1     2    1
    2     1     3    1
    3     1     4    1
    4     4     5    1
    5     4     6    1
    6     4     7    1
    7     7     8    1
    8     7     9    1
    9     7    10    1
   10    10    11    1
   11     1    12    1
   12    10    12    1
   13    12    13    1
   14    12    14    1
   15    10    15    1
   16    15    16    1
@<TRIPOS>SUBSTRUCTURE
       1 MOL1            1 RESIDUE      1      MOL     
@<SCITEGIC>MOL_PROPERTY
VConf Rank
SciTegic.value.IntegerValue
164

@<SCITEGIC>MOL_PROPERTY
Conf_Id
SciTegic.value.IntegerValue
33

@<SCITEGIC>MOL_PROPERTY
Delta U+W
SciTegic.value.DoubleValue
0.015

@<SCITEGIC>MOL_PROPERTY
U+W
SciTegic.value.DoubleValue
3.025

@<SCITEGIC>MOL_PROPERTY
Grad RMS
SciTegic.value.DoubleValue
0.000000

@<SCITEGIC>MOL_PROPERTY
U
SciTegic.value.DoubleValue
5.843

@<SCITEGIC>MOL_PROPERTY
W
SciTegic.value.DoubleValue
-2.819

@<SCITEGIC>MOL_PROPERTY
W(PB)
SciTegic.value.DoubleValue
-4.568

@<SCITEGIC>MOL_PROPERTY
W(SA)
SciTegic.value.DoubleValue
1.750

@<SCITEGIC>MOL_PROPERTY
Valence
SciTegic.value.DoubleValue
13.789

@<SCITEGIC>MOL_PROPERTY
Coulomb
SciTegic.value.DoubleValue
-8.574

@<SCITEGIC>MOL_PROPERTY
VdW
SciTegic.value.DoubleValue
0.628

@<SCITEGIC>MOL_PROPERTY
VdW6
SciTegic.value.DoubleValue
-3.284

@<SCITEGIC>MOL_PROPERTY
VdW12
SciTegic.value.DoubleValue
3.913

@<SCITEGIC>MOL_PROPERTY
Bond
SciTegic.value.DoubleValue
0.054

@<SCITEGIC>MOL_PROPERTY
Angle
SciTegic.value.DoubleValue
4.033

@<SCITEGIC>MOL_PROPERTY
Pdih
SciTegic.value.DoubleValue
9.702

@<SCITEGIC>MOL_PROPERTY
Idih
SciTegic.value.DoubleValue
0.000

@<SCITEGIC>MOL_PROPERTY
Tether
SciTegic.value.DoubleValue
0.000

@<TRIPOS>MOLECULE
guest-4_confgen4.mol2 : confsearch ligand conformer 165
          16          16           1
SMALL
USER_CHARGES
 
@<TRIPOS>ATOM
       1    C1      19.165664   17.899611   21.146913 C.3        1 MOL1        -0.1689
       2    H1      19.957860   17.993931   20.391429 H          1 MOL1         0.0830
       3    H2      18.410404   17.205742   20.753054 H          1 MOL1         0.0830
       4    C2      18.559362   19.287626   21.448302 C.3        1 MOL1        -0.1689
       5    H3      19.057390   20.053543   20.837920 H          1 MOL1         0.0830
       6    H4      17.486685   19.319525   21.213048 H          1 MOL1         0.0830
       7    C3      18.806685   19.557002   22.947870 C.3        1 MOL1        -0.1765
       8    H5      17.904992   19.301691   23.520047 H          1 MOL1         0.0830
       9    H6      19.042282   20.610749   23.148163 H          1 MOL1         0.0830
      10    C4      19.945246   18.617099   23.366506 C.3        1 MOL1         0.1214
      11    H7      19.885528   18.359500   24.433773 H          1 MOL1         0.0787
      12    C5      19.755502   17.381836   22.475957 C.3        1 MOL1        -0.1765
      13    H8      20.692119   16.827908   22.327912 H          1 MOL1         0.0830
      14    H9      19.038197   16.703061   22.955916 H          1 MOL1         0.0830
      15    O1      21.191070   19.226722   23.061401 O.3        1 MOL1        -0.5512
      16    H10     21.152766   19.418218   22.101701 H          1 MOL1         0.3776
@<TRIPOS>BOND
    1     1     2    1
    2     1     3    1
    3     1     4    1
    4     4     5    1
    5     4     6    1
    6     4     7    1
    7     7     8    1
    8     7     9    1
    9     7    10    1
   10    10    11    1
   11     1    12    1
   12    10    12    1
   13    12    13    1
   14    12    14    1
   15    10    15    1
   16    15    16    1
@<TRIPOS>SUBSTRUCTURE
       1 MOL1            1 RESIDUE      1      MOL     
@<SCITEGIC>MOL_PROPERTY
VConf Rank
SciTegic.value.IntegerValue
165

@<SCITEGIC>MOL_PROPERTY
Conf_Id
SciTegic.value.IntegerValue
20

@<SCITEGIC>MOL_PROPERTY
Delta U+W
SciTegic.value.DoubleValue
-0.483

@<SCITEGIC>MOL_PROPERTY
U+W
SciTegic.value.DoubleValue
2.527

@<SCITEGIC>MOL_PROPERTY
Grad RMS
SciTegic.value.DoubleValue
0.000000

@<SCITEGIC>MOL_PROPERTY
U
SciTegic.value.DoubleValue
4.508

@<SCITEGIC>MOL_PROPERTY
W
SciTegic.value.DoubleValue
-1.981

@<SCITEGIC>MOL_PROPERTY
W(PB)
SciTegic.value.DoubleValue
-3.712

@<SCITEGIC>MOL_PROPERTY
W(SA)
SciTegic.value.DoubleValue
1.732

@<SCITEGIC>MOL_PROPERTY
Valence
SciTegic.value.DoubleValue
14.705

@<SCITEGIC>MOL_PROPERTY
Coulomb
SciTegic.value.DoubleValue
-10.687

@<SCITEGIC>MOL_PROPERTY
VdW
SciTegic.value.DoubleValue
0.490

@<SCITEGIC>MOL_PROPERTY
VdW6
SciTegic.value.DoubleValue
-3.745

@<SCITEGIC>MOL_PROPERTY
VdW12
SciTegic.value.DoubleValue
4.235

@<SCITEGIC>MOL_PROPERTY
Bond
SciTegic.value.DoubleValue
0.068

@<SCITEGIC>MOL_PROPERTY
Angle
SciTegic.value.DoubleValue
3.901

@<SCITEGIC>MOL_PROPERTY
Pdih
SciTegic.value.DoubleValue
10.737

@<SCITEGIC>MOL_PROPERTY
Idih
SciTegic.value.DoubleValue
0.000

@<SCITEGIC>MOL_PROPERTY
Tether
SciTegic.value.DoubleValue
0.000

@<TRIPOS>MOLECULE
guest-4_confgen4.mol2 : confsearch ligand conformer 166
          16          16           1
SMALL
USER_CHARGES
 
@<TRIPOS>ATOM
       1    C1      19.695645   19.793370   21.632993 C.3        1 MOL1        -0.1689
       2    H1      18.729170   20.246114   21.371028 H          1 MOL1         0.0830
       3    H2      20.493357   20.483280   21.325870 H          1 MOL1         0.0830
       4    C2      19.818631   18.418813   20.961282 C.3        1 MOL1        -0.1689
       5    H3      19.413899   18.414950   19.940039 H          1 MOL1         0.0830
       6    H4      20.876258   18.124356   20.912842 H          1 MOL1         0.0830
       7    C3      19.054715   17.465006   21.897893 C.3        1 MOL1        -0.1765
       8    H5      19.462852   16.447018   21.853489 H          1 MOL1         0.0830
       9    H6      18.001219   17.419892   21.589841 H          1 MOL1         0.0830
      10    C4      19.172012   18.061824   23.316247 C.3        1 MOL1         0.1214
      11    H7      19.875281   17.467503   23.917674 H          1 MOL1         0.0787
      12    C5      19.730449   19.489290   23.142116 C.3        1 MOL1        -0.1765
      13    H8      19.162096   20.232270   23.717422 H          1 MOL1         0.0830
      14    H9      20.768278   19.513652   23.499046 H          1 MOL1         0.0830
      15    O1      17.892715   18.107778   23.936873 O.3        1 MOL1        -0.5512
      16    H10     17.582989   17.180419   24.011756 H          1 MOL1         0.3776
@<TRIPOS>BOND
    1     1     2    1
    2     1     3    1
    3     1     4    1
    4     4     5    1
    5     4     6    1
    6     4     7    1
    7     7     8    1
    8     7     9    1
    9     7    10    1
   10    10    11    1
   11     1    12    1
   12    10    12    1
   13    12    13    1
   14    12    14    1
   15    10    15    1
   16    15    16    1
@<TRIPOS>SUBSTRUCTURE
       1 MOL1            1 RESIDUE      1      MOL     
@<SCITEGIC>MOL_PROPERTY
VConf Rank
SciTegic.value.IntegerValue
166

@<SCITEGIC>MOL_PROPERTY
Conf_Id
SciTegic.value.IntegerValue
59

@<SCITEGIC>MOL_PROPERTY
Delta U+W
SciTegic.value.DoubleValue
0.000

@<SCITEGIC>MOL_PROPERTY
U+W
SciTegic.value.DoubleValue
3.010

@<SCITEGIC>MOL_PROPERTY
Grad RMS
SciTegic.value.DoubleValue
0.000000

@<SCITEGIC>MOL_PROPERTY
U
SciTegic.value.DoubleValue
5.843

@<SCITEGIC>MOL_PROPERTY
W
SciTegic.value.DoubleValue
-2.833

@<SCITEGIC>MOL_PROPERTY
W(PB)
SciTegic.value.DoubleValue
-4.568

@<SCITEGIC>MOL_PROPERTY
W(SA)
SciTegic.value.DoubleValue
1.735

@<SCITEGIC>MOL_PROPERTY
Valence
SciTegic.value.DoubleValue
13.789

@<SCITEGIC>MOL_PROPERTY
Coulomb
SciTegic.value.DoubleValue
-8.574

@<SCITEGIC>MOL_PROPERTY
VdW
SciTegic.value.DoubleValue
0.628

@<SCITEGIC>MOL_PROPERTY
VdW6
SciTegic.value.DoubleValue
-3.284

@<SCITEGIC>MOL_PROPERTY
VdW12
SciTegic.value.DoubleValue
3.912

@<SCITEGIC>MOL_PROPERTY
Bond
SciTegic.value.DoubleValue
0.054

@<SCITEGIC>MOL_PROPERTY
Angle
SciTegic.value.DoubleValue
4.034

@<SCITEGIC>MOL_PROPERTY
Pdih
SciTegic.value.DoubleValue
9.702

@<SCITEGIC>MOL_PROPERTY
Idih
SciTegic.value.DoubleValue
0.000

@<SCITEGIC>MOL_PROPERTY
Tether
SciTegic.value.DoubleValue
0.000

@<TRIPOS>MOLECULE
guest-4_confgen4.mol2 : confsearch ligand conformer 167
          16          16           1
SMALL
USER_CHARGES
 
@<TRIPOS>ATOM
       1    C1      19.307520   17.231989   22.659225 C.3        1 MOL1        -0.1689
       2    H1      18.946141   16.288879   22.227127 H          1 MOL1         0.0830
       3    H2      19.795312   17.006138   23.617700 H          1 MOL1         0.0830
       4    C2      18.175269   18.243968   22.882005 C.3        1 MOL1        -0.1689
       5    H3      17.473545   18.203371   22.037248 H          1 MOL1         0.0830
       6    H4      17.613644   18.048582   23.805608 H          1 MOL1         0.0830
       7    C3      18.880281   19.612785   22.901369 C.3        1 MOL1        -0.1765
       8    H5      19.176273   19.860250   23.929102 H          1 MOL1         0.0830
       9    H6      18.219424   20.413080   22.542462 H          1 MOL1         0.0830
      10    C4      20.147756   19.466996   22.034160 C.3        1 MOL1         0.1214
      11    H7      21.019390   19.824188   22.601776 H          1 MOL1         0.0787
      12    C5      20.295938   17.961098   21.730764 C.3        1 MOL1        -0.1765
      13    H8      20.030771   17.755636   20.684699 H          1 MOL1         0.0830
      14    H9      21.325685   17.616625   21.891410 H          1 MOL1         0.0830
      15    O1      20.000715   20.199514   20.823502 O.3        1 MOL1        -0.5512
      16    H10     20.824951   20.062813   20.310201 H          1 MOL1         0.3776
@<TRIPOS>BOND
    1     1     2    1
    2     1     3    1
    3     1     4    1
    4     4     5    1
    5     4     6    1
    6     4     7    1
    7     7     8    1
    8     7     9    1
    9     7    10    1
   10    10    11    1
   11     1    12    1
   12    10    12    1
   13    12    13    1
   14    12    14    1
   15    10    15    1
   16    15    16    1
@<TRIPOS>SUBSTRUCTURE
       1 MOL1            1 RESIDUE      1      MOL     
@<SCITEGIC>MOL_PROPERTY
VConf Rank
SciTegic.value.IntegerValue
167

@<SCITEGIC>MOL_PROPERTY
Conf_Id
SciTegic.value.IntegerValue
33

@<SCITEGIC>MOL_PROPERTY
Delta U+W
SciTegic.value.DoubleValue
0.015

@<SCITEGIC>MOL_PROPERTY
U+W
SciTegic.value.DoubleValue
3.025

@<SCITEGIC>MOL_PROPERTY
Grad RMS
SciTegic.value.DoubleValue
0.000000

@<SCITEGIC>MOL_PROPERTY
U
SciTegic.value.DoubleValue
5.843

@<SCITEGIC>MOL_PROPERTY
W
SciTegic.value.DoubleValue
-2.819

@<SCITEGIC>MOL_PROPERTY
W(PB)
SciTegic.value.DoubleValue
-4.568

@<SCITEGIC>MOL_PROPERTY
W(SA)
SciTegic.value.DoubleValue
1.750

@<SCITEGIC>MOL_PROPERTY
Valence
SciTegic.value.DoubleValue
13.789

@<SCITEGIC>MOL_PROPERTY
Coulomb
SciTegic.value.DoubleValue
-8.574

@<SCITEGIC>MOL_PROPERTY
VdW
SciTegic.value.DoubleValue
0.628

@<SCITEGIC>MOL_PROPERTY
VdW6
SciTegic.value.DoubleValue
-3.284

@<SCITEGIC>MOL_PROPERTY
VdW12
SciTegic.value.DoubleValue
3.913

@<SCITEGIC>MOL_PROPERTY
Bond
SciTegic.value.DoubleValue
0.054

@<SCITEGIC>MOL_PROPERTY
Angle
SciTegic.value.DoubleValue
4.033

@<SCITEGIC>MOL_PROPERTY
Pdih
SciTegic.value.DoubleValue
9.702

@<SCITEGIC>MOL_PROPERTY
Idih
SciTegic.value.DoubleValue
0.000

@<SCITEGIC>MOL_PROPERTY
Tether
SciTegic.value.DoubleValue
0.000

@<TRIPOS>MOLECULE
guest-4_confgen4.mol2 : confsearch ligand conformer 168
          16          16           1
SMALL
USER_CHARGES
 
@<TRIPOS>ATOM
       1    C1      18.268207   19.346273   22.153055 C.3        1 MOL1        -0.1689
       2    H1      18.415388   20.319160   21.664123 H          1 MOL1         0.0830
       3    H2      17.202639   19.257971   22.405575 H          1 MOL1         0.0830
       4    C2      19.159656   19.250169   23.410475 C.3        1 MOL1        -0.1689
       5    H3      19.737473   20.176939   23.530688 H          1 MOL1         0.0830
       6    H4      18.560440   19.110570   24.320668 H          1 MOL1         0.0830
       7    C3      20.109781   18.055183   23.183079 C.3        1 MOL1        -0.1765
       8    H5      19.709449   17.166751   23.689087 H          1 MOL1         0.0830
       9    H6      21.115959   18.241709   23.581600 H          1 MOL1         0.0830
      10    C4      20.121592   17.803525   21.669302 C.3        1 MOL1         0.1214
      11    H7      20.337885   16.751068   21.435775 H          1 MOL1         0.0787
      12    C5      18.712300   18.204988   21.213584 C.3        1 MOL1        -0.1765
      13    H8      18.685658   18.501740   20.156591 H          1 MOL1         0.0830
      14    H9      18.039601   17.345921   21.336475 H          1 MOL1         0.0830
      15    O1      21.073047   18.663644   21.059601 O.3        1 MOL1        -0.5512
      16    H10     20.802678   19.568151   21.320237 H          1 MOL1         0.3776
@<TRIPOS>BOND
    1     1     2    1
    2     1     3    1
    3     1     4    1
    4     4     5    1
    5     4     6    1
    6     4     7    1
    7     7     8    1
    8     7     9    1
    9     7    10    1
   10    10    11    1
   11     1    12    1
   12    10    12    1
   13    12    13    1
   14    12    14    1
   15    10    15    1
   16    15    16    1
@<TRIPOS>SUBSTRUCTURE
       1 MOL1            1 RESIDUE      1      MOL     
@<SCITEGIC>MOL_PROPERTY
VConf Rank
SciTegic.value.IntegerValue
168

@<SCITEGIC>MOL_PROPERTY
Conf_Id
SciTegic.value.IntegerValue
20

@<SCITEGIC>MOL_PROPERTY
Delta U+W
SciTegic.value.DoubleValue
-0.483

@<SCITEGIC>MOL_PROPERTY
U+W
SciTegic.value.DoubleValue
2.527

@<SCITEGIC>MOL_PROPERTY
Grad RMS
SciTegic.value.DoubleValue
0.000000

@<SCITEGIC>MOL_PROPERTY
U
SciTegic.value.DoubleValue
4.508

@<SCITEGIC>MOL_PROPERTY
W
SciTegic.value.DoubleValue
-1.981

@<SCITEGIC>MOL_PROPERTY
W(PB)
SciTegic.value.DoubleValue
-3.712

@<SCITEGIC>MOL_PROPERTY
W(SA)
SciTegic.value.DoubleValue
1.732

@<SCITEGIC>MOL_PROPERTY
Valence
SciTegic.value.DoubleValue
14.705

@<SCITEGIC>MOL_PROPERTY
Coulomb
SciTegic.value.DoubleValue
-10.687

@<SCITEGIC>MOL_PROPERTY
VdW
SciTegic.value.DoubleValue
0.490

@<SCITEGIC>MOL_PROPERTY
VdW6
SciTegic.value.DoubleValue
-3.745

@<SCITEGIC>MOL_PROPERTY
VdW12
SciTegic.value.DoubleValue
4.235

@<SCITEGIC>MOL_PROPERTY
Bond
SciTegic.value.DoubleValue
0.068

@<SCITEGIC>MOL_PROPERTY
Angle
SciTegic.value.DoubleValue
3.901

@<SCITEGIC>MOL_PROPERTY
Pdih
SciTegic.value.DoubleValue
10.737

@<SCITEGIC>MOL_PROPERTY
Idih
SciTegic.value.DoubleValue
0.000

@<SCITEGIC>MOL_PROPERTY
Tether
SciTegic.value.DoubleValue
0.000

@<TRIPOS>MOLECULE
guest-4_confgen4.mol2 : confsearch ligand conformer 169
          16          16           1
SMALL
USER_CHARGES
 
@<TRIPOS>ATOM
       1    C1      19.326160   18.967418   23.707657 C.3        1 MOL1        -0.1689
       2    H1      18.948289   19.999194   23.689543 H          1 MOL1         0.0830
       3    H2      19.463651   18.669663   24.756028 H          1 MOL1         0.0830
       4    C2      20.627594   18.882027   22.898519 C.3        1 MOL1        -0.1689
       5    H3      21.272957   19.757773   23.051278 H          1 MOL1         0.0830
       6    H4      21.189258   17.985340   23.195353 H          1 MOL1         0.0830
       7    C3      20.161960   18.745078   21.437360 C.3        1 MOL1        -0.1765
       8    H5      20.887888   18.182655   20.836066 H          1 MOL1         0.0830
       9    H6      20.058838   19.744761   20.993755 H          1 MOL1         0.0830
      10    C4      18.791956   18.036019   21.482142 C.3        1 MOL1         0.1214
      11    H7      18.895306   16.995631   21.140924 H          1 MOL1         0.0787
      12    C5      18.345677   18.045993   22.958818 C.3        1 MOL1        -0.1765
      13    H8      17.306223   18.379735   23.077866 H          1 MOL1         0.0830
      14    H9      18.417145   17.027154   23.361236 H          1 MOL1         0.0830
      15    O1      17.849549   18.737717   20.680034 O.3        1 MOL1        -0.5512
      16    H10     18.187117   18.709375   19.759829 H          1 MOL1         0.3776
@<TRIPOS>BOND
    1     1     2    1
    2     1     3    1
    3     1     4    1
    4     4     5    1
    5     4     6    1
    6     4     7    1
    7     7     8    1
    8     7     9    1
    9     7    10    1
   10    10    11    1
   11     1    12    1
   12    10    12    1
   13    12    13    1
   14    12    14    1
   15    10    15    1
   16    15    16    1
@<TRIPOS>SUBSTRUCTURE
       1 MOL1            1 RESIDUE      1      MOL     
@<SCITEGIC>MOL_PROPERTY
VConf Rank
SciTegic.value.IntegerValue
169

@<SCITEGIC>MOL_PROPERTY
Conf_Id
SciTegic.value.IntegerValue
59

@<SCITEGIC>MOL_PROPERTY
Delta U+W
SciTegic.value.DoubleValue
0.000

@<SCITEGIC>MOL_PROPERTY
U+W
SciTegic.value.DoubleValue
3.010

@<SCITEGIC>MOL_PROPERTY
Grad RMS
SciTegic.value.DoubleValue
0.000000

@<SCITEGIC>MOL_PROPERTY
U
SciTegic.value.DoubleValue
5.843

@<SCITEGIC>MOL_PROPERTY
W
SciTegic.value.DoubleValue
-2.833

@<SCITEGIC>MOL_PROPERTY
W(PB)
SciTegic.value.DoubleValue
-4.568

@<SCITEGIC>MOL_PROPERTY
W(SA)
SciTegic.value.DoubleValue
1.735

@<SCITEGIC>MOL_PROPERTY
Valence
SciTegic.value.DoubleValue
13.789

@<SCITEGIC>MOL_PROPERTY
Coulomb
SciTegic.value.DoubleValue
-8.574

@<SCITEGIC>MOL_PROPERTY
VdW
SciTegic.value.DoubleValue
0.628

@<SCITEGIC>MOL_PROPERTY
VdW6
SciTegic.value.DoubleValue
-3.284

@<SCITEGIC>MOL_PROPERTY
VdW12
SciTegic.value.DoubleValue
3.912

@<SCITEGIC>MOL_PROPERTY
Bond
SciTegic.value.DoubleValue
0.054

@<SCITEGIC>MOL_PROPERTY
Angle
SciTegic.value.DoubleValue
4.034

@<SCITEGIC>MOL_PROPERTY
Pdih
SciTegic.value.DoubleValue
9.702

@<SCITEGIC>MOL_PROPERTY
Idih
SciTegic.value.DoubleValue
0.000

@<SCITEGIC>MOL_PROPERTY
Tether
SciTegic.value.DoubleValue
0.000

@<TRIPOS>MOLECULE
guest-4_confgen4.mol2 : confsearch ligand conformer 170
          16          16           1
SMALL
USER_CHARGES
 
@<TRIPOS>ATOM
       1    C1      18.251517   19.361430   22.533278 C.3        1 MOL1        -0.1689
       2    H1      17.931431   20.280162   23.043411 H          1 MOL1         0.0830
       3    H2      17.400809   18.975648   21.954409 H          1 MOL1         0.0830
       4    C2      18.737186   18.286884   23.515725 C.3        1 MOL1        -0.1689
       5    H3      19.319847   18.758769   24.319161 H          1 MOL1         0.0830
       6    H4      17.907569   17.730922   23.973202 H          1 MOL1         0.0830
       7    C3      19.656988   17.383014   22.674262 C.3        1 MOL1        -0.1765
       8    H5      19.067462   16.572618   22.226152 H          1 MOL1         0.0830
       9    H6      20.443667   16.923734   23.287627 H          1 MOL1         0.0830
      10    C4      20.233090   18.267396   21.549197 C.3        1 MOL1         0.1214
      11    H7      20.072265   17.773001   20.580059 H          1 MOL1         0.0787
      12    C5      19.452631   19.597845   21.599445 C.3        1 MOL1        -0.1765
      13    H8      20.084644   20.394463   22.015067 H          1 MOL1         0.0830
      14    H9      19.127341   19.912747   20.599511 H          1 MOL1         0.0830
      15    O1      21.618587   18.502364   21.770749 O.3        1 MOL1        -0.5512
      16    H10     21.927581   19.074915   21.037102 H          1 MOL1         0.3776
@<TRIPOS>BOND
    1     1     2    1
    2     1     3    1
    3     1     4    1
    4     4     5    1
    5     4     6    1
    6     4     7    1
    7     7     8    1
    8     7     9    1
    9     7    10    1
   10    10    11    1
   11     1    12    1
   12    10    12    1
   13    12    13    1
   14    12    14    1
   15    10    15    1
   16    15    16    1
@<TRIPOS>SUBSTRUCTURE
       1 MOL1            1 RESIDUE      1      MOL     
@<SCITEGIC>MOL_PROPERTY
VConf Rank
SciTegic.value.IntegerValue
170

@<SCITEGIC>MOL_PROPERTY
Conf_Id
SciTegic.value.IntegerValue
33

@<SCITEGIC>MOL_PROPERTY
Delta U+W
SciTegic.value.DoubleValue
0.015

@<SCITEGIC>MOL_PROPERTY
U+W
SciTegic.value.DoubleValue
3.025

@<SCITEGIC>MOL_PROPERTY
Grad RMS
SciTegic.value.DoubleValue
0.000000

@<SCITEGIC>MOL_PROPERTY
U
SciTegic.value.DoubleValue
5.843

@<SCITEGIC>MOL_PROPERTY
W
SciTegic.value.DoubleValue
-2.819

@<SCITEGIC>MOL_PROPERTY
W(PB)
SciTegic.value.DoubleValue
-4.568

@<SCITEGIC>MOL_PROPERTY
W(SA)
SciTegic.value.DoubleValue
1.750

@<SCITEGIC>MOL_PROPERTY
Valence
SciTegic.value.DoubleValue
13.789

@<SCITEGIC>MOL_PROPERTY
Coulomb
SciTegic.value.DoubleValue
-8.574

@<SCITEGIC>MOL_PROPERTY
VdW
SciTegic.value.DoubleValue
0.628

@<SCITEGIC>MOL_PROPERTY
VdW6
SciTegic.value.DoubleValue
-3.284

@<SCITEGIC>MOL_PROPERTY
VdW12
SciTegic.value.DoubleValue
3.913

@<SCITEGIC>MOL_PROPERTY
Bond
SciTegic.value.DoubleValue
0.054

@<SCITEGIC>MOL_PROPERTY
Angle
SciTegic.value.DoubleValue
4.033

@<SCITEGIC>MOL_PROPERTY
Pdih
SciTegic.value.DoubleValue
9.702

@<SCITEGIC>MOL_PROPERTY
Idih
SciTegic.value.DoubleValue
0.000

@<SCITEGIC>MOL_PROPERTY
Tether
SciTegic.value.DoubleValue
0.000

@<TRIPOS>MOLECULE
guest-4_confgen4.mol2 : confsearch ligand conformer 171
          16          16           1
SMALL
USER_CHARGES
 
@<TRIPOS>ATOM
       1    C1      19.586902   19.697570   23.005858 C.3        1 MOL1        -0.1689
       2    H1      18.772981   20.434723   22.968923 H          1 MOL1         0.0830
       3    H2      20.355411   20.083585   23.689512 H          1 MOL1         0.0830
       4    C2      20.152392   19.468012   21.587216 C.3        1 MOL1        -0.1689
       5    H3      19.612873   20.094839   20.863867 H          1 MOL1         0.0830
       6    H4      21.217005   19.732993   21.529033 H          1 MOL1         0.0830
       7    C3      19.934104   17.974269   21.265473 C.3        1 MOL1        -0.1765
       8    H5      20.858322   17.416737   21.466969 H          1 MOL1         0.0830
       9    H6      19.667439   17.809839   20.212925 H          1 MOL1         0.0830
      10    C4      18.839673   17.488213   22.225141 C.3        1 MOL1         0.1214
      11    H7      18.935350   16.413521   22.436957 H          1 MOL1         0.0787
      12    C5      19.049253   18.333652   23.488576 C.3        1 MOL1        -0.1765
      13    H8      18.128856   18.434395   24.079105 H          1 MOL1         0.0830
      14    H9      19.801526   17.846438   24.122871 H          1 MOL1         0.0830
      15    O1      17.566197   17.783867   21.670476 O.3        1 MOL1        -0.5512
      16    H10     17.573469   18.751110   21.517014 H          1 MOL1         0.3776
@<TRIPOS>BOND
    1     1     2    1
    2     1     3    1
    3     1     4    1
    4     4     5    1
    5     4     6    1
    6     4     7    1
    7     7     8    1
    8     7     9    1
    9     7    10    1
   10    10    11    1
   11     1    12    1
   12    10    12    1
   13    12    13    1
   14    12    14    1
   15    10    15    1
   16    15    16    1
@<TRIPOS>SUBSTRUCTURE
       1 MOL1            1 RESIDUE      1      MOL     
@<SCITEGIC>MOL_PROPERTY
VConf Rank
SciTegic.value.IntegerValue
171

@<SCITEGIC>MOL_PROPERTY
Conf_Id
SciTegic.value.IntegerValue
20

@<SCITEGIC>MOL_PROPERTY
Delta U+W
SciTegic.value.DoubleValue
-0.483

@<SCITEGIC>MOL_PROPERTY
U+W
SciTegic.value.DoubleValue
2.527

@<SCITEGIC>MOL_PROPERTY
Grad RMS
SciTegic.value.DoubleValue
0.000000

@<SCITEGIC>MOL_PROPERTY
U
SciTegic.value.DoubleValue
4.508

@<SCITEGIC>MOL_PROPERTY
W
SciTegic.value.DoubleValue
-1.981

@<SCITEGIC>MOL_PROPERTY
W(PB)
SciTegic.value.DoubleValue
-3.712

@<SCITEGIC>MOL_PROPERTY
W(SA)
SciTegic.value.DoubleValue
1.732

@<SCITEGIC>MOL_PROPERTY
Valence
SciTegic.value.DoubleValue
14.705

@<SCITEGIC>MOL_PROPERTY
Coulomb
SciTegic.value.DoubleValue
-10.687

@<SCITEGIC>MOL_PROPERTY
VdW
SciTegic.value.DoubleValue
0.490

@<SCITEGIC>MOL_PROPERTY
VdW6
SciTegic.value.DoubleValue
-3.745

@<SCITEGIC>MOL_PROPERTY
VdW12
SciTegic.value.DoubleValue
4.235

@<SCITEGIC>MOL_PROPERTY
Bond
SciTegic.value.DoubleValue
0.068

@<SCITEGIC>MOL_PROPERTY
Angle
SciTegic.value.DoubleValue
3.901

@<SCITEGIC>MOL_PROPERTY
Pdih
SciTegic.value.DoubleValue
10.737

@<SCITEGIC>MOL_PROPERTY
Idih
SciTegic.value.DoubleValue
0.000

@<SCITEGIC>MOL_PROPERTY
Tether
SciTegic.value.DoubleValue
0.000

@<TRIPOS>MOLECULE
guest-4_confgen4.mol2 : confsearch ligand conformer 172
          16          16           1
SMALL
USER_CHARGES
 
@<TRIPOS>ATOM
       1    C1      19.927013   18.699869   23.644113 C.3        1 MOL1        -0.1689
       2    H1      20.989952   18.446196   23.527974 H          1 MOL1         0.0830
       3    H2      19.758111   19.006132   24.685420 H          1 MOL1         0.0830
       4    C2      19.063959   17.496869   23.239570 C.3        1 MOL1        -0.1689
       5    H3      19.491376   16.543168   23.577989 H          1 MOL1         0.0830
       6    H4      18.060721   17.598065   23.676490 H          1 MOL1         0.0830
       7    C3      18.975454   17.587601   21.705135 C.3        1 MOL1        -0.1765
       8    H5      18.037909   17.156275   21.331219 H          1 MOL1         0.0830
       9    H6      19.807083   17.025012   21.259409 H          1 MOL1         0.0830
      10    C4      19.092082   19.085054   21.350576 C.3        1 MOL1         0.1214
      11    H7      18.111230   19.476708   21.043893 H          1 MOL1         0.0787
      12    C5      19.547119   19.802262   22.638359 C.3        1 MOL1        -0.1765
      13    H8      20.383316   20.491084   22.458579 H          1 MOL1         0.0830
      14    H9      18.709671   20.390577   23.035407 H          1 MOL1         0.0830
      15    O1      20.053766   19.271851   20.318995 O.3        1 MOL1        -0.5512
      16    H10     19.720805   18.788811   19.533284 H          1 MOL1         0.3776
@<TRIPOS>BOND
    1     1     2    1
    2     1     3    1
    3     1     4    1
    4     4     5    1
    5     4     6    1
    6     4     7    1
    7     7     8    1
    8     7     9    1
    9     7    10    1
   10    10    11    1
   11     1    12    1
   12    10    12    1
   13    12    13    1
   14    12    14    1
   15    10    15    1
   16    15    16    1
@<TRIPOS>SUBSTRUCTURE
       1 MOL1            1 RESIDUE      1      MOL     
@<SCITEGIC>MOL_PROPERTY
VConf Rank
SciTegic.value.IntegerValue
172

@<SCITEGIC>MOL_PROPERTY
Conf_Id
SciTegic.value.IntegerValue
59

@<SCITEGIC>MOL_PROPERTY
Delta U+W
SciTegic.value.DoubleValue
0.000

@<SCITEGIC>MOL_PROPERTY
U+W
SciTegic.value.DoubleValue
3.010

@<SCITEGIC>MOL_PROPERTY
Grad RMS
SciTegic.value.DoubleValue
0.000000

@<SCITEGIC>MOL_PROPERTY
U
SciTegic.value.DoubleValue
5.843

@<SCITEGIC>MOL_PROPERTY
W
SciTegic.value.DoubleValue
-2.833

@<SCITEGIC>MOL_PROPERTY
W(PB)
SciTegic.value.DoubleValue
-4.568

@<SCITEGIC>MOL_PROPERTY
W(SA)
SciTegic.value.DoubleValue
1.735

@<SCITEGIC>MOL_PROPERTY
Valence
SciTegic.value.DoubleValue
13.789

@<SCITEGIC>MOL_PROPERTY
Coulomb
SciTegic.value.DoubleValue
-8.574

@<SCITEGIC>MOL_PROPERTY
VdW
SciTegic.value.DoubleValue
0.628

@<SCITEGIC>MOL_PROPERTY
VdW6
SciTegic.value.DoubleValue
-3.284

@<SCITEGIC>MOL_PROPERTY
VdW12
SciTegic.value.DoubleValue
3.912

@<SCITEGIC>MOL_PROPERTY
Bond
SciTegic.value.DoubleValue
0.054

@<SCITEGIC>MOL_PROPERTY
Angle
SciTegic.value.DoubleValue
4.034

@<SCITEGIC>MOL_PROPERTY
Pdih
SciTegic.value.DoubleValue
9.702

@<SCITEGIC>MOL_PROPERTY
Idih
SciTegic.value.DoubleValue
0.000

@<SCITEGIC>MOL_PROPERTY
Tether
SciTegic.value.DoubleValue
0.000

@<TRIPOS>MOLECULE
guest-4_confgen4.mol2 : confsearch ligand conformer 173
          16          16           1
SMALL
USER_CHARGES
 
@<TRIPOS>ATOM
       1    C1      20.256639   18.437857   21.116489 C.3        1 MOL1        -0.1689
       2    H1      20.730854   17.628843   20.544321 H          1 MOL1         0.0830
       3    H2      20.351860   19.368263   20.539515 H          1 MOL1         0.0830
       4    C2      20.890560   18.622447   22.502056 C.3        1 MOL1        -0.1689
       5    H3      21.121347   17.639276   22.935405 H          1 MOL1         0.0830
       6    H4      21.819008   19.208259   22.463975 H          1 MOL1         0.0830
       7    C3      19.795595   19.310281   23.338126 C.3        1 MOL1        -0.1765
       8    H5      19.895701   20.400013   23.251256 H          1 MOL1         0.0830
       9    H6      19.876897   19.051389   24.402261 H          1 MOL1         0.0830
      10    C4      18.443872   18.879453   22.732295 C.3        1 MOL1         0.1214
      11    H7      17.834301   19.772676   22.532056 H          1 MOL1         0.0787
      12    C5      18.771515   18.156013   21.409033 C.3        1 MOL1        -0.1765
      13    H8      18.622220   17.073342   21.520009 H          1 MOL1         0.0830
      14    H9      18.128535   18.502750   20.589767 H          1 MOL1         0.0830
      15    O1      17.767541   17.996961   23.619809 O.3        1 MOL1        -0.5512
      16    H10     16.926171   17.748088   23.181987 H          1 MOL1         0.3776
@<TRIPOS>BOND
    1     1     2    1
    2     1     3    1
    3     1     4    1
    4     4     5    1
    5     4     6    1
    6     4     7    1
    7     7     8    1
    8     7     9    1
    9     7    10    1
   10    10    11    1
   11     1    12    1
   12    10    12    1
   13    12    13    1
   14    12    14    1
   15    10    15    1
   16    15    16    1
@<TRIPOS>SUBSTRUCTURE
       1 MOL1            1 RESIDUE      1      MOL     
@<SCITEGIC>MOL_PROPERTY
VConf Rank
SciTegic.value.IntegerValue
173

@<SCITEGIC>MOL_PROPERTY
Conf_Id
SciTegic.value.IntegerValue
33

@<SCITEGIC>MOL_PROPERTY
Delta U+W
SciTegic.value.DoubleValue
0.015

@<SCITEGIC>MOL_PROPERTY
U+W
SciTegic.value.DoubleValue
3.025

@<SCITEGIC>MOL_PROPERTY
Grad RMS
SciTegic.value.DoubleValue
0.000000

@<SCITEGIC>MOL_PROPERTY
U
SciTegic.value.DoubleValue
5.843

@<SCITEGIC>MOL_PROPERTY
W
SciTegic.value.DoubleValue
-2.819

@<SCITEGIC>MOL_PROPERTY
W(PB)
SciTegic.value.DoubleValue
-4.568

@<SCITEGIC>MOL_PROPERTY
W(SA)
SciTegic.value.DoubleValue
1.750

@<SCITEGIC>MOL_PROPERTY
Valence
SciTegic.value.DoubleValue
13.789

@<SCITEGIC>MOL_PROPERTY
Coulomb
SciTegic.value.DoubleValue
-8.574

@<SCITEGIC>MOL_PROPERTY
VdW
SciTegic.value.DoubleValue
0.628

@<SCITEGIC>MOL_PROPERTY
VdW6
SciTegic.value.DoubleValue
-3.284

@<SCITEGIC>MOL_PROPERTY
VdW12
SciTegic.value.DoubleValue
3.913

@<SCITEGIC>MOL_PROPERTY
Bond
SciTegic.value.DoubleValue
0.054

@<SCITEGIC>MOL_PROPERTY
Angle
SciTegic.value.DoubleValue
4.033

@<SCITEGIC>MOL_PROPERTY
Pdih
SciTegic.value.DoubleValue
9.702

@<SCITEGIC>MOL_PROPERTY
Idih
SciTegic.value.DoubleValue
0.000

@<SCITEGIC>MOL_PROPERTY
Tether
SciTegic.value.DoubleValue
0.000

@<TRIPOS>MOLECULE
guest-4_confgen4.mol2 : confsearch ligand conformer 174
          16          16           1
SMALL
USER_CHARGES
 
@<TRIPOS>ATOM
       1    C1      19.200667   18.046250   21.060062 C.3        1 MOL1        -0.1689
       2    H1      20.109240   17.997461   20.444154 H          1 MOL1         0.0830
       3    H2      18.385450   17.581312   20.488878 H          1 MOL1         0.0830
       4    C2      18.882054   19.516161   21.410584 C.3        1 MOL1        -0.1689
       5    H3      19.635813   20.178838   20.963445 H          1 MOL1         0.0830
       6    H4      17.899691   19.819843   21.023621 H          1 MOL1         0.0830
       7    C3      18.927820   19.618807   22.950002 C.3        1 MOL1        -0.1765
       8    H5      17.908647   19.550021   23.352711 H          1 MOL1         0.0830
       9    H6      19.358403   20.569715   23.291146 H          1 MOL1         0.0830
      10    C4      19.737220   18.407760   23.432940 C.3        1 MOL1         0.1214
      11    H7      19.442018   18.102157   24.447063 H          1 MOL1         0.0787
      12    C5      19.425786   17.315590   22.400889 C.3        1 MOL1        -0.1765
      13    H8      20.224097   16.564211   22.336591 H          1 MOL1         0.0830
      14    H9      18.503301   16.798513   22.696309 H          1 MOL1         0.0830
      15    O1      21.121722   18.719567   23.380611 O.3        1 MOL1        -0.5512
      16    H10     21.289823   18.977556   22.450909 H          1 MOL1         0.3776
@<TRIPOS>BOND
    1     1     2    1
    2     1     3    1
    3     1     4    1
    4     4     5    1
    5     4     6    1
    6     4     7    1
    7     7     8    1
    8     7     9    1
    9     7    10    1
   10    10    11    1
   11     1    12    1
   12    10    12    1
   13    12    13    1
   14    12    14    1
   15    10    15    1
   16    15    16    1
@<TRIPOS>SUBSTRUCTURE
       1 MOL1            1 RESIDUE      1      MOL     
@<SCITEGIC>MOL_PROPERTY
VConf Rank
SciTegic.value.IntegerValue
174

@<SCITEGIC>MOL_PROPERTY
Conf_Id
SciTegic.value.IntegerValue
20

@<SCITEGIC>MOL_PROPERTY
Delta U+W
SciTegic.value.DoubleValue
-0.483

@<SCITEGIC>MOL_PROPERTY
U+W
SciTegic.value.DoubleValue
2.527

@<SCITEGIC>MOL_PROPERTY
Grad RMS
SciTegic.value.DoubleValue
0.000000

@<SCITEGIC>MOL_PROPERTY
U
SciTegic.value.DoubleValue
4.508

@<SCITEGIC>MOL_PROPERTY
W
SciTegic.value.DoubleValue
-1.981

@<SCITEGIC>MOL_PROPERTY
W(PB)
SciTegic.value.DoubleValue
-3.712

@<SCITEGIC>MOL_PROPERTY
W(SA)
SciTegic.value.DoubleValue
1.732

@<SCITEGIC>MOL_PROPERTY
Valence
SciTegic.value.DoubleValue
14.705

@<SCITEGIC>MOL_PROPERTY
Coulomb
SciTegic.value.DoubleValue
-10.687

@<SCITEGIC>MOL_PROPERTY
VdW
SciTegic.value.DoubleValue
0.490

@<SCITEGIC>MOL_PROPERTY
VdW6
SciTegic.value.DoubleValue
-3.745

@<SCITEGIC>MOL_PROPERTY
VdW12
SciTegic.value.DoubleValue
4.235

@<SCITEGIC>MOL_PROPERTY
Bond
SciTegic.value.DoubleValue
0.068

@<SCITEGIC>MOL_PROPERTY
Angle
SciTegic.value.DoubleValue
3.901

@<SCITEGIC>MOL_PROPERTY
Pdih
SciTegic.value.DoubleValue
10.737

@<SCITEGIC>MOL_PROPERTY
Idih
SciTegic.value.DoubleValue
0.000

@<SCITEGIC>MOL_PROPERTY
Tether
SciTegic.value.DoubleValue
0.000

@<TRIPOS>MOLECULE
guest-4_confgen4.mol2 : confsearch ligand conformer 175
          16          16           1
SMALL
USER_CHARGES
 
@<TRIPOS>ATOM
       1    C1      20.001094   19.784863   21.883472 C.3        1 MOL1        -0.1689
       2    H1      20.718688   19.475393   21.110838 H          1 MOL1         0.0830
       3    H2      20.031368   20.880082   21.962355 H          1 MOL1         0.0830
       4    C2      20.342608   19.091965   23.209741 C.3        1 MOL1        -0.1689
       5    H3      21.425476   19.038447   23.386641 H          1 MOL1         0.0830
       6    H4      19.885119   19.643008   24.043217 H          1 MOL1         0.0830
       7    C3      19.698776   17.698446   23.090830 C.3        1 MOL1        -0.1765
       8    H5      19.411617   17.304026   24.074100 H          1 MOL1         0.0830
       9    H6      20.421495   17.001184   22.645535 H          1 MOL1         0.0830
      10    C4      18.474389   17.862563   22.165832 C.3        1 MOL1         0.1214
      11    H7      17.547669   17.814864   22.756114 H          1 MOL1         0.0787
      12    C5      18.598636   19.260094   21.524503 C.3        1 MOL1        -0.1765
      13    H8      18.442154   19.235421   20.437799 H          1 MOL1         0.0830
      14    H9      17.836142   19.921226   21.956464 H          1 MOL1         0.0830
      15    O1      18.481983   16.858032   21.158484 O.3        1 MOL1        -0.5512
      16    H10     18.412350   15.995921   21.620489 H          1 MOL1         0.3776
@<TRIPOS>BOND
    1     1     2    1
    2     1     3    1
    3     1     4    1
    4     4     5    1
    5     4     6    1
    6     4     7    1
    7     7     8    1
    8     7     9    1
    9     7    10    1
   10    10    11    1
   11     1    12    1
   12    10    12    1
   13    12    13    1
   14    12    14    1
   15    10    15    1
   16    15    16    1
@<TRIPOS>SUBSTRUCTURE
       1 MOL1            1 RESIDUE      1      MOL     
@<SCITEGIC>MOL_PROPERTY
VConf Rank
SciTegic.value.IntegerValue
175

@<SCITEGIC>MOL_PROPERTY
Conf_Id
SciTegic.value.IntegerValue
59

@<SCITEGIC>MOL_PROPERTY
Delta U+W
SciTegic.value.DoubleValue
0.000

@<SCITEGIC>MOL_PROPERTY
U+W
SciTegic.value.DoubleValue
3.010

@<SCITEGIC>MOL_PROPERTY
Grad RMS
SciTegic.value.DoubleValue
0.000000

@<SCITEGIC>MOL_PROPERTY
U
SciTegic.value.DoubleValue
5.843

@<SCITEGIC>MOL_PROPERTY
W
SciTegic.value.DoubleValue
-2.833

@<SCITEGIC>MOL_PROPERTY
W(PB)
SciTegic.value.DoubleValue
-4.568

@<SCITEGIC>MOL_PROPERTY
W(SA)
SciTegic.value.DoubleValue
1.735

@<SCITEGIC>MOL_PROPERTY
Valence
SciTegic.value.DoubleValue
13.789

@<SCITEGIC>MOL_PROPERTY
Coulomb
SciTegic.value.DoubleValue
-8.574

@<SCITEGIC>MOL_PROPERTY
VdW
SciTegic.value.DoubleValue
0.628

@<SCITEGIC>MOL_PROPERTY
VdW6
SciTegic.value.DoubleValue
-3.284

@<SCITEGIC>MOL_PROPERTY
VdW12
SciTegic.value.DoubleValue
3.912

@<SCITEGIC>MOL_PROPERTY
Bond
SciTegic.value.DoubleValue
0.054

@<SCITEGIC>MOL_PROPERTY
Angle
SciTegic.value.DoubleValue
4.034

@<SCITEGIC>MOL_PROPERTY
Pdih
SciTegic.value.DoubleValue
9.702

@<SCITEGIC>MOL_PROPERTY
Idih
SciTegic.value.DoubleValue
0.000

@<SCITEGIC>MOL_PROPERTY
Tether
SciTegic.value.DoubleValue
0.000

@<TRIPOS>MOLECULE
guest-4_confgen4.mol2 : confsearch ligand conformer 176
          16          16           1
SMALL
USER_CHARGES
 
@<TRIPOS>ATOM
       1    C1      20.594907   18.937905   21.487194 C.3        1 MOL1        -0.1689
       2    H1      21.658176   19.184458   21.611408 H          1 MOL1         0.0830
       3    H2      20.396473   18.803112   20.414778 H          1 MOL1         0.0830
       4    C2      19.672981   20.028472   22.049728 C.3        1 MOL1        -0.1689
       5    H3      20.091232   20.415707   22.989300 H          1 MOL1         0.0830
       6    H4      19.547564   20.870797   21.355897 H          1 MOL1         0.0830
       7    C3      18.346476   19.301147   22.336884 C.3        1 MOL1        -0.1765
       8    H5      17.701924   19.346307   21.449417 H          1 MOL1         0.0830
       9    H6      17.801864   19.766948   23.169018 H          1 MOL1         0.0830
      10    C4      18.705446   17.828450   22.623420 C.3        1 MOL1         0.1214
      11    H7      18.087225   17.174242   21.991493 H          1 MOL1         0.0787
      12    C5      20.195128   17.664611   22.254989 C.3        1 MOL1        -0.1765
      13    H8      20.805425   17.582258   23.164680 H          1 MOL1         0.0830
      14    H9      20.364868   16.762988   21.652402 H          1 MOL1         0.0830
      15    O1      18.505118   17.533753   24.000707 O.3        1 MOL1        -0.5512
      16    H10     18.757809   16.594756   24.127044 H          1 MOL1         0.3776
@<TRIPOS>BOND
    1     1     2    1
    2     1     3    1
    3     1     4    1
    4     4     5    1
    5     4     6    1
    6     4     7    1
    7     7     8    1
    8     7     9    1
    9     7    10    1
   10    10    11    1
   11     1    12    1
   12    10    12    1
   13    12    13    1
   14    12    14    1
   15    10    15    1
   16    15    16    1
@<TRIPOS>SUBSTRUCTURE
       1 MOL1            1 RESIDUE      1      MOL     
@<SCITEGIC>MOL_PROPERTY
VConf Rank
SciTegic.value.IntegerValue
176

@<SCITEGIC>MOL_PROPERTY
Conf_Id
SciTegic.value.IntegerValue
33

@<SCITEGIC>MOL_PROPERTY
Delta U+W
SciTegic.value.DoubleValue
0.015

@<SCITEGIC>MOL_PROPERTY
U+W
SciTegic.value.DoubleValue
3.025

@<SCITEGIC>MOL_PROPERTY
Grad RMS
SciTegic.value.DoubleValue
0.000000

@<SCITEGIC>MOL_PROPERTY
U
SciTegic.value.DoubleValue
5.843

@<SCITEGIC>MOL_PROPERTY
W
SciTegic.value.DoubleValue
-2.819

@<SCITEGIC>MOL_PROPERTY
W(PB)
SciTegic.value.DoubleValue
-4.568

@<SCITEGIC>MOL_PROPERTY
W(SA)
SciTegic.value.DoubleValue
1.750

@<SCITEGIC>MOL_PROPERTY
Valence
SciTegic.value.DoubleValue
13.789

@<SCITEGIC>MOL_PROPERTY
Coulomb
SciTegic.value.DoubleValue
-8.574

@<SCITEGIC>MOL_PROPERTY
VdW
SciTegic.value.DoubleValue
0.628

@<SCITEGIC>MOL_PROPERTY
VdW6
SciTegic.value.DoubleValue
-3.284

@<SCITEGIC>MOL_PROPERTY
VdW12
SciTegic.value.DoubleValue
3.913

@<SCITEGIC>MOL_PROPERTY
Bond
SciTegic.value.DoubleValue
0.054

@<SCITEGIC>MOL_PROPERTY
Angle
SciTegic.value.DoubleValue
4.033

@<SCITEGIC>MOL_PROPERTY
Pdih
SciTegic.value.DoubleValue
9.702

@<SCITEGIC>MOL_PROPERTY
Idih
SciTegic.value.DoubleValue
0.000

@<SCITEGIC>MOL_PROPERTY
Tether
SciTegic.value.DoubleValue
0.000

@<TRIPOS>MOLECULE
guest-4_confgen4.mol2 : confsearch ligand conformer 177
          16          16           1
SMALL
USER_CHARGES
 
@<TRIPOS>ATOM
       1    C1      19.584583   18.570316   23.577505 C.3        1 MOL1        -0.1689
       2    H1      18.666034   18.597012   24.179818 H          1 MOL1         0.0830
       3    H2      20.434911   18.498667   24.269464 H          1 MOL1         0.0830
       4    C2      19.673100   19.836840   22.698243 C.3        1 MOL1        -0.1689
       5    H3      18.797938   20.476991   22.875794 H          1 MOL1         0.0830
       6    H4      20.570295   20.427206   22.929562 H          1 MOL1         0.0830
       7    C3      19.690580   19.352028   21.232948 C.3        1 MOL1        -0.1765
       8    H5      20.726504   19.316178   20.870738 H          1 MOL1         0.0830
       9    H6      19.126706   20.018900   20.567116 H          1 MOL1         0.0830
      10    C4      19.118923   17.927975   21.249483 C.3        1 MOL1         0.1214
      11    H7      19.512655   17.324253   20.419135 H          1 MOL1         0.0787
      12    C5      19.553142   17.367674   22.610540 C.3        1 MOL1        -0.1765
      13    H8      18.888018   16.567835   22.962494 H          1 MOL1         0.0830
      14    H9      20.562525   16.945790   22.516837 H          1 MOL1         0.0830
      15    O1      17.701075   17.992572   21.201087 O.3        1 MOL1        -0.5512
      16    H10     17.444764   18.543526   21.969148 H          1 MOL1         0.3776
@<TRIPOS>BOND
    1     1     2    1
    2     1     3    1
    3     1     4    1
    4     4     5    1
    5     4     6    1
    6     4     7    1
    7     7     8    1
    8     7     9    1
    9     7    10    1
   10    10    11    1
   11     1    12    1
   12    10    12    1
   13    12    13    1
   14    12    14    1
   15    10    15    1
   16    15    16    1
@<TRIPOS>SUBSTRUCTURE
       1 MOL1            1 RESIDUE      1      MOL     
@<SCITEGIC>MOL_PROPERTY
VConf Rank
SciTegic.value.IntegerValue
177

@<SCITEGIC>MOL_PROPERTY
Conf_Id
SciTegic.value.IntegerValue
20

@<SCITEGIC>MOL_PROPERTY
Delta U+W
SciTegic.value.DoubleValue
-0.483

@<SCITEGIC>MOL_PROPERTY
U+W
SciTegic.value.DoubleValue
2.527

@<SCITEGIC>MOL_PROPERTY
Grad RMS
SciTegic.value.DoubleValue
0.000000

@<SCITEGIC>MOL_PROPERTY
U
SciTegic.value.DoubleValue
4.508

@<SCITEGIC>MOL_PROPERTY
W
SciTegic.value.DoubleValue
-1.981

@<SCITEGIC>MOL_PROPERTY
W(PB)
SciTegic.value.DoubleValue
-3.712

@<SCITEGIC>MOL_PROPERTY
W(SA)
SciTegic.value.DoubleValue
1.732

@<SCITEGIC>MOL_PROPERTY
Valence
SciTegic.value.DoubleValue
14.705

@<SCITEGIC>MOL_PROPERTY
Coulomb
SciTegic.value.DoubleValue
-10.687

@<SCITEGIC>MOL_PROPERTY
VdW
SciTegic.value.DoubleValue
0.490

@<SCITEGIC>MOL_PROPERTY
VdW6
SciTegic.value.DoubleValue
-3.745

@<SCITEGIC>MOL_PROPERTY
VdW12
SciTegic.value.DoubleValue
4.235

@<SCITEGIC>MOL_PROPERTY
Bond
SciTegic.value.DoubleValue
0.068

@<SCITEGIC>MOL_PROPERTY
Angle
SciTegic.value.DoubleValue
3.901

@<SCITEGIC>MOL_PROPERTY
Pdih
SciTegic.value.DoubleValue
10.737

@<SCITEGIC>MOL_PROPERTY
Idih
SciTegic.value.DoubleValue
0.000

@<SCITEGIC>MOL_PROPERTY
Tether
SciTegic.value.DoubleValue
0.000

@<TRIPOS>MOLECULE
guest-4_confgen4.mol2 : confsearch ligand conformer 178
          16          16           1
SMALL
USER_CHARGES
 
@<TRIPOS>ATOM
       1    C1      18.057223   17.905596   22.284386 C.3        1 MOL1        -0.1689
       2    H1      17.763775   17.808553   23.338970 H          1 MOL1         0.0830
       3    H2      17.233510   17.530296   21.662058 H          1 MOL1         0.0830
       4    C2      19.368017   17.144454   22.043121 C.3        1 MOL1        -0.1689
       5    H3      19.404512   16.191589   22.588534 H          1 MOL1         0.0830
       6    H4      19.479620   16.931117   20.970900 H          1 MOL1         0.0830
       7    C3      20.467673   18.121850   22.497004 C.3        1 MOL1        -0.1765
       8    H5      21.400942   17.961495   21.941898 H          1 MOL1         0.0830
       9    H6      20.677749   17.962494   23.563427 H          1 MOL1         0.0830
      10    C4      19.908605   19.542032   22.268519 C.3        1 MOL1         0.1214
      11    H7      20.397201   20.003277   21.397861 H          1 MOL1         0.0787
      12    C5      18.402735   19.374650   21.978395 C.3        1 MOL1        -0.1765
      13    H8      17.785423   20.066221   22.567189 H          1 MOL1         0.0830
      14    H9      18.217401   19.583308   20.916701 H          1 MOL1         0.0830
      15    O1      20.098535   20.337552   23.432548 O.3        1 MOL1        -0.5512
      16    H10     21.066645   20.401052   23.574899 H          1 MOL1         0.3776
@<TRIPOS>BOND
    1     1     2    1
    2     1     3    1
    3     1     4    1
    4     4     5    1
    5     4     6    1
    6     4     7    1
    7     7     8    1
    8     7     9    1
    9     7    10    1
   10    10    11    1
   11     1    12    1
   12    10    12    1
   13    12    13    1
   14    12    14    1
   15    10    15    1
   16    15    16    1
@<TRIPOS>SUBSTRUCTURE
       1 MOL1            1 RESIDUE      1      MOL     
@<SCITEGIC>MOL_PROPERTY
VConf Rank
SciTegic.value.IntegerValue
178

@<SCITEGIC>MOL_PROPERTY
Conf_Id
SciTegic.value.IntegerValue
59

@<SCITEGIC>MOL_PROPERTY
Delta U+W
SciTegic.value.DoubleValue
0.000

@<SCITEGIC>MOL_PROPERTY
U+W
SciTegic.value.DoubleValue
3.010

@<SCITEGIC>MOL_PROPERTY
Grad RMS
SciTegic.value.DoubleValue
0.000000

@<SCITEGIC>MOL_PROPERTY
U
SciTegic.value.DoubleValue
5.843

@<SCITEGIC>MOL_PROPERTY
W
SciTegic.value.DoubleValue
-2.833

@<SCITEGIC>MOL_PROPERTY
W(PB)
SciTegic.value.DoubleValue
-4.568

@<SCITEGIC>MOL_PROPERTY
W(SA)
SciTegic.value.DoubleValue
1.735

@<SCITEGIC>MOL_PROPERTY
Valence
SciTegic.value.DoubleValue
13.789

@<SCITEGIC>MOL_PROPERTY
Coulomb
SciTegic.value.DoubleValue
-8.574

@<SCITEGIC>MOL_PROPERTY
VdW
SciTegic.value.DoubleValue
0.628

@<SCITEGIC>MOL_PROPERTY
VdW6
SciTegic.value.DoubleValue
-3.284

@<SCITEGIC>MOL_PROPERTY
VdW12
SciTegic.value.DoubleValue
3.912

@<SCITEGIC>MOL_PROPERTY
Bond
SciTegic.value.DoubleValue
0.054

@<SCITEGIC>MOL_PROPERTY
Angle
SciTegic.value.DoubleValue
4.034

@<SCITEGIC>MOL_PROPERTY
Pdih
SciTegic.value.DoubleValue
9.702

@<SCITEGIC>MOL_PROPERTY
Idih
SciTegic.value.DoubleValue
0.000

@<SCITEGIC>MOL_PROPERTY
Tether
SciTegic.value.DoubleValue
0.000

@<TRIPOS>MOLECULE
guest-4_confgen4.mol2 : confsearch ligand conformer 179
          16          16           1
SMALL
USER_CHARGES
 
@<TRIPOS>ATOM
       1    C1      18.806144   19.233082   21.170820 C.3        1 MOL1        -0.1689
       2    H1      17.852016   19.186124   20.628423 H          1 MOL1         0.0830
       3    H2      19.377192   20.090358   20.787931 H          1 MOL1         0.0830
       4    C2      19.632445   17.949553   21.011109 C.3        1 MOL1        -0.1689
       5    H3      18.966583   17.076042   21.046954 H          1 MOL1         0.0830
       6    H4      20.185526   17.921966   20.062435 H          1 MOL1         0.0830
       7    C3      20.565579   17.937209   22.235930 C.3        1 MOL1        -0.1765
       8    H5      21.500937   18.457366   21.991747 H          1 MOL1         0.0830
       9    H6      20.822260   16.913166   22.538370 H          1 MOL1         0.0830
      10    C4      19.835868   18.712047   23.352597 C.3        1 MOL1         0.1214
      11    H7      20.507375   19.482580   23.758649 H          1 MOL1         0.0787
      12    C5      18.609407   19.375461   22.691226 C.3        1 MOL1        -0.1765
      13    H8      17.688658   18.855338   22.988673 H          1 MOL1         0.0830
      14    H9      18.512184   20.428259   22.986203 H          1 MOL1         0.0830
      15    O1      19.417513   17.818111   24.377172 O.3        1 MOL1        -0.5512
      16    H10     18.952928   18.359251   25.050118 H          1 MOL1         0.3776
@<TRIPOS>BOND
    1     1     2    1
    2     1     3    1
    3     1     4    1
    4     4     5    1
    5     4     6    1
    6     4     7    1
    7     7     8    1
    8     7     9    1
    9     7    10    1
   10    10    11    1
   11     1    12    1
   12    10    12    1
   13    12    13    1
   14    12    14    1
   15    10    15    1
   16    15    16    1
@<TRIPOS>SUBSTRUCTURE
       1 MOL1            1 RESIDUE      1      MOL     
@<SCITEGIC>MOL_PROPERTY
VConf Rank
SciTegic.value.IntegerValue
179

@<SCITEGIC>MOL_PROPERTY
Conf_Id
SciTegic.value.IntegerValue
33

@<SCITEGIC>MOL_PROPERTY
Delta U+W
SciTegic.value.DoubleValue
0.015

@<SCITEGIC>MOL_PROPERTY
U+W
SciTegic.value.DoubleValue
3.025

@<SCITEGIC>MOL_PROPERTY
Grad RMS
SciTegic.value.DoubleValue
0.000000

@<SCITEGIC>MOL_PROPERTY
U
SciTegic.value.DoubleValue
5.843

@<SCITEGIC>MOL_PROPERTY
W
SciTegic.value.DoubleValue
-2.819

@<SCITEGIC>MOL_PROPERTY
W(PB)
SciTegic.value.DoubleValue
-4.568

@<SCITEGIC>MOL_PROPERTY
W(SA)
SciTegic.value.DoubleValue
1.750

@<SCITEGIC>MOL_PROPERTY
Valence
SciTegic.value.DoubleValue
13.789

@<SCITEGIC>MOL_PROPERTY
Coulomb
SciTegic.value.DoubleValue
-8.574

@<SCITEGIC>MOL_PROPERTY
VdW
SciTegic.value.DoubleValue
0.628

@<SCITEGIC>MOL_PROPERTY
VdW6
SciTegic.value.DoubleValue
-3.284

@<SCITEGIC>MOL_PROPERTY
VdW12
SciTegic.value.DoubleValue
3.913

@<SCITEGIC>MOL_PROPERTY
Bond
SciTegic.value.DoubleValue
0.054

@<SCITEGIC>MOL_PROPERTY
Angle
SciTegic.value.DoubleValue
4.033

@<SCITEGIC>MOL_PROPERTY
Pdih
SciTegic.value.DoubleValue
9.702

@<SCITEGIC>MOL_PROPERTY
Idih
SciTegic.value.DoubleValue
0.000

@<SCITEGIC>MOL_PROPERTY
Tether
SciTegic.value.DoubleValue
0.000

@<TRIPOS>MOLECULE
guest-4_confgen4.mol2 : confsearch ligand conformer 180
          16          16           1
SMALL
USER_CHARGES
 
@<TRIPOS>ATOM
       1    C1      18.513030   19.346461   21.555023 C.3        1 MOL1        -0.1689
       2    H1      17.646085   19.698285   22.131089 H          1 MOL1         0.0830
       3    H2      18.414098   19.735991   20.532538 H          1 MOL1         0.0830
       4    C2      18.563808   17.803041   21.572291 C.3        1 MOL1        -0.1689
       5    H3      17.720858   17.407871   22.155816 H          1 MOL1         0.0830
       6    H4      18.492460   17.385225   20.558714 H          1 MOL1         0.0830
       7    C3      19.901302   17.416578   22.238769 C.3        1 MOL1        -0.1765
       8    H5      20.647163   17.196106   21.463718 H          1 MOL1         0.0830
       9    H6      19.807418   16.526399   22.874987 H          1 MOL1         0.0830
      10    C4      20.354513   18.651115   23.029662 C.3        1 MOL1         0.1214
      11    H7      21.448837   18.688035   23.130033 H          1 MOL1         0.0787
      12    C5      19.822306   19.834691   22.210602 C.3        1 MOL1        -0.1765
      13    H8      19.670510   20.731575   22.825876 H          1 MOL1         0.0830
      14    H9      20.552507   20.084904   21.429691 H          1 MOL1         0.0830
      15    O1      19.728726   18.645525   24.304482 O.3        1 MOL1        -0.5512
      16    H10     18.768130   18.611962   24.116623 H          1 MOL1         0.3776
@<TRIPOS>BOND
    1     1     2    1
    2     1     3    1
    3     1     4    1
    4     4     5    1
    5     4     6    1
    6     4     7    1
    7     7     8    1
    8     7     9    1
    9     7    10    1
   10    10    11    1
   11     1    12    1
   12    10    12    1
   13    12    13    1
   14    12    14    1
   15    10    15    1
   16    15    16    1
@<TRIPOS>SUBSTRUCTURE
       1 MOL1            1 RESIDUE      1      MOL     
@<SCITEGIC>MOL_PROPERTY
VConf Rank
SciTegic.value.IntegerValue
180

@<SCITEGIC>MOL_PROPERTY
Conf_Id
SciTegic.value.IntegerValue
20

@<SCITEGIC>MOL_PROPERTY
Delta U+W
SciTegic.value.DoubleValue
-0.483

@<SCITEGIC>MOL_PROPERTY
U+W
SciTegic.value.DoubleValue
2.527

@<SCITEGIC>MOL_PROPERTY
Grad RMS
SciTegic.value.DoubleValue
0.000000

@<SCITEGIC>MOL_PROPERTY
U
SciTegic.value.DoubleValue
4.508

@<SCITEGIC>MOL_PROPERTY
W
SciTegic.value.DoubleValue
-1.981

@<SCITEGIC>MOL_PROPERTY
W(PB)
SciTegic.value.DoubleValue
-3.712

@<SCITEGIC>MOL_PROPERTY
W(SA)
SciTegic.value.DoubleValue
1.732

@<SCITEGIC>MOL_PROPERTY
Valence
SciTegic.value.DoubleValue
14.705

@<SCITEGIC>MOL_PROPERTY
Coulomb
SciTegic.value.DoubleValue
-10.687

@<SCITEGIC>MOL_PROPERTY
VdW
SciTegic.value.DoubleValue
0.490

@<SCITEGIC>MOL_PROPERTY
VdW6
SciTegic.value.DoubleValue
-3.745

@<SCITEGIC>MOL_PROPERTY
VdW12
SciTegic.value.DoubleValue
4.235

@<SCITEGIC>MOL_PROPERTY
Bond
SciTegic.value.DoubleValue
0.068

@<SCITEGIC>MOL_PROPERTY
Angle
SciTegic.value.DoubleValue
3.901

@<SCITEGIC>MOL_PROPERTY
Pdih
SciTegic.value.DoubleValue
10.737

@<SCITEGIC>MOL_PROPERTY
Idih
SciTegic.value.DoubleValue
0.000

@<SCITEGIC>MOL_PROPERTY
Tether
SciTegic.value.DoubleValue
0.000

@<TRIPOS>MOLECULE
guest-4_confgen4.mol2 : confsearch ligand conformer 181
          16          16           1
SMALL
USER_CHARGES
 
@<TRIPOS>ATOM
       1    C1      18.833181   18.460773   20.961572 C.3        1 MOL1        -0.1689
       2    H1      18.979697   19.460820   20.530161 H          1 MOL1         0.0830
       3    H2      18.411910   17.808987   20.184173 H          1 MOL1         0.0830
       4    C2      17.927440   18.561060   22.196604 C.3        1 MOL1        -0.1689
       5    H3      17.106689   19.277538   22.055938 H          1 MOL1         0.0830
       6    H4      17.490560   17.576765   22.415521 H          1 MOL1         0.0830
       7    C3      18.877262   18.974412   23.335699 C.3        1 MOL1        -0.1765
       8    H5      18.526069   18.600886   24.306259 H          1 MOL1         0.0830
       9    H6      18.921528   20.070612   23.391995 H          1 MOL1         0.0830
      10    C4      20.263996   18.401052   22.975274 C.3        1 MOL1         0.1214
      11    H7      20.493149   17.538378   23.617770 H          1 MOL1         0.0787
      12    C5      20.172834   17.933592   21.507962 C.3        1 MOL1        -0.1765
      13    H8      21.021291   18.284243   20.905313 H          1 MOL1         0.0830
      14    H9      20.175445   16.836162   21.481097 H          1 MOL1         0.0830
      15    O1      21.260971   19.407104   23.108650 O.3        1 MOL1        -0.5512
      16    H10     21.267545   19.673152   24.052423 H          1 MOL1         0.3776
@<TRIPOS>BOND
    1     1     2    1
    2     1     3    1
    3     1     4    1
    4     4     5    1
    5     4     6    1
    6     4     7    1
    7     7     8    1
    8     7     9    1
    9     7    10    1
   10    10    11    1
   11     1    12    1
   12    10    12    1
   13    12    13    1
   14    12    14    1
   15    10    15    1
   16    15    16    1
@<TRIPOS>SUBSTRUCTURE
       1 MOL1            1 RESIDUE      1      MOL     
@<SCITEGIC>MOL_PROPERTY
VConf Rank
SciTegic.value.IntegerValue
181

@<SCITEGIC>MOL_PROPERTY
Conf_Id
SciTegic.value.IntegerValue
59

@<SCITEGIC>MOL_PROPERTY
Delta U+W
SciTegic.value.DoubleValue
0.000

@<SCITEGIC>MOL_PROPERTY
U+W
SciTegic.value.DoubleValue
3.010

@<SCITEGIC>MOL_PROPERTY
Grad RMS
SciTegic.value.DoubleValue
0.000000

@<SCITEGIC>MOL_PROPERTY
U
SciTegic.value.DoubleValue
5.843

@<SCITEGIC>MOL_PROPERTY
W
SciTegic.value.DoubleValue
-2.833

@<SCITEGIC>MOL_PROPERTY
W(PB)
SciTegic.value.DoubleValue
-4.568

@<SCITEGIC>MOL_PROPERTY
W(SA)
SciTegic.value.DoubleValue
1.735

@<SCITEGIC>MOL_PROPERTY
Valence
SciTegic.value.DoubleValue
13.789

@<SCITEGIC>MOL_PROPERTY
Coulomb
SciTegic.value.DoubleValue
-8.574

@<SCITEGIC>MOL_PROPERTY
VdW
SciTegic.value.DoubleValue
0.628

@<SCITEGIC>MOL_PROPERTY
VdW6
SciTegic.value.DoubleValue
-3.284

@<SCITEGIC>MOL_PROPERTY
VdW12
SciTegic.value.DoubleValue
3.912

@<SCITEGIC>MOL_PROPERTY
Bond
SciTegic.value.DoubleValue
0.054

@<SCITEGIC>MOL_PROPERTY
Angle
SciTegic.value.DoubleValue
4.034

@<SCITEGIC>MOL_PROPERTY
Pdih
SciTegic.value.DoubleValue
9.702

@<SCITEGIC>MOL_PROPERTY
Idih
SciTegic.value.DoubleValue
0.000

@<SCITEGIC>MOL_PROPERTY
Tether
SciTegic.value.DoubleValue
0.000

@<TRIPOS>MOLECULE
guest-4_confgen4.mol2 : confsearch ligand conformer 182
          16          16           1
SMALL
USER_CHARGES
 
@<TRIPOS>ATOM
       1    C1      19.817037   19.947156   22.673634 C.3        1 MOL1        -0.1689
       2    H1      19.757533   20.609175   23.548248 H          1 MOL1         0.0830
       3    H2      20.438580   20.438742   21.912287 H          1 MOL1         0.0830
       4    C2      18.435014   19.630309   22.085974 C.3        1 MOL1        -0.1689
       5    H3      17.713642   19.480493   22.901361 H          1 MOL1         0.0830
       6    H4      18.060145   20.434415   21.438263 H          1 MOL1         0.0830
       7    C3      18.634439   18.306986   21.324316 C.3        1 MOL1        -0.1765
       8    H5      18.922733   18.519042   20.286528 H          1 MOL1         0.0830
       9    H6      17.711880   17.711766   21.299490 H          1 MOL1         0.0830
      10    C4      19.790940   17.565550   22.026154 C.3        1 MOL1         0.1214
      11    H7      20.538897   17.267254   21.277089 H          1 MOL1         0.0787
      12    C5      20.410792   18.569642   23.020798 C.3        1 MOL1        -0.1765
      13    H8      20.135482   18.304486   24.050690 H          1 MOL1         0.0830
      14    H9      21.506513   18.577355   22.956114 H          1 MOL1         0.0830
      15    O1      19.294047   16.428527   22.721979 O.3        1 MOL1        -0.5512
      16    H10     20.064944   16.005013   23.155434 H          1 MOL1         0.3776
@<TRIPOS>BOND
    1     1     2    1
    2     1     3    1
    3     1     4    1
    4     4     5    1
    5     4     6    1
    6     4     7    1
    7     7     8    1
    8     7     9    1
    9     7    10    1
   10    10    11    1
   11     1    12    1
   12    10    12    1
   13    12    13    1
   14    12    14    1
   15    10    15    1
   16    15    16    1
@<TRIPOS>SUBSTRUCTURE
       1 MOL1            1 RESIDUE      1      MOL     
@<SCITEGIC>MOL_PROPERTY
VConf Rank
SciTegic.value.IntegerValue
182

@<SCITEGIC>MOL_PROPERTY
Conf_Id
SciTegic.value.IntegerValue
33

@<SCITEGIC>MOL_PROPERTY
Delta U+W
SciTegic.value.DoubleValue
0.015

@<SCITEGIC>MOL_PROPERTY
U+W
SciTegic.value.DoubleValue
3.025

@<SCITEGIC>MOL_PROPERTY
Grad RMS
SciTegic.value.DoubleValue
0.000000

@<SCITEGIC>MOL_PROPERTY
U
SciTegic.value.DoubleValue
5.843

@<SCITEGIC>MOL_PROPERTY
W
SciTegic.value.DoubleValue
-2.819

@<SCITEGIC>MOL_PROPERTY
W(PB)
SciTegic.value.DoubleValue
-4.568

@<SCITEGIC>MOL_PROPERTY
W(SA)
SciTegic.value.DoubleValue
1.750

@<SCITEGIC>MOL_PROPERTY
Valence
SciTegic.value.DoubleValue
13.789

@<SCITEGIC>MOL_PROPERTY
Coulomb
SciTegic.value.DoubleValue
-8.574

@<SCITEGIC>MOL_PROPERTY
VdW
SciTegic.value.DoubleValue
0.628

@<SCITEGIC>MOL_PROPERTY
VdW6
SciTegic.value.DoubleValue
-3.284

@<SCITEGIC>MOL_PROPERTY
VdW12
SciTegic.value.DoubleValue
3.913

@<SCITEGIC>MOL_PROPERTY
Bond
SciTegic.value.DoubleValue
0.054

@<SCITEGIC>MOL_PROPERTY
Angle
SciTegic.value.DoubleValue
4.033

@<SCITEGIC>MOL_PROPERTY
Pdih
SciTegic.value.DoubleValue
9.702

@<SCITEGIC>MOL_PROPERTY
Idih
SciTegic.value.DoubleValue
0.000

@<SCITEGIC>MOL_PROPERTY
Tether
SciTegic.value.DoubleValue
0.000

@<TRIPOS>MOLECULE
guest-4_confgen4.mol2 : confsearch ligand conformer 183
          16          16           1
SMALL
USER_CHARGES
 
@<TRIPOS>ATOM
       1    C1      18.250402   17.978103   21.921440 C.3        1 MOL1        -0.1689
       2    H1      17.913521   17.232790   22.655093 H          1 MOL1         0.0830
       3    H2      17.518505   17.993886   21.102248 H          1 MOL1         0.0830
       4    C2      19.662944   17.614429   21.414008 C.3        1 MOL1        -0.1689
       5    H3      20.009255   16.692549   21.901278 H          1 MOL1         0.0830
       6    H4      19.670149   17.440964   20.329177 H          1 MOL1         0.0830
       7    C3      20.581674   18.795387   21.793099 C.3        1 MOL1        -0.1765
       8    H5      20.700208   19.460492   20.927532 H          1 MOL1         0.0830
       9    H6      21.582728   18.462654   22.098359 H          1 MOL1         0.0830
      10    C4      19.856210   19.556614   22.910788 C.3        1 MOL1         0.1214
      11    H7      20.134504   20.620286   22.922525 H          1 MOL1         0.0787
      12    C5      18.368365   19.365710   22.587014 C.3        1 MOL1        -0.1765
      13    H8      17.733788   19.454916   23.478843 H          1 MOL1         0.0830
      14    H9      18.055877   20.141557   21.875653 H          1 MOL1         0.0830
      15    O1      20.145756   18.943370   24.158546 O.3        1 MOL1        -0.5512
      16    H10     19.867866   18.010056   24.054313 H          1 MOL1         0.3776
@<TRIPOS>BOND
    1     1     2    1
    2     1     3    1
    3     1     4    1
    4     4     5    1
    5     4     6    1
    6     4     7    1
    7     7     8    1
    8     7     9    1
    9     7    10    1
   10    10    11    1
   11     1    12    1
   12    10    12    1
   13    12    13    1
   14    12    14    1
   15    10    15    1
   16    15    16    1
@<TRIPOS>SUBSTRUCTURE
       1 MOL1            1 RESIDUE      1      MOL     
@<SCITEGIC>MOL_PROPERTY
VConf Rank
SciTegic.value.IntegerValue
183

@<SCITEGIC>MOL_PROPERTY
Conf_Id
SciTegic.value.IntegerValue
20

@<SCITEGIC>MOL_PROPERTY
Delta U+W
SciTegic.value.DoubleValue
-0.483

@<SCITEGIC>MOL_PROPERTY
U+W
SciTegic.value.DoubleValue
2.527

@<SCITEGIC>MOL_PROPERTY
Grad RMS
SciTegic.value.DoubleValue
0.000000

@<SCITEGIC>MOL_PROPERTY
U
SciTegic.value.DoubleValue
4.508

@<SCITEGIC>MOL_PROPERTY
W
SciTegic.value.DoubleValue
-1.981

@<SCITEGIC>MOL_PROPERTY
W(PB)
SciTegic.value.DoubleValue
-3.712

@<SCITEGIC>MOL_PROPERTY
W(SA)
SciTegic.value.DoubleValue
1.732

@<SCITEGIC>MOL_PROPERTY
Valence
SciTegic.value.DoubleValue
14.705

@<SCITEGIC>MOL_PROPERTY
Coulomb
SciTegic.value.DoubleValue
-10.687

@<SCITEGIC>MOL_PROPERTY
VdW
SciTegic.value.DoubleValue
0.490

@<SCITEGIC>MOL_PROPERTY
VdW6
SciTegic.value.DoubleValue
-3.745

@<SCITEGIC>MOL_PROPERTY
VdW12
SciTegic.value.DoubleValue
4.235

@<SCITEGIC>MOL_PROPERTY
Bond
SciTegic.value.DoubleValue
0.068

@<SCITEGIC>MOL_PROPERTY
Angle
SciTegic.value.DoubleValue
3.901

@<SCITEGIC>MOL_PROPERTY
Pdih
SciTegic.value.DoubleValue
10.737

@<SCITEGIC>MOL_PROPERTY
Idih
SciTegic.value.DoubleValue
0.000

@<SCITEGIC>MOL_PROPERTY
Tether
SciTegic.value.DoubleValue
0.000

@<TRIPOS>MOLECULE
guest-4_confgen4.mol2 : confsearch ligand conformer 184
          16          16           1
SMALL
USER_CHARGES
 
@<TRIPOS>ATOM
       1    C1      20.584093   18.300868   21.574877 C.3        1 MOL1        -0.1689
       2    H1      21.393397   18.482132   22.295881 H          1 MOL1         0.0830
       3    H2      21.032806   17.955866   20.633455 H          1 MOL1         0.0830
       4    C2      19.758326   19.582170   21.395713 C.3        1 MOL1        -0.1689
       5    H3      20.385125   20.484120   21.376546 H          1 MOL1         0.0830
       6    H4      19.198922   19.532368   20.451143 H          1 MOL1         0.0830
       7    C3      18.777847   19.575158   22.582798 C.3        1 MOL1        -0.1765
       8    H5      17.842037   20.091677   22.333171 H          1 MOL1         0.0830
       9    H6      19.234740   20.097464   23.434401 H          1 MOL1         0.0830
      10    C4      18.531262   18.092854   22.934437 C.3        1 MOL1         0.1214
      11    H7      17.527469   17.789382   22.603041 H          1 MOL1         0.0787
      12    C5      19.590436   17.280812   22.160762 C.3        1 MOL1        -0.1765
      13    H8      20.096766   16.542929   22.797299 H          1 MOL1         0.0830
      14    H9      19.097999   16.735744   21.344988 H          1 MOL1         0.0830
      15    O1      18.682537   17.888623   24.334185 O.3        1 MOL1        -0.5512
      16    H10     17.995805   18.433367   24.773713 H          1 MOL1         0.3776
@<TRIPOS>BOND
    1     1     2    1
    2     1     3    1
    3     1     4    1
    4     4     5    1
    5     4     6    1
    6     4     7    1
    7     7     8    1
    8     7     9    1
    9     7    10    1
   10    10    11    1
   11     1    12    1
   12    10    12    1
   13    12    13    1
   14    12    14    1
   15    10    15    1
   16    15    16    1
@<TRIPOS>SUBSTRUCTURE
       1 MOL1            1 RESIDUE      1      MOL     
@<SCITEGIC>MOL_PROPERTY
VConf Rank
SciTegic.value.IntegerValue
184

@<SCITEGIC>MOL_PROPERTY
Conf_Id
SciTegic.value.IntegerValue
59

@<SCITEGIC>MOL_PROPERTY
Delta U+W
SciTegic.value.DoubleValue
0.000

@<SCITEGIC>MOL_PROPERTY
U+W
SciTegic.value.DoubleValue
3.010

@<SCITEGIC>MOL_PROPERTY
Grad RMS
SciTegic.value.DoubleValue
0.000000

@<SCITEGIC>MOL_PROPERTY
U
SciTegic.value.DoubleValue
5.843

@<SCITEGIC>MOL_PROPERTY
W
SciTegic.value.DoubleValue
-2.833

@<SCITEGIC>MOL_PROPERTY
W(PB)
SciTegic.value.DoubleValue
-4.568

@<SCITEGIC>MOL_PROPERTY
W(SA)
SciTegic.value.DoubleValue
1.735

@<SCITEGIC>MOL_PROPERTY
Valence
SciTegic.value.DoubleValue
13.789

@<SCITEGIC>MOL_PROPERTY
Coulomb
SciTegic.value.DoubleValue
-8.574

@<SCITEGIC>MOL_PROPERTY
VdW
SciTegic.value.DoubleValue
0.628

@<SCITEGIC>MOL_PROPERTY
VdW6
SciTegic.value.DoubleValue
-3.284

@<SCITEGIC>MOL_PROPERTY
VdW12
SciTegic.value.DoubleValue
3.912

@<SCITEGIC>MOL_PROPERTY
Bond
SciTegic.value.DoubleValue
0.054

@<SCITEGIC>MOL_PROPERTY
Angle
SciTegic.value.DoubleValue
4.034

@<SCITEGIC>MOL_PROPERTY
Pdih
SciTegic.value.DoubleValue
9.702

@<SCITEGIC>MOL_PROPERTY
Idih
SciTegic.value.DoubleValue
0.000

@<SCITEGIC>MOL_PROPERTY
Tether
SciTegic.value.DoubleValue
0.000

@<TRIPOS>MOLECULE
guest-4_confgen4.mol2 : confsearch ligand conformer 185
          16          16           1
SMALL
USER_CHARGES
 
@<TRIPOS>ATOM
       1    C1      20.074306   17.381028   21.895605 C.3        1 MOL1        -0.1689
       2    H1      21.059966   16.897225   21.929775 H          1 MOL1         0.0830
       3    H2      19.340738   16.641868   21.544689 H          1 MOL1         0.0830
       4    C2      20.056556   18.605462   20.970309 C.3        1 MOL1        -0.1689
       5    H3      20.994526   19.166667   21.084066 H          1 MOL1         0.0830
       6    H4      19.946200   18.330435   19.912564 H          1 MOL1         0.0830
       7    C3      18.880470   19.457751   21.481681 C.3        1 MOL1        -0.1765
       8    H5      17.960066   19.167056   20.958768 H          1 MOL1         0.0830
       9    H6      19.045862   20.527522   21.296602 H          1 MOL1         0.0830
      10    C4      18.727468   19.140130   22.983515 C.3        1 MOL1         0.1214
      11    H7      17.680709   18.876765   23.194358 H          1 MOL1         0.0787
      12    C5      19.643837   17.931300   23.267650 C.3        1 MOL1        -0.1765
      13    H8      20.533970   18.251375   23.826216 H          1 MOL1         0.0830
      14    H9      19.129261   17.166152   23.863140 H          1 MOL1         0.0830
      15    O1      19.132673   20.257697   23.765020 O.3        1 MOL1        -0.5512
      16    H10     19.026009   19.997479   24.704402 H          1 MOL1         0.3776
@<TRIPOS>BOND
    1     1     2    1
    2     1     3    1
    3     1     4    1
    4     4     5    1
    5     4     6    1
    6     4     7    1
    7     7     8    1
    8     7     9    1
    9     7    10    1
   10    10    11    1
   11     1    12    1
   12    10    12    1
   13    12    13    1
   14    12    14    1
   15    10    15    1
   16    15    16    1
@<TRIPOS>SUBSTRUCTURE
       1 MOL1            1 RESIDUE      1      MOL     
@<SCITEGIC>MOL_PROPERTY
VConf Rank
SciTegic.value.IntegerValue
185

@<SCITEGIC>MOL_PROPERTY
Conf_Id
SciTegic.value.IntegerValue
33

@<SCITEGIC>MOL_PROPERTY
Delta U+W
SciTegic.value.DoubleValue
0.015

@<SCITEGIC>MOL_PROPERTY
U+W
SciTegic.value.DoubleValue
3.025

@<SCITEGIC>MOL_PROPERTY
Grad RMS
SciTegic.value.DoubleValue
0.000000

@<SCITEGIC>MOL_PROPERTY
U
SciTegic.value.DoubleValue
5.843

@<SCITEGIC>MOL_PROPERTY
W
SciTegic.value.DoubleValue
-2.819

@<SCITEGIC>MOL_PROPERTY
W(PB)
SciTegic.value.DoubleValue
-4.568

@<SCITEGIC>MOL_PROPERTY
W(SA)
SciTegic.value.DoubleValue
1.750

@<SCITEGIC>MOL_PROPERTY
Valence
SciTegic.value.DoubleValue
13.789

@<SCITEGIC>MOL_PROPERTY
Coulomb
SciTegic.value.DoubleValue
-8.574

@<SCITEGIC>MOL_PROPERTY
VdW
SciTegic.value.DoubleValue
0.628

@<SCITEGIC>MOL_PROPERTY
VdW6
SciTegic.value.DoubleValue
-3.284

@<SCITEGIC>MOL_PROPERTY
VdW12
SciTegic.value.DoubleValue
3.913

@<SCITEGIC>MOL_PROPERTY
Bond
SciTegic.value.DoubleValue
0.054

@<SCITEGIC>MOL_PROPERTY
Angle
SciTegic.value.DoubleValue
4.033

@<SCITEGIC>MOL_PROPERTY
Pdih
SciTegic.value.DoubleValue
9.702

@<SCITEGIC>MOL_PROPERTY
Idih
SciTegic.value.DoubleValue
0.000

@<SCITEGIC>MOL_PROPERTY
Tether
SciTegic.value.DoubleValue
0.000

@<TRIPOS>MOLECULE
guest-4_confgen4.mol2 : confsearch ligand conformer 186
          16          16           1
SMALL
USER_CHARGES
 
@<TRIPOS>ATOM
       1    C1      18.617912   18.938300   23.306564 C.3        1 MOL1        -0.1689
       2    H1      17.824252   19.663625   23.080214 H          1 MOL1         0.0830
       3    H2      18.535374   18.674956   24.369971 H          1 MOL1         0.0830
       4    C2      19.997524   19.549856   22.978402 C.3        1 MOL1        -0.1689
       5    H3      19.871630   20.571518   22.594236 H          1 MOL1         0.0830
       6    H4      20.637054   19.605481   23.869978 H          1 MOL1         0.0830
       7    C3      20.630110   18.647901   21.897315 C.3        1 MOL1        -0.1765
       8    H5      21.321626   17.938179   22.370308 H          1 MOL1         0.0830
       9    H6      21.198560   19.223984   21.155022 H          1 MOL1         0.0830
      10    C4      19.470966   17.867041   21.263568 C.3        1 MOL1         0.1214
      11    H7      19.805693   16.898530   20.864912 H          1 MOL1         0.0787
      12    C5      18.469165   17.689062   22.412339 C.3        1 MOL1        -0.1765
      13    H8      17.440815   17.556093   22.050651 H          1 MOL1         0.0830
      14    H9      18.740061   16.792886   22.986016 H          1 MOL1         0.0830
      15    O1      18.877363   18.656935   20.243514 O.3        1 MOL1        -0.5512
      16    H10     18.613649   19.489415   20.686905 H          1 MOL1         0.3776
@<TRIPOS>BOND
    1     1     2    1
    2     1     3    1
    3     1     4    1
    4     4     5    1
    5     4     6    1
    6     4     7    1
    7     7     8    1
    8     7     9    1
    9     7    10    1
   10    10    11    1
   11     1    12    1
   12    10    12    1
   13    12    13    1
   14    12    14    1
   15    10    15    1
   16    15    16    1
@<TRIPOS>SUBSTRUCTURE
       1 MOL1            1 RESIDUE      1      MOL     
@<SCITEGIC>MOL_PROPERTY
VConf Rank
SciTegic.value.IntegerValue
186

@<SCITEGIC>MOL_PROPERTY
Conf_Id
SciTegic.value.IntegerValue
20

@<SCITEGIC>MOL_PROPERTY
Delta U+W
SciTegic.value.DoubleValue
-0.483

@<SCITEGIC>MOL_PROPERTY
U+W
SciTegic.value.DoubleValue
2.527

@<SCITEGIC>MOL_PROPERTY
Grad RMS
SciTegic.value.DoubleValue
0.000000

@<SCITEGIC>MOL_PROPERTY
U
SciTegic.value.DoubleValue
4.508

@<SCITEGIC>MOL_PROPERTY
W
SciTegic.value.DoubleValue
-1.981

@<SCITEGIC>MOL_PROPERTY
W(PB)
SciTegic.value.DoubleValue
-3.712

@<SCITEGIC>MOL_PROPERTY
W(SA)
SciTegic.value.DoubleValue
1.732

@<SCITEGIC>MOL_PROPERTY
Valence
SciTegic.value.DoubleValue
14.705

@<SCITEGIC>MOL_PROPERTY
Coulomb
SciTegic.value.DoubleValue
-10.687

@<SCITEGIC>MOL_PROPERTY
VdW
SciTegic.value.DoubleValue
0.490

@<SCITEGIC>MOL_PROPERTY
VdW6
SciTegic.value.DoubleValue
-3.745

@<SCITEGIC>MOL_PROPERTY
VdW12
SciTegic.value.DoubleValue
4.235

@<SCITEGIC>MOL_PROPERTY
Bond
SciTegic.value.DoubleValue
0.068

@<SCITEGIC>MOL_PROPERTY
Angle
SciTegic.value.DoubleValue
3.901

@<SCITEGIC>MOL_PROPERTY
Pdih
SciTegic.value.DoubleValue
10.737

@<SCITEGIC>MOL_PROPERTY
Idih
SciTegic.value.DoubleValue
0.000

@<SCITEGIC>MOL_PROPERTY
Tether
SciTegic.value.DoubleValue
0.000

@<TRIPOS>MOLECULE
guest-4_confgen4.mol2 : confsearch ligand conformer 187
          16          16           1
SMALL
USER_CHARGES
 
@<TRIPOS>ATOM
       1    C1      20.361716   18.498938   23.364590 C.3        1 MOL1        -0.1689
       2    H1      19.991850   19.176251   24.146973 H          1 MOL1         0.0830
       3    H2      21.288104   18.030934   23.724342 H          1 MOL1         0.0830
       4    C2      20.568746   19.282853   22.061385 C.3        1 MOL1        -0.1689
       5    H3      20.992116   20.281204   22.236921 H          1 MOL1         0.0830
       6    H4      21.253053   18.730445   21.402450 H          1 MOL1         0.0830
       7    C3      19.168313   19.344007   21.424515 C.3        1 MOL1        -0.1765
       8    H5      19.227458   19.395333   20.329658 H          1 MOL1         0.0830
       9    H6      18.648027   20.245058   21.776927 H          1 MOL1         0.0830
      10    C4      18.421587   18.077469   21.893517 C.3        1 MOL1         0.1214
      11    H7      18.343471   17.358210   21.065216 H          1 MOL1         0.0787
      12    C5      19.274504   17.463423   23.022815 C.3        1 MOL1        -0.1765
      13    H8      18.673547   17.202351   23.904129 H          1 MOL1         0.0830
      14    H9      19.745404   16.542399   22.655327 H          1 MOL1         0.0830
      15    O1      17.131605   18.421730   22.384760 O.3        1 MOL1        -0.5512
      16    H10     16.640064   18.814928   21.632885 H          1 MOL1         0.3776
@<TRIPOS>BOND
    1     1     2    1
    2     1     3    1
    3     1     4    1
    4     4     5    1
    5     4     6    1
    6     4     7    1
    7     7     8    1
    8     7     9    1
    9     7    10    1
   10    10    11    1
   11     1    12    1
   12    10    12    1
   13    12    13    1
   14    12    14    1
   15    10    15    1
   16    15    16    1
@<TRIPOS>SUBSTRUCTURE
       1 MOL1            1 RESIDUE      1      MOL     
@<SCITEGIC>MOL_PROPERTY
VConf Rank
SciTegic.value.IntegerValue
187

@<SCITEGIC>MOL_PROPERTY
Conf_Id
SciTegic.value.IntegerValue
59

@<SCITEGIC>MOL_PROPERTY
Delta U+W
SciTegic.value.DoubleValue
0.000

@<SCITEGIC>MOL_PROPERTY
U+W
SciTegic.value.DoubleValue
3.010

@<SCITEGIC>MOL_PROPERTY
Grad RMS
SciTegic.value.DoubleValue
0.000000

@<SCITEGIC>MOL_PROPERTY
U
SciTegic.value.DoubleValue
5.843

@<SCITEGIC>MOL_PROPERTY
W
SciTegic.value.DoubleValue
-2.833

@<SCITEGIC>MOL_PROPERTY
W(PB)
SciTegic.value.DoubleValue
-4.568

@<SCITEGIC>MOL_PROPERTY
W(SA)
SciTegic.value.DoubleValue
1.735

@<SCITEGIC>MOL_PROPERTY
Valence
SciTegic.value.DoubleValue
13.789

@<SCITEGIC>MOL_PROPERTY
Coulomb
SciTegic.value.DoubleValue
-8.574

@<SCITEGIC>MOL_PROPERTY
VdW
SciTegic.value.DoubleValue
0.628

@<SCITEGIC>MOL_PROPERTY
VdW6
SciTegic.value.DoubleValue
-3.284

@<SCITEGIC>MOL_PROPERTY
VdW12
SciTegic.value.DoubleValue
3.912

@<SCITEGIC>MOL_PROPERTY
Bond
SciTegic.value.DoubleValue
0.054

@<SCITEGIC>MOL_PROPERTY
Angle
SciTegic.value.DoubleValue
4.034

@<SCITEGIC>MOL_PROPERTY
Pdih
SciTegic.value.DoubleValue
9.702

@<SCITEGIC>MOL_PROPERTY
Idih
SciTegic.value.DoubleValue
0.000

@<SCITEGIC>MOL_PROPERTY
Tether
SciTegic.value.DoubleValue
0.000

@<TRIPOS>MOLECULE
guest-4_confgen4.mol2 : confsearch ligand conformer 188
          16          16           1
SMALL
USER_CHARGES
 
@<TRIPOS>ATOM
       1    C1      20.125013   19.864241   22.091985 C.3        1 MOL1        -0.1689
       2    H1      21.047006   20.250582   21.636543 H          1 MOL1         0.0830
       3    H2      19.498638   20.720368   22.378904 H          1 MOL1         0.0830
       4    C2      20.403234   18.992227   23.324020 C.3        1 MOL1        -0.1689
       5    H3      21.287203   18.365841   23.139849 H          1 MOL1         0.0830
       6    H4      20.586666   19.589132   24.227735 H          1 MOL1         0.0830
       7    C3      19.155888   18.098621   23.453138 C.3        1 MOL1        -0.1765
       8    H5      18.411526   18.594725   24.089448 H          1 MOL1         0.0830
       9    H6      19.397349   17.131420   23.913830 H          1 MOL1         0.0830
      10    C4      18.577976   17.942011   22.031418 C.3        1 MOL1         0.1214
      11    H7      17.507015   18.191765   22.045028 H          1 MOL1         0.0787
      12    C5      19.342388   18.942424   21.138903 C.3        1 MOL1        -0.1765
      13    H8      20.048541   18.409262   20.487851 H          1 MOL1         0.0830
      14    H9      18.659413   19.514928   20.498099 H          1 MOL1         0.0830
      15    O1      18.779263   16.613635   21.563660 O.3        1 MOL1        -0.5512
      16    H10     18.405497   16.574729   20.657948 H          1 MOL1         0.3776
@<TRIPOS>BOND
    1     1     2    1
    2     1     3    1
    3     1     4    1
    4     4     5    1
    5     4     6    1
    6     4     7    1
    7     7     8    1
    8     7     9    1
    9     7    10    1
   10    10    11    1
   11     1    12    1
   12    10    12    1
   13    12    13    1
   14    12    14    1
   15    10    15    1
   16    15    16    1
@<TRIPOS>SUBSTRUCTURE
       1 MOL1            1 RESIDUE      1      MOL     
@<SCITEGIC>MOL_PROPERTY
VConf Rank
SciTegic.value.IntegerValue
188

@<SCITEGIC>MOL_PROPERTY
Conf_Id
SciTegic.value.IntegerValue
33

@<SCITEGIC>MOL_PROPERTY
Delta U+W
SciTegic.value.DoubleValue
0.015

@<SCITEGIC>MOL_PROPERTY
U+W
SciTegic.value.DoubleValue
3.025

@<SCITEGIC>MOL_PROPERTY
Grad RMS
SciTegic.value.DoubleValue
0.000000

@<SCITEGIC>MOL_PROPERTY
U
SciTegic.value.DoubleValue
5.843

@<SCITEGIC>MOL_PROPERTY
W
SciTegic.value.DoubleValue
-2.819

@<SCITEGIC>MOL_PROPERTY
W(PB)
SciTegic.value.DoubleValue
-4.568

@<SCITEGIC>MOL_PROPERTY
W(SA)
SciTegic.value.DoubleValue
1.750

@<SCITEGIC>MOL_PROPERTY
Valence
SciTegic.value.DoubleValue
13.789

@<SCITEGIC>MOL_PROPERTY
Coulomb
SciTegic.value.DoubleValue
-8.574

@<SCITEGIC>MOL_PROPERTY
VdW
SciTegic.value.DoubleValue
0.628

@<SCITEGIC>MOL_PROPERTY
VdW6
SciTegic.value.DoubleValue
-3.284

@<SCITEGIC>MOL_PROPERTY
VdW12
SciTegic.value.DoubleValue
3.913

@<SCITEGIC>MOL_PROPERTY
Bond
SciTegic.value.DoubleValue
0.054

@<SCITEGIC>MOL_PROPERTY
Angle
SciTegic.value.DoubleValue
4.033

@<SCITEGIC>MOL_PROPERTY
Pdih
SciTegic.value.DoubleValue
9.702

@<SCITEGIC>MOL_PROPERTY
Idih
SciTegic.value.DoubleValue
0.000

@<SCITEGIC>MOL_PROPERTY
Tether
SciTegic.value.DoubleValue
0.000

@<TRIPOS>MOLECULE
guest-4_confgen4.mol2 : confsearch ligand conformer 189
          16          16           1
SMALL
USER_CHARGES
 
@<TRIPOS>ATOM
       1    C1      20.147933   17.910312   21.419893 C.3        1 MOL1        -0.1689
       2    H1      20.459641   16.929424   21.804505 H          1 MOL1         0.0830
       3    H2      20.566442   18.020705   20.410111 H          1 MOL1         0.0830
       4    C2      20.643285   19.026672   22.365085 C.3        1 MOL1        -0.1689
       5    H3      21.195627   18.586154   23.206565 H          1 MOL1         0.0830
       6    H4      21.320136   19.721644   21.849444 H          1 MOL1         0.0830
       7    C3      19.383777   19.756820   22.877880 C.3        1 MOL1        -0.1765
       8    H5      19.216586   20.663126   22.280991 H          1 MOL1         0.0830
       9    H6      19.478148   20.061515   23.928719 H          1 MOL1         0.0830
      10    C4      18.212313   18.790732   22.655759 C.3        1 MOL1         0.1214
      11    H7      17.264170   19.329775   22.516333 H          1 MOL1         0.0787
      12    C5      18.607760   18.008583   21.396068 C.3        1 MOL1        -0.1765
      13    H8      18.128308   17.021591   21.351618 H          1 MOL1         0.0830
      14    H9      18.289923   18.574600   20.510502 H          1 MOL1         0.0830
      15    O1      18.129307   17.895674   23.755207 O.3        1 MOL1        -0.5512
      16    H10     19.008397   17.466436   23.801236 H          1 MOL1         0.3776
@<TRIPOS>BOND
    1     1     2    1
    2     1     3    1
    3     1     4    1
    4     4     5    1
    5     4     6    1
    6     4     7    1
    7     7     8    1
    8     7     9    1
    9     7    10    1
   10    10    11    1
   11     1    12    1
   12    10    12    1
   13    12    13    1
   14    12    14    1
   15    10    15    1
   16    15    16    1
@<TRIPOS>SUBSTRUCTURE
       1 MOL1            1 RESIDUE      1      MOL     
@<SCITEGIC>MOL_PROPERTY
VConf Rank
SciTegic.value.IntegerValue
189

@<SCITEGIC>MOL_PROPERTY
Conf_Id
SciTegic.value.IntegerValue
20

@<SCITEGIC>MOL_PROPERTY
Delta U+W
SciTegic.value.DoubleValue
-0.483

@<SCITEGIC>MOL_PROPERTY
U+W
SciTegic.value.DoubleValue
2.527

@<SCITEGIC>MOL_PROPERTY
Grad RMS
SciTegic.value.DoubleValue
0.000000

@<SCITEGIC>MOL_PROPERTY
U
SciTegic.value.DoubleValue
4.508

@<SCITEGIC>MOL_PROPERTY
W
SciTegic.value.DoubleValue
-1.981

@<SCITEGIC>MOL_PROPERTY
W(PB)
SciTegic.value.DoubleValue
-3.712

@<SCITEGIC>MOL_PROPERTY
W(SA)
SciTegic.value.DoubleValue
1.732

@<SCITEGIC>MOL_PROPERTY
Valence
SciTegic.value.DoubleValue
14.705

@<SCITEGIC>MOL_PROPERTY
Coulomb
SciTegic.value.DoubleValue
-10.687

@<SCITEGIC>MOL_PROPERTY
VdW
SciTegic.value.DoubleValue
0.490

@<SCITEGIC>MOL_PROPERTY
VdW6
SciTegic.value.DoubleValue
-3.745

@<SCITEGIC>MOL_PROPERTY
VdW12
SciTegic.value.DoubleValue
4.235

@<SCITEGIC>MOL_PROPERTY
Bond
SciTegic.value.DoubleValue
0.068

@<SCITEGIC>MOL_PROPERTY
Angle
SciTegic.value.DoubleValue
3.901

@<SCITEGIC>MOL_PROPERTY
Pdih
SciTegic.value.DoubleValue
10.737

@<SCITEGIC>MOL_PROPERTY
Idih
SciTegic.value.DoubleValue
0.000

@<SCITEGIC>MOL_PROPERTY
Tether
SciTegic.value.DoubleValue
0.000

@<TRIPOS>MOLECULE
guest-4_confgen4.mol2 : confsearch ligand conformer 190
          16          16           1
SMALL
USER_CHARGES
 
@<TRIPOS>ATOM
       1    C1      18.873182   17.183586   22.330740 C.3        1 MOL1        -0.1689
       2    H1      17.814285   17.253236   22.045148 H          1 MOL1         0.0830
       3    H2      19.128185   16.121849   22.450449 H          1 MOL1         0.0830
       4    C2      19.114451   17.992532   23.612584 C.3        1 MOL1        -0.1689
       5    H3      18.292601   17.887659   24.333918 H          1 MOL1         0.0830
       6    H4      20.041039   17.652231   24.095549 H          1 MOL1         0.0830
       7    C3      19.283860   19.442807   23.124157 C.3        1 MOL1        -0.1765
       8    H5      19.938175   20.017304   23.792492 H          1 MOL1         0.0830
       9    H6      18.302853   19.936844   23.105751 H          1 MOL1         0.0830
      10    C4      19.865728   19.356039   21.697420 C.3        1 MOL1         0.1214
      11    H7      20.927194   19.643685   21.705725 H          1 MOL1         0.0787
      12    C5      19.741164   17.880034   21.266457 C.3        1 MOL1        -0.1765
      13    H8      19.311142   17.774100   20.261529 H          1 MOL1         0.0830
      14    H9      20.740522   17.426015   21.251292 H          1 MOL1         0.0830
      15    O1      19.125145   20.189362   20.813680 O.3        1 MOL1        -0.5512
      16    H10     19.230040   21.108251   21.139520 H          1 MOL1         0.3776
@<TRIPOS>BOND
    1     1     2    1
    2     1     3    1
    3     1     4    1
    4     4     5    1
    5     4     6    1
    6     4     7    1
    7     7     8    1
    8     7     9    1
    9     7    10    1
   10    10    11    1
   11     1    12    1
   12    10    12    1
   13    12    13    1
   14    12    14    1
   15    10    15    1
   16    15    16    1
@<TRIPOS>SUBSTRUCTURE
       1 MOL1            1 RESIDUE      1      MOL     
@<SCITEGIC>MOL_PROPERTY
VConf Rank
SciTegic.value.IntegerValue
190

@<SCITEGIC>MOL_PROPERTY
Conf_Id
SciTegic.value.IntegerValue
59

@<SCITEGIC>MOL_PROPERTY
Delta U+W
SciTegic.value.DoubleValue
0.000

@<SCITEGIC>MOL_PROPERTY
U+W
SciTegic.value.DoubleValue
3.010

@<SCITEGIC>MOL_PROPERTY
Grad RMS
SciTegic.value.DoubleValue
0.000000

@<SCITEGIC>MOL_PROPERTY
U
SciTegic.value.DoubleValue
5.843

@<SCITEGIC>MOL_PROPERTY
W
SciTegic.value.DoubleValue
-2.833

@<SCITEGIC>MOL_PROPERTY
W(PB)
SciTegic.value.DoubleValue
-4.568

@<SCITEGIC>MOL_PROPERTY
W(SA)
SciTegic.value.DoubleValue
1.735

@<SCITEGIC>MOL_PROPERTY
Valence
SciTegic.value.DoubleValue
13.789

@<SCITEGIC>MOL_PROPERTY
Coulomb
SciTegic.value.DoubleValue
-8.574

@<SCITEGIC>MOL_PROPERTY
VdW
SciTegic.value.DoubleValue
0.628

@<SCITEGIC>MOL_PROPERTY
VdW6
SciTegic.value.DoubleValue
-3.284

@<SCITEGIC>MOL_PROPERTY
VdW12
SciTegic.value.DoubleValue
3.912

@<SCITEGIC>MOL_PROPERTY
Bond
SciTegic.value.DoubleValue
0.054

@<SCITEGIC>MOL_PROPERTY
Angle
SciTegic.value.DoubleValue
4.034

@<SCITEGIC>MOL_PROPERTY
Pdih
SciTegic.value.DoubleValue
9.702

@<SCITEGIC>MOL_PROPERTY
Idih
SciTegic.value.DoubleValue
0.000

@<SCITEGIC>MOL_PROPERTY
Tether
SciTegic.value.DoubleValue
0.000

@<TRIPOS>MOLECULE
guest-4_confgen4.mol2 : confsearch ligand conformer 191
          16          16           1
SMALL
USER_CHARGES
 
@<TRIPOS>ATOM
       1    C1      19.727591   17.206071   22.377841 C.3        1 MOL1        -0.1689
       2    H1      20.452872   16.526478   22.845687 H          1 MOL1         0.0830
       3    H2      18.923471   16.600149   21.937531 H          1 MOL1         0.0830
       4    C2      20.365771   18.084033   21.292652 C.3        1 MOL1        -0.1689
       5    H3      21.363442   18.407859   21.620476 H          1 MOL1         0.0830
       6    H4      20.472603   17.556342   20.335170 H          1 MOL1         0.0830
       7    C3      19.435003   19.306355   21.189332 C.3        1 MOL1        -0.1765
       8    H5      18.654947   19.113273   20.441457 H          1 MOL1         0.0830
       9    H6      19.981995   20.205791   20.876546 H          1 MOL1         0.0830
      10    C4      18.774449   19.474395   22.573250 C.3        1 MOL1         0.1214
      11    H7      17.683995   19.545286   22.449140 H          1 MOL1         0.0787
      12    C5      19.132922   18.210038   23.382345 C.3        1 MOL1        -0.1765
      13    H8      19.885145   18.447853   24.146797 H          1 MOL1         0.0830
      14    H9      18.254012   17.794577   23.892008 H          1 MOL1         0.0830
      15    O1      19.283686   20.633357   23.222390 O.3        1 MOL1        -0.5512
      16    H10     18.840712   20.684053   24.095736 H          1 MOL1         0.3776
@<TRIPOS>BOND
    1     1     2    1
    2     1     3    1
    3     1     4    1
    4     4     5    1
    5     4     6    1
    6     4     7    1
    7     7     8    1
    8     7     9    1
    9     7    10    1
   10    10    11    1
   11     1    12    1
   12    10    12    1
   13    12    13    1
   14    12    14    1
   15    10    15    1
   16    15    16    1
@<TRIPOS>SUBSTRUCTURE
       1 MOL1            1 RESIDUE      1      MOL     
@<SCITEGIC>MOL_PROPERTY
VConf Rank
SciTegic.value.IntegerValue
191

@<SCITEGIC>MOL_PROPERTY
Conf_Id
SciTegic.value.IntegerValue
33

@<SCITEGIC>MOL_PROPERTY
Delta U+W
SciTegic.value.DoubleValue
0.015

@<SCITEGIC>MOL_PROPERTY
U+W
SciTegic.value.DoubleValue
3.025

@<SCITEGIC>MOL_PROPERTY
Grad RMS
SciTegic.value.DoubleValue
0.000000

@<SCITEGIC>MOL_PROPERTY
U
SciTegic.value.DoubleValue
5.843

@<SCITEGIC>MOL_PROPERTY
W
SciTegic.value.DoubleValue
-2.819

@<SCITEGIC>MOL_PROPERTY
W(PB)
SciTegic.value.DoubleValue
-4.568

@<SCITEGIC>MOL_PROPERTY
W(SA)
SciTegic.value.DoubleValue
1.750

@<SCITEGIC>MOL_PROPERTY
Valence
SciTegic.value.DoubleValue
13.789

@<SCITEGIC>MOL_PROPERTY
Coulomb
SciTegic.value.DoubleValue
-8.574

@<SCITEGIC>MOL_PROPERTY
VdW
SciTegic.value.DoubleValue
0.628

@<SCITEGIC>MOL_PROPERTY
VdW6
SciTegic.value.DoubleValue
-3.284

@<SCITEGIC>MOL_PROPERTY
VdW12
SciTegic.value.DoubleValue
3.913

@<SCITEGIC>MOL_PROPERTY
Bond
SciTegic.value.DoubleValue
0.054

@<SCITEGIC>MOL_PROPERTY
Angle
SciTegic.value.DoubleValue
4.033

@<SCITEGIC>MOL_PROPERTY
Pdih
SciTegic.value.DoubleValue
9.702

@<SCITEGIC>MOL_PROPERTY
Idih
SciTegic.value.DoubleValue
0.000

@<SCITEGIC>MOL_PROPERTY
Tether
SciTegic.value.DoubleValue
0.000

@<TRIPOS>MOLECULE
guest-4_confgen4.mol2 : confsearch ligand conformer 192
          16          16           1
SMALL
USER_CHARGES
 
@<TRIPOS>ATOM
       1    C1      18.943379   19.088633   21.088937 C.3        1 MOL1        -0.1689
       2    H1      19.169339   20.150992   20.922919 H          1 MOL1         0.0830
       3    H2      18.419284   18.716182   20.198093 H          1 MOL1         0.0830
       4    C2      18.084406   18.927091   22.362157 C.3        1 MOL1        -0.1689
       5    H3      17.893761   19.911342   22.811745 H          1 MOL1         0.0830
       6    H4      17.111347   18.469186   22.137480 H          1 MOL1         0.0830
       7    C3      18.900956   18.046952   23.332228 C.3        1 MOL1        -0.1765
       8    H5      18.561012   17.005589   23.257256 H          1 MOL1         0.0830
       9    H6      18.784934   18.361840   24.377882 H          1 MOL1         0.0830
      10    C4      20.358095   18.130809   22.858196 C.3        1 MOL1         0.1214
      11    H7      20.923010   17.225933   23.124756 H          1 MOL1         0.0787
      12    C5      20.246205   18.299022   21.336966 C.3        1 MOL1        -0.1765
      13    H8      21.124480   18.799726   20.908092 H          1 MOL1         0.0830
      14    H9      20.167730   17.306791   20.873350 H          1 MOL1         0.0830
      15    O1      20.964648   19.288664   23.413418 O.3        1 MOL1        -0.5512
      16    H10     20.399165   20.035011   23.126439 H          1 MOL1         0.3776
@<TRIPOS>BOND
    1     1     2    1
    2     1     3    1
    3     1     4    1
    4     4     5    1
    5     4     6    1
    6     4     7    1
    7     7     8    1
    8     7     9    1
    9     7    10    1
   10    10    11    1
   11     1    12    1
   12    10    12    1
   13    12    13    1
   14    12    14    1
   15    10    15    1
   16    15    16    1
@<TRIPOS>SUBSTRUCTURE
       1 MOL1            1 RESIDUE      1      MOL     
@<SCITEGIC>MOL_PROPERTY
VConf Rank
SciTegic.value.IntegerValue
192

@<SCITEGIC>MOL_PROPERTY
Conf_Id
SciTegic.value.IntegerValue
20

@<SCITEGIC>MOL_PROPERTY
Delta U+W
SciTegic.value.DoubleValue
-0.483

@<SCITEGIC>MOL_PROPERTY
U+W
SciTegic.value.DoubleValue
2.527

@<SCITEGIC>MOL_PROPERTY
Grad RMS
SciTegic.value.DoubleValue
0.000000

@<SCITEGIC>MOL_PROPERTY
U
SciTegic.value.DoubleValue
4.508

@<SCITEGIC>MOL_PROPERTY
W
SciTegic.value.DoubleValue
-1.981

@<SCITEGIC>MOL_PROPERTY
W(PB)
SciTegic.value.DoubleValue
-3.712

@<SCITEGIC>MOL_PROPERTY
W(SA)
SciTegic.value.DoubleValue
1.732

@<SCITEGIC>MOL_PROPERTY
Valence
SciTegic.value.DoubleValue
14.705

@<SCITEGIC>MOL_PROPERTY
Coulomb
SciTegic.value.DoubleValue
-10.687

@<SCITEGIC>MOL_PROPERTY
VdW
SciTegic.value.DoubleValue
0.490

@<SCITEGIC>MOL_PROPERTY
VdW6
SciTegic.value.DoubleValue
-3.745

@<SCITEGIC>MOL_PROPERTY
VdW12
SciTegic.value.DoubleValue
4.235

@<SCITEGIC>MOL_PROPERTY
Bond
SciTegic.value.DoubleValue
0.068

@<SCITEGIC>MOL_PROPERTY
Angle
SciTegic.value.DoubleValue
3.901

@<SCITEGIC>MOL_PROPERTY
Pdih
SciTegic.value.DoubleValue
10.737

@<SCITEGIC>MOL_PROPERTY
Idih
SciTegic.value.DoubleValue
0.000

@<SCITEGIC>MOL_PROPERTY
Tether
SciTegic.value.DoubleValue
0.000

@<TRIPOS>MOLECULE
guest-4_confgen4.mol2 : confsearch ligand conformer 193
          16          16           1
SMALL
USER_CHARGES
 
@<TRIPOS>ATOM
       1    C1      20.014278   19.697887   22.926430 C.3        1 MOL1        -0.1689
       2    H1      19.911420   19.538759   24.008916 H          1 MOL1         0.0830
       3    H2      20.608315   20.608079   22.767330 H          1 MOL1         0.0830
       4    C2      18.622681   19.786558   22.285085 C.3        1 MOL1        -0.1689
       5    H3      17.910908   20.346701   22.906679 H          1 MOL1         0.0830
       6    H4      18.696279   20.288177   21.310104 H          1 MOL1         0.0830
       7    C3      18.198619   18.319944   22.085655 C.3        1 MOL1        -0.1765
       8    H5      17.524754   18.210566   21.226127 H          1 MOL1         0.0830
       9    H6      17.664127   17.971540   22.979925 H          1 MOL1         0.0830
      10    C4      19.500063   17.513363   21.892393 C.3        1 MOL1         0.1214
      11    H7      19.608610   17.221105   20.837727 H          1 MOL1         0.0787
      12    C5      20.657375   18.456242   22.281547 C.3        1 MOL1        -0.1765
      13    H8      21.376703   17.975988   22.958263 H          1 MOL1         0.0830
      14    H9      21.199243   18.751496   21.373645 H          1 MOL1         0.0830
      15    O1      19.496807   16.366950   22.734780 O.3        1 MOL1        -0.5512
      16    H10     18.739386   15.812178   22.451805 H          1 MOL1         0.3776
@<TRIPOS>BOND
    1     1     2    1
    2     1     3    1
    3     1     4    1
    4     4     5    1
    5     4     6    1
    6     4     7    1
    7     7     8    1
    8     7     9    1
    9     7    10    1
   10    10    11    1
   11     1    12    1
   12    10    12    1
   13    12    13    1
   14    12    14    1
   15    10    15    1
   16    15    16    1
@<TRIPOS>SUBSTRUCTURE
       1 MOL1            1 RESIDUE      1      MOL     
@<SCITEGIC>MOL_PROPERTY
VConf Rank
SciTegic.value.IntegerValue
193

@<SCITEGIC>MOL_PROPERTY
Conf_Id
SciTegic.value.IntegerValue
59

@<SCITEGIC>MOL_PROPERTY
Delta U+W
SciTegic.value.DoubleValue
0.000

@<SCITEGIC>MOL_PROPERTY
U+W
SciTegic.value.DoubleValue
3.010

@<SCITEGIC>MOL_PROPERTY
Grad RMS
SciTegic.value.DoubleValue
0.000000

@<SCITEGIC>MOL_PROPERTY
U
SciTegic.value.DoubleValue
5.843

@<SCITEGIC>MOL_PROPERTY
W
SciTegic.value.DoubleValue
-2.833

@<SCITEGIC>MOL_PROPERTY
W(PB)
SciTegic.value.DoubleValue
-4.568

@<SCITEGIC>MOL_PROPERTY
W(SA)
SciTegic.value.DoubleValue
1.735

@<SCITEGIC>MOL_PROPERTY
Valence
SciTegic.value.DoubleValue
13.789

@<SCITEGIC>MOL_PROPERTY
Coulomb
SciTegic.value.DoubleValue
-8.574

@<SCITEGIC>MOL_PROPERTY
VdW
SciTegic.value.DoubleValue
0.628

@<SCITEGIC>MOL_PROPERTY
VdW6
SciTegic.value.DoubleValue
-3.284

@<SCITEGIC>MOL_PROPERTY
VdW12
SciTegic.value.DoubleValue
3.912

@<SCITEGIC>MOL_PROPERTY
Bond
SciTegic.value.DoubleValue
0.054

@<SCITEGIC>MOL_PROPERTY
Angle
SciTegic.value.DoubleValue
4.034

@<SCITEGIC>MOL_PROPERTY
Pdih
SciTegic.value.DoubleValue
9.702

@<SCITEGIC>MOL_PROPERTY
Idih
SciTegic.value.DoubleValue
0.000

@<SCITEGIC>MOL_PROPERTY
Tether
SciTegic.value.DoubleValue
0.000

@<TRIPOS>MOLECULE
guest-4_confgen4.mol2 : confsearch ligand conformer 194
          16          16           1
SMALL
USER_CHARGES
 
@<TRIPOS>ATOM
       1    C1      20.323596   17.859822   21.435191 C.3        1 MOL1        -0.1689
       2    H1      20.265766   17.215597   20.547278 H          1 MOL1         0.0830
       3    H2      21.383493   18.056977   21.648190 H          1 MOL1         0.0830
       4    C2      19.660089   17.222148   22.663547 C.3        1 MOL1        -0.1689
       5    H3      18.739249   16.705859   22.358297 H          1 MOL1         0.0830
       6    H4      20.313623   16.493891   23.162724 H          1 MOL1         0.0830
       7    C3      19.306107   18.413763   23.572297 C.3        1 MOL1        -0.1765
       8    H5      20.144050   18.621712   24.250303 H          1 MOL1         0.0830
       9    H6      18.422082   18.203366   24.188943 H          1 MOL1         0.0830
      10    C4      19.096978   19.627946   22.643953 C.3        1 MOL1         0.1214
      11    H7      19.706397   20.469711   23.003897 H          1 MOL1         0.0787
      12    C5      19.574503   19.191173   21.242905 C.3        1 MOL1        -0.1765
      13    H8      18.713297   19.030990   20.579996 H          1 MOL1         0.0830
      14    H9      20.218581   19.950714   20.781268 H          1 MOL1         0.0830
      15    O1      17.720144   19.983845   22.604453 O.3        1 MOL1        -0.5512
      16    H10     17.644660   20.748397   21.995116 H          1 MOL1         0.3776
@<TRIPOS>BOND
    1     1     2    1
    2     1     3    1
    3     1     4    1
    4     4     5    1
    5     4     6    1
    6     4     7    1
    7     7     8    1
    8     7     9    1
    9     7    10    1
   10    10    11    1
   11     1    12    1
   12    10    12    1
   13    12    13    1
   14    12    14    1
   15    10    15    1
   16    15    16    1
@<TRIPOS>SUBSTRUCTURE
       1 MOL1            1 RESIDUE      1      MOL     
@<SCITEGIC>MOL_PROPERTY
VConf Rank
SciTegic.value.IntegerValue
194

@<SCITEGIC>MOL_PROPERTY
Conf_Id
SciTegic.value.IntegerValue
33

@<SCITEGIC>MOL_PROPERTY
Delta U+W
SciTegic.value.DoubleValue
0.015

@<SCITEGIC>MOL_PROPERTY
U+W
SciTegic.value.DoubleValue
3.025

@<SCITEGIC>MOL_PROPERTY
Grad RMS
SciTegic.value.DoubleValue
0.000000

@<SCITEGIC>MOL_PROPERTY
U
SciTegic.value.DoubleValue
5.843

@<SCITEGIC>MOL_PROPERTY
W
SciTegic.value.DoubleValue
-2.819

@<SCITEGIC>MOL_PROPERTY
W(PB)
SciTegic.value.DoubleValue
-4.568

@<SCITEGIC>MOL_PROPERTY
W(SA)
SciTegic.value.DoubleValue
1.750

@<SCITEGIC>MOL_PROPERTY
Valence
SciTegic.value.DoubleValue
13.789

@<SCITEGIC>MOL_PROPERTY
Coulomb
SciTegic.value.DoubleValue
-8.574

@<SCITEGIC>MOL_PROPERTY
VdW
SciTegic.value.DoubleValue
0.628

@<SCITEGIC>MOL_PROPERTY
VdW6
SciTegic.value.DoubleValue
-3.284

@<SCITEGIC>MOL_PROPERTY
VdW12
SciTegic.value.DoubleValue
3.913

@<SCITEGIC>MOL_PROPERTY
Bond
SciTegic.value.DoubleValue
0.054

@<SCITEGIC>MOL_PROPERTY
Angle
SciTegic.value.DoubleValue
4.033

@<SCITEGIC>MOL_PROPERTY
Pdih
SciTegic.value.DoubleValue
9.702

@<SCITEGIC>MOL_PROPERTY
Idih
SciTegic.value.DoubleValue
0.000

@<SCITEGIC>MOL_PROPERTY
Tether
SciTegic.value.DoubleValue
0.000

@<TRIPOS>MOLECULE
guest-4_confgen4.mol2 : confsearch ligand conformer 195
          16          16           1
SMALL
USER_CHARGES
 
@<TRIPOS>ATOM
       1    C1      18.082749   18.302748   22.148025 C.3        1 MOL1        -0.1689
       2    H1      17.411145   19.172241   22.135492 H          1 MOL1         0.0830
       3    H2      17.463067   17.401443   22.044871 H          1 MOL1         0.0830
       4    C2      18.895594   18.285818   23.461044 C.3        1 MOL1        -0.1689
       5    H3      18.616627   19.146513   24.084428 H          1 MOL1         0.0830
       6    H4      18.701877   17.375147   24.044268 H          1 MOL1         0.0830
       7    C3      20.382231   18.379895   23.056697 C.3        1 MOL1        -0.1765
       8    H5      20.824314   17.374855   23.047870 H          1 MOL1         0.0830
       9    H6      20.965326   18.995274   23.754777 H          1 MOL1         0.0830
      10    C4      20.399802   18.944542   21.629862 C.3        1 MOL1         0.1214
      11    H7      21.289710   18.614237   21.074933 H          1 MOL1         0.0787
      12    C5      19.108796   18.405178   20.999508 C.3        1 MOL1        -0.1765
      13    H8      18.751113   19.038943   20.177067 H          1 MOL1         0.0830
      14    H9      19.302650   17.404821   20.590450 H          1 MOL1         0.0830
      15    O1      20.335607   20.362082   21.687016 O.3        1 MOL1        -0.5512
      16    H10     19.521146   20.560025   22.193607 H          1 MOL1         0.3776
@<TRIPOS>BOND
    1     1     2    1
    2     1     3    1
    3     1     4    1
    4     4     5    1
    5     4     6    1
    6     4     7    1
    7     7     8    1
    8     7     9    1
    9     7    10    1
   10    10    11    1
   11     1    12    1
   12    10    12    1
   13    12    13    1
   14    12    14    1
   15    10    15    1
   16    15    16    1
@<TRIPOS>SUBSTRUCTURE
       1 MOL1            1 RESIDUE      1      MOL     
@<SCITEGIC>MOL_PROPERTY
VConf Rank
SciTegic.value.IntegerValue
195

@<SCITEGIC>MOL_PROPERTY
Conf_Id
SciTegic.value.IntegerValue
20

@<SCITEGIC>MOL_PROPERTY
Delta U+W
SciTegic.value.DoubleValue
-0.483

@<SCITEGIC>MOL_PROPERTY
U+W
SciTegic.value.DoubleValue
2.527

@<SCITEGIC>MOL_PROPERTY
Grad RMS
SciTegic.value.DoubleValue
0.000000

@<SCITEGIC>MOL_PROPERTY
U
SciTegic.value.DoubleValue
4.508

@<SCITEGIC>MOL_PROPERTY
W
SciTegic.value.DoubleValue
-1.981

@<SCITEGIC>MOL_PROPERTY
W(PB)
SciTegic.value.DoubleValue
-3.712

@<SCITEGIC>MOL_PROPERTY
W(SA)
SciTegic.value.DoubleValue
1.732

@<SCITEGIC>MOL_PROPERTY
Valence
SciTegic.value.DoubleValue
14.705

@<SCITEGIC>MOL_PROPERTY
Coulomb
SciTegic.value.DoubleValue
-10.687

@<SCITEGIC>MOL_PROPERTY
VdW
SciTegic.value.DoubleValue
0.490

@<SCITEGIC>MOL_PROPERTY
VdW6
SciTegic.value.DoubleValue
-3.745

@<SCITEGIC>MOL_PROPERTY
VdW12
SciTegic.value.DoubleValue
4.235

@<SCITEGIC>MOL_PROPERTY
Bond
SciTegic.value.DoubleValue
0.068

@<SCITEGIC>MOL_PROPERTY
Angle
SciTegic.value.DoubleValue
3.901

@<SCITEGIC>MOL_PROPERTY
Pdih
SciTegic.value.DoubleValue
10.737

@<SCITEGIC>MOL_PROPERTY
Idih
SciTegic.value.DoubleValue
0.000

@<SCITEGIC>MOL_PROPERTY
Tether
SciTegic.value.DoubleValue
0.000

@<TRIPOS>MOLECULE
guest-4_confgen4.mol2 : confsearch ligand conformer 196
          16          16           1
SMALL
USER_CHARGES
 
@<TRIPOS>ATOM
       1    C1      18.387055   17.482828   22.466389 C.3        1 MOL1        -0.1689
       2    H1      18.658522   16.984728   23.407601 H          1 MOL1         0.0830
       3    H2      17.478684   17.005725   22.074115 H          1 MOL1         0.0830
       4    C2      19.563126   17.401390   21.483561 C.3        1 MOL1        -0.1689
       5    H3      20.071596   16.428304   21.519914 H          1 MOL1         0.0830
       6    H4      19.200170   17.561336   20.458717 H          1 MOL1         0.0830
       7    C3      20.487818   18.561412   21.895691 C.3        1 MOL1        -0.1765
       8    H5      21.055995   18.945396   21.038616 H          1 MOL1         0.0830
       9    H6      21.207476   18.203787   22.644677 H          1 MOL1         0.0830
      10    C4      19.577115   19.648016   22.505274 C.3        1 MOL1         0.1214
      11    H7      19.474686   20.489664   21.804805 H          1 MOL1         0.0787
      12    C5      18.197771   18.990351   22.716745 C.3        1 MOL1        -0.1765
      13    H8      17.791858   19.185995   23.718234 H          1 MOL1         0.0830
      14    H9      17.490033   19.399514   21.984096 H          1 MOL1         0.0830
      15    O1      20.105809   20.090200   23.749799 O.3        1 MOL1        -0.5512
      16    H10     20.981853   20.486887   23.558177 H          1 MOL1         0.3776
@<TRIPOS>BOND
    1     1     2    1
    2     1     3    1
    3     1     4    1
    4     4     5    1
    5     4     6    1
    6     4     7    1
    7     7     8    1
    8     7     9    1
    9     7    10    1
   10    10    11    1
   11     1    12    1
   12    10    12    1
   13    12    13    1
   14    12    14    1
   15    10    15    1
   16    15    16    1
@<TRIPOS>SUBSTRUCTURE
       1 MOL1            1 RESIDUE      1      MOL     
@<SCITEGIC>MOL_PROPERTY
VConf Rank
SciTegic.value.IntegerValue
196

@<SCITEGIC>MOL_PROPERTY
Conf_Id
SciTegic.value.IntegerValue
59

@<SCITEGIC>MOL_PROPERTY
Delta U+W
SciTegic.value.DoubleValue
0.000

@<SCITEGIC>MOL_PROPERTY
U+W
SciTegic.value.DoubleValue
3.010

@<SCITEGIC>MOL_PROPERTY
Grad RMS
SciTegic.value.DoubleValue
0.000000

@<SCITEGIC>MOL_PROPERTY
U
SciTegic.value.DoubleValue
5.843

@<SCITEGIC>MOL_PROPERTY
W
SciTegic.value.DoubleValue
-2.833

@<SCITEGIC>MOL_PROPERTY
W(PB)
SciTegic.value.DoubleValue
-4.568

@<SCITEGIC>MOL_PROPERTY
W(SA)
SciTegic.value.DoubleValue
1.735

@<SCITEGIC>MOL_PROPERTY
Valence
SciTegic.value.DoubleValue
13.789

@<SCITEGIC>MOL_PROPERTY
Coulomb
SciTegic.value.DoubleValue
-8.574

@<SCITEGIC>MOL_PROPERTY
VdW
SciTegic.value.DoubleValue
0.628

@<SCITEGIC>MOL_PROPERTY
VdW6
SciTegic.value.DoubleValue
-3.284

@<SCITEGIC>MOL_PROPERTY
VdW12
SciTegic.value.DoubleValue
3.912

@<SCITEGIC>MOL_PROPERTY
Bond
SciTegic.value.DoubleValue
0.054

@<SCITEGIC>MOL_PROPERTY
Angle
SciTegic.value.DoubleValue
4.034

@<SCITEGIC>MOL_PROPERTY
Pdih
SciTegic.value.DoubleValue
9.702

@<SCITEGIC>MOL_PROPERTY
Idih
SciTegic.value.DoubleValue
0.000

@<SCITEGIC>MOL_PROPERTY
Tether
SciTegic.value.DoubleValue
0.000

@<TRIPOS>MOLECULE
guest-4_confgen4.mol2 : confsearch ligand conformer 197
          16          16           1
SMALL
USER_CHARGES
 
@<TRIPOS>ATOM
       1    C1      20.879156   18.486698   22.382559 C.3        1 MOL1        -0.1689
       2    H1      21.681515   18.616098   23.121635 H          1 MOL1         0.0830
       3    H2      21.310288   18.021131   21.485345 H          1 MOL1         0.0830
       4    C2      20.213224   19.816901   22.004642 C.3        1 MOL1        -0.1689
       5    H3      20.104764   20.442392   22.901679 H          1 MOL1         0.0830
       6    H4      20.793003   20.379856   21.260611 H          1 MOL1         0.0830
       7    C3      18.820593   19.416277   21.483916 C.3        1 MOL1        -0.1765
       8    H5      18.868436   19.241087   20.401279 H          1 MOL1         0.0830
       9    H6      18.079581   20.207053   21.661664 H          1 MOL1         0.0830
      10    C4      18.449546   18.096434   22.191120 C.3        1 MOL1         0.1214
      11    H7      18.143984   17.354626   21.438875 H          1 MOL1         0.0787
      12    C5      19.725132   17.618531   22.916532 C.3        1 MOL1        -0.1765
      13    H8      19.626811   17.771316   23.999939 H          1 MOL1         0.0830
      14    H9      19.912416   16.551106   22.742244 H          1 MOL1         0.0830
      15    O1      17.405101   18.320202   23.130780 O.3        1 MOL1        -0.5512
      16    H10     17.219064   17.456201   23.555540 H          1 MOL1         0.3776
@<TRIPOS>BOND
    1     1     2    1
    2     1     3    1
    3     1     4    1
    4     4     5    1
    5     4     6    1
    6     4     7    1
    7     7     8    1
    8     7     9    1
    9     7    10    1
   10    10    11    1
   11     1    12    1
   12    10    12    1
   13    12    13    1
   14    12    14    1
   15    10    15    1
   16    15    16    1
@<TRIPOS>SUBSTRUCTURE
       1 MOL1            1 RESIDUE      1      MOL     
@<SCITEGIC>MOL_PROPERTY
VConf Rank
SciTegic.value.IntegerValue
197

@<SCITEGIC>MOL_PROPERTY
Conf_Id
SciTegic.value.IntegerValue
33

@<SCITEGIC>MOL_PROPERTY
Delta U+W
SciTegic.value.DoubleValue
0.015

@<SCITEGIC>MOL_PROPERTY
U+W
SciTegic.value.DoubleValue
3.025

@<SCITEGIC>MOL_PROPERTY
Grad RMS
SciTegic.value.DoubleValue
0.000000

@<SCITEGIC>MOL_PROPERTY
U
SciTegic.value.DoubleValue
5.843

@<SCITEGIC>MOL_PROPERTY
W
SciTegic.value.DoubleValue
-2.819

@<SCITEGIC>MOL_PROPERTY
W(PB)
SciTegic.value.DoubleValue
-4.568

@<SCITEGIC>MOL_PROPERTY
W(SA)
SciTegic.value.DoubleValue
1.750

@<SCITEGIC>MOL_PROPERTY
Valence
SciTegic.value.DoubleValue
13.789

@<SCITEGIC>MOL_PROPERTY
Coulomb
SciTegic.value.DoubleValue
-8.574

@<SCITEGIC>MOL_PROPERTY
VdW
SciTegic.value.DoubleValue
0.628

@<SCITEGIC>MOL_PROPERTY
VdW6
SciTegic.value.DoubleValue
-3.284

@<SCITEGIC>MOL_PROPERTY
VdW12
SciTegic.value.DoubleValue
3.913

@<SCITEGIC>MOL_PROPERTY
Bond
SciTegic.value.DoubleValue
0.054

@<SCITEGIC>MOL_PROPERTY
Angle
SciTegic.value.DoubleValue
4.033

@<SCITEGIC>MOL_PROPERTY
Pdih
SciTegic.value.DoubleValue
9.702

@<SCITEGIC>MOL_PROPERTY
Idih
SciTegic.value.DoubleValue
0.000

@<SCITEGIC>MOL_PROPERTY
Tether
SciTegic.value.DoubleValue
0.000

@<TRIPOS>MOLECULE
guest-4_confgen4.mol2 : confsearch ligand conformer 198
          16          16           1
SMALL
USER_CHARGES
 
@<TRIPOS>ATOM
       1    C1      19.282277   18.383118   20.945046 C.3        1 MOL1        -0.1689
       2    H1      18.317970   18.672943   20.505340 H          1 MOL1         0.0830
       3    H2      19.913470   17.991569   20.135552 H          1 MOL1         0.0830
       4    C2      19.059365   17.329248   22.051703 C.3        1 MOL1        -0.1689
       5    H3      17.987296   17.108251   22.146861 H          1 MOL1         0.0830
       6    H4      19.574811   16.386720   21.821583 H          1 MOL1         0.0830
       7    C3      19.594217   17.948900   23.360290 C.3        1 MOL1        -0.1765
       8    H5      20.612963   17.585253   23.548807 H          1 MOL1         0.0830
       9    H6      18.978092   17.682231   24.229360 H          1 MOL1         0.0830
      10    C4      19.641788   19.464544   23.124587 C.3        1 MOL1         0.1214
      11    H7      20.416610   19.945434   23.738898 H          1 MOL1         0.0787
      12    C5      19.944582   19.599541   21.626239 C.3        1 MOL1        -0.1765
      13    H8      19.587826   20.552838   21.213984 H          1 MOL1         0.0830
      14    H9      21.031548   19.556857   21.476890 H          1 MOL1         0.0830
      15    O1      18.363259   20.020321   23.395297 O.3        1 MOL1        -0.5512
      16    H10     17.745679   19.535995   22.809477 H          1 MOL1         0.3776
@<TRIPOS>BOND
    1     1     2    1
    2     1     3    1
    3     1     4    1
    4     4     5    1
    5     4     6    1
    6     4     7    1
    7     7     8    1
    8     7     9    1
    9     7    10    1
   10    10    11    1
   11     1    12    1
   12    10    12    1
   13    12    13    1
   14    12    14    1
   15    10    15    1
   16    15    16    1
@<TRIPOS>SUBSTRUCTURE
       1 MOL1            1 RESIDUE      1      MOL     
@<SCITEGIC>MOL_PROPERTY
VConf Rank
SciTegic.value.IntegerValue
198

@<SCITEGIC>MOL_PROPERTY
Conf_Id
SciTegic.value.IntegerValue
20

@<SCITEGIC>MOL_PROPERTY
Delta U+W
SciTegic.value.DoubleValue
-0.483

@<SCITEGIC>MOL_PROPERTY
U+W
SciTegic.value.DoubleValue
2.527

@<SCITEGIC>MOL_PROPERTY
Grad RMS
SciTegic.value.DoubleValue
0.000000

@<SCITEGIC>MOL_PROPERTY
U
SciTegic.value.DoubleValue
4.508

@<SCITEGIC>MOL_PROPERTY
W
SciTegic.value.DoubleValue
-1.981

@<SCITEGIC>MOL_PROPERTY
W(PB)
SciTegic.value.DoubleValue
-3.712

@<SCITEGIC>MOL_PROPERTY
W(SA)
SciTegic.value.DoubleValue
1.732

@<SCITEGIC>MOL_PROPERTY
Valence
SciTegic.value.DoubleValue
14.705

@<SCITEGIC>MOL_PROPERTY
Coulomb
SciTegic.value.DoubleValue
-10.687

@<SCITEGIC>MOL_PROPERTY
VdW
SciTegic.value.DoubleValue
0.490

@<SCITEGIC>MOL_PROPERTY
VdW6
SciTegic.value.DoubleValue
-3.745

@<SCITEGIC>MOL_PROPERTY
VdW12
SciTegic.value.DoubleValue
4.235

@<SCITEGIC>MOL_PROPERTY
Bond
SciTegic.value.DoubleValue
0.068

@<SCITEGIC>MOL_PROPERTY
Angle
SciTegic.value.DoubleValue
3.901

@<SCITEGIC>MOL_PROPERTY
Pdih
SciTegic.value.DoubleValue
10.737

@<SCITEGIC>MOL_PROPERTY
Idih
SciTegic.value.DoubleValue
0.000

@<SCITEGIC>MOL_PROPERTY
Tether
SciTegic.value.DoubleValue
0.000

@<TRIPOS>MOLECULE
guest-4_confgen4.mol2 : confsearch ligand conformer 199
          16          16           1
SMALL
USER_CHARGES
 
@<TRIPOS>ATOM
       1    C1      19.254558   17.715173   21.131272 C.3        1 MOL1        -0.1689
       2    H1      18.180709   17.680706   20.900326 H          1 MOL1         0.0830
       3    H2      19.792200   17.158228   20.351914 H          1 MOL1         0.0830
       4    C2      19.497535   17.142464   22.534373 C.3        1 MOL1        -0.1689
       5    H3      18.869131   16.265812   22.742580 H          1 MOL1         0.0830
       6    H4      20.549958   16.842270   22.633953 H          1 MOL1         0.0830
       7    C3      19.198611   18.316588   23.484443 C.3        1 MOL1        -0.1765
       8    H5      19.788019   18.245576   24.407699 H          1 MOL1         0.0830
       9    H6      18.135503   18.298804   23.760612 H          1 MOL1         0.0830
      10    C4      19.525880   19.604805   22.700178 C.3        1 MOL1         0.1214
      11    H7      20.461577   20.045546   23.073992 H          1 MOL1         0.0787
      12    C5      19.714214   19.181582   21.228700 C.3        1 MOL1        -0.1765
      13    H8      19.158261   19.826439   20.535088 H          1 MOL1         0.0830
      14    H9      20.778576   19.252086   20.969389 H          1 MOL1         0.0830
      15    O1      18.453046   20.532581   22.810388 O.3        1 MOL1        -0.5512
      16    H10     18.371790   20.756873   23.761505 H          1 MOL1         0.3776
@<TRIPOS>BOND
    1     1     2    1
    2     1     3    1
    3     1     4    1
    4     4     5    1
    5     4     6    1
    6     4     7    1
    7     7     8    1
    8     7     9    1
    9     7    10    1
   10    10    11    1
   11     1    12    1
   12    10    12    1
   13    12    13    1
   14    12    14    1
   15    10    15    1
   16    15    16    1
@<TRIPOS>SUBSTRUCTURE
       1 MOL1            1 RESIDUE      1      MOL     
@<SCITEGIC>MOL_PROPERTY
VConf Rank
SciTegic.value.IntegerValue
199

@<SCITEGIC>MOL_PROPERTY
Conf_Id
SciTegic.value.IntegerValue
59

@<SCITEGIC>MOL_PROPERTY
Delta U+W
SciTegic.value.DoubleValue
0.000

@<SCITEGIC>MOL_PROPERTY
U+W
SciTegic.value.DoubleValue
3.010

@<SCITEGIC>MOL_PROPERTY
Grad RMS
SciTegic.value.DoubleValue
0.000000

@<SCITEGIC>MOL_PROPERTY
U
SciTegic.value.DoubleValue
5.843

@<SCITEGIC>MOL_PROPERTY
W
SciTegic.value.DoubleValue
-2.833

@<SCITEGIC>MOL_PROPERTY
W(PB)
SciTegic.value.DoubleValue
-4.568

@<SCITEGIC>MOL_PROPERTY
W(SA)
SciTegic.value.DoubleValue
1.735

@<SCITEGIC>MOL_PROPERTY
Valence
SciTegic.value.DoubleValue
13.789

@<SCITEGIC>MOL_PROPERTY
Coulomb
SciTegic.value.DoubleValue
-8.574

@<SCITEGIC>MOL_PROPERTY
VdW
SciTegic.value.DoubleValue
0.628

@<SCITEGIC>MOL_PROPERTY
VdW6
SciTegic.value.DoubleValue
-3.284

@<SCITEGIC>MOL_PROPERTY
VdW12
SciTegic.value.DoubleValue
3.912

@<SCITEGIC>MOL_PROPERTY
Bond
SciTegic.value.DoubleValue
0.054

@<SCITEGIC>MOL_PROPERTY
Angle
SciTegic.value.DoubleValue
4.034

@<SCITEGIC>MOL_PROPERTY
Pdih
SciTegic.value.DoubleValue
9.702

@<SCITEGIC>MOL_PROPERTY
Idih
SciTegic.value.DoubleValue
0.000

@<SCITEGIC>MOL_PROPERTY
Tether
SciTegic.value.DoubleValue
0.000

@<TRIPOS>MOLECULE
guest-4_confgen4.mol2 : confsearch ligand conformer 200
          16          16           1
SMALL
USER_CHARGES
 
@<TRIPOS>ATOM
       1    C1      20.483732   17.895483   21.597835 C.3        1 MOL1        -0.1689
       2    H1      21.371136   17.287931   21.821784 H          1 MOL1         0.0830
       3    H2      20.288453   17.833518   20.518183 H          1 MOL1         0.0830
       4    C2      20.663076   19.363980   22.006589 C.3        1 MOL1        -0.1689
       5    H3      21.197479   19.416751   22.965394 H          1 MOL1         0.0830
       6    H4      21.231469   19.939855   21.263662 H          1 MOL1         0.0830
       7    C3      19.227778   19.891827   22.186521 C.3        1 MOL1        -0.1765
       8    H5      18.863134   20.299519   21.234729 H          1 MOL1         0.0830
       9    H6      19.183353   20.696063   22.933013 H          1 MOL1         0.0830
      10    C4      18.359263   18.679103   22.579942 C.3        1 MOL1         0.1214
      11    H7      17.482039   18.630583   21.918397 H          1 MOL1         0.0787
      12    C5      19.241874   17.429093   22.379423 C.3        1 MOL1        -0.1765
      13    H8      19.555218   17.024430   23.351455 H          1 MOL1         0.0830
      14    H9      18.703899   16.637338   21.842251 H          1 MOL1         0.0830
      15    O1      17.958333   18.783754   23.940897 O.3        1 MOL1        -0.5512
      16    H10     17.422379   17.986684   24.138284 H          1 MOL1         0.3776
@<TRIPOS>BOND
    1     1     2    1
    2     1     3    1
    3     1     4    1
    4     4     5    1
    5     4     6    1
    6     4     7    1
    7     7     8    1
    8     7     9    1
    9     7    10    1
   10    10    11    1
   11     1    12    1
   12    10    12    1
   13    12    13    1
   14    12    14    1
   15    10    15    1
   16    15    16    1
@<TRIPOS>SUBSTRUCTURE
       1 MOL1            1 RESIDUE      1      MOL     
@<SCITEGIC>MOL_PROPERTY
VConf Rank
SciTegic.value.IntegerValue
200

@<SCITEGIC>MOL_PROPERTY
Conf_Id
SciTegic.value.IntegerValue
33

@<SCITEGIC>MOL_PROPERTY
Delta U+W
SciTegic.value.DoubleValue
0.015

@<SCITEGIC>MOL_PROPERTY
U+W
SciTegic.value.DoubleValue
3.025

@<SCITEGIC>MOL_PROPERTY
Grad RMS
SciTegic.value.DoubleValue
0.000000

@<SCITEGIC>MOL_PROPERTY
U
SciTegic.value.DoubleValue
5.843

@<SCITEGIC>MOL_PROPERTY
W
SciTegic.value.DoubleValue
-2.819

@<SCITEGIC>MOL_PROPERTY
W(PB)
SciTegic.value.DoubleValue
-4.568

@<SCITEGIC>MOL_PROPERTY
W(SA)
SciTegic.value.DoubleValue
1.750

@<SCITEGIC>MOL_PROPERTY
Valence
SciTegic.value.DoubleValue
13.789

@<SCITEGIC>MOL_PROPERTY
Coulomb
SciTegic.value.DoubleValue
-8.574

@<SCITEGIC>MOL_PROPERTY
VdW
SciTegic.value.DoubleValue
0.628

@<SCITEGIC>MOL_PROPERTY
VdW6
SciTegic.value.DoubleValue
-3.284

@<SCITEGIC>MOL_PROPERTY
VdW12
SciTegic.value.DoubleValue
3.913

@<SCITEGIC>MOL_PROPERTY
Bond
SciTegic.value.DoubleValue
0.054

@<SCITEGIC>MOL_PROPERTY
Angle
SciTegic.value.DoubleValue
4.033

@<SCITEGIC>MOL_PROPERTY
Pdih
SciTegic.value.DoubleValue
9.702

@<SCITEGIC>MOL_PROPERTY
Idih
SciTegic.value.DoubleValue
0.000

@<SCITEGIC>MOL_PROPERTY
Tether
SciTegic.value.DoubleValue
0.000

@<TRIPOS>MOLECULE
guest-4_confgen4.mol2 : confsearch ligand conformer 201
          16          16           1
SMALL
USER_CHARGES
 
@<TRIPOS>ATOM
       1    C1      20.429783   19.431603   22.325586 C.3        1 MOL1        -0.1689
       2    H1      21.377925   18.933123   22.570068 H          1 MOL1         0.0830
       3    H2      20.641378   20.500717   22.186948 H          1 MOL1         0.0830
       4    C2      19.406069   19.197494   23.457939 C.3        1 MOL1        -0.1689
       5    H3      19.859091   18.586613   24.250923 H          1 MOL1         0.0830
       6    H4      19.081379   20.144244   23.910972 H          1 MOL1         0.0830
       7    C3      18.214803   18.448958   22.823105 C.3        1 MOL1        -0.1765
       8    H5      17.420839   19.165910   22.575677 H          1 MOL1         0.0830
       9    H6      17.787157   17.697242   23.499897 H          1 MOL1         0.0830
      10    C4      18.746665   17.826827   21.525003 C.3        1 MOL1         0.1214
      11    H7      17.948722   17.704147   20.778532 H          1 MOL1         0.0787
      12    C5      19.818132   18.816829   21.048757 C.3        1 MOL1        -0.1765
      13    H8      20.575026   18.337096   20.413956 H          1 MOL1         0.0830
      14    H9      19.336430   19.605769   20.456170 H          1 MOL1         0.0830
      15    O1      19.359831   16.580463   21.820657 O.3        1 MOL1        -0.5512
      16    H10     20.048524   16.786730   22.485727 H          1 MOL1         0.3776
@<TRIPOS>BOND
    1     1     2    1
    2     1     3    1
    3     1     4    1
    4     4     5    1
    5     4     6    1
    6     4     7    1
    7     7     8    1
    8     7     9    1
    9     7    10    1
   10    10    11    1
   11     1    12    1
   12    10    12    1
   13    12    13    1
   14    12    14    1
   15    10    15    1
   16    15    16    1
@<TRIPOS>SUBSTRUCTURE
       1 MOL1            1 RESIDUE      1      MOL     
@<SCITEGIC>MOL_PROPERTY
VConf Rank
SciTegic.value.IntegerValue
201

@<SCITEGIC>MOL_PROPERTY
Conf_Id
SciTegic.value.IntegerValue
20

@<SCITEGIC>MOL_PROPERTY
Delta U+W
SciTegic.value.DoubleValue
-0.483

@<SCITEGIC>MOL_PROPERTY
U+W
SciTegic.value.DoubleValue
2.527

@<SCITEGIC>MOL_PROPERTY
Grad RMS
SciTegic.value.DoubleValue
0.000000

@<SCITEGIC>MOL_PROPERTY
U
SciTegic.value.DoubleValue
4.508

@<SCITEGIC>MOL_PROPERTY
W
SciTegic.value.DoubleValue
-1.981

@<SCITEGIC>MOL_PROPERTY
W(PB)
SciTegic.value.DoubleValue
-3.712

@<SCITEGIC>MOL_PROPERTY
W(SA)
SciTegic.value.DoubleValue
1.732

@<SCITEGIC>MOL_PROPERTY
Valence
SciTegic.value.DoubleValue
14.705

@<SCITEGIC>MOL_PROPERTY
Coulomb
SciTegic.value.DoubleValue
-10.687

@<SCITEGIC>MOL_PROPERTY
VdW
SciTegic.value.DoubleValue
0.490

@<SCITEGIC>MOL_PROPERTY
VdW6
SciTegic.value.DoubleValue
-3.745

@<SCITEGIC>MOL_PROPERTY
VdW12
SciTegic.value.DoubleValue
4.235

@<SCITEGIC>MOL_PROPERTY
Bond
SciTegic.value.DoubleValue
0.068

@<SCITEGIC>MOL_PROPERTY
Angle
SciTegic.value.DoubleValue
3.901

@<SCITEGIC>MOL_PROPERTY
Pdih
SciTegic.value.DoubleValue
10.737

@<SCITEGIC>MOL_PROPERTY
Idih
SciTegic.value.DoubleValue
0.000

@<SCITEGIC>MOL_PROPERTY
Tether
SciTegic.value.DoubleValue
0.000

@<TRIPOS>MOLECULE
guest-4_confgen4.mol2 : confsearch ligand conformer 202
          16          16           1
SMALL
USER_CHARGES
 
@<TRIPOS>ATOM
       1    C1      19.619847   18.069954   23.659814 C.3        1 MOL1        -0.1689
       2    H1      18.635876   17.779952   24.053993 H          1 MOL1         0.0830
       3    H2      20.379173   17.822885   24.414151 H          1 MOL1         0.0830
       4    C2      19.611548   19.562841   23.303516 C.3        1 MOL1        -0.1689
       5    H3      19.061094   20.165055   24.039109 H          1 MOL1         0.0830
       6    H4      20.643611   19.937309   23.256131 H          1 MOL1         0.0830
       7    C3      18.972202   19.619129   21.904007 C.3        1 MOL1        -0.1765
       8    H5      19.346191   20.474221   21.326255 H          1 MOL1         0.0830
       9    H6      17.884116   19.730765   22.005942 H          1 MOL1         0.0830
      10    C4      19.310244   18.279074   21.217232 C.3        1 MOL1         0.1214
      11    H7      20.080633   18.434279   20.447861 H          1 MOL1         0.0787
      12    C5      19.869233   17.355147   22.318923 C.3        1 MOL1        -0.1765
      13    H8      19.408626   16.358393   22.300367 H          1 MOL1         0.0830
      14    H9      20.948541   17.226861   22.164922 H          1 MOL1         0.0830
      15    O1      18.137463   17.709699   20.647771 O.3        1 MOL1        -0.5512
      16    H10     17.821167   18.339971   19.966416 H          1 MOL1         0.3776
@<TRIPOS>BOND
    1     1     2    1
    2     1     3    1
    3     1     4    1
    4     4     5    1
    5     4     6    1
    6     4     7    1
    7     7     8    1
    8     7     9    1
    9     7    10    1
   10    10    11    1
   11     1    12    1
   12    10    12    1
   13    12    13    1
   14    12    14    1
   15    10    15    1
   16    15    16    1
@<TRIPOS>SUBSTRUCTURE
       1 MOL1            1 RESIDUE      1      MOL     
@<SCITEGIC>MOL_PROPERTY
VConf Rank
SciTegic.value.IntegerValue
202

@<SCITEGIC>MOL_PROPERTY
Conf_Id
SciTegic.value.IntegerValue
59

@<SCITEGIC>MOL_PROPERTY
Delta U+W
SciTegic.value.DoubleValue
0.000

@<SCITEGIC>MOL_PROPERTY
U+W
SciTegic.value.DoubleValue
3.010

@<SCITEGIC>MOL_PROPERTY
Grad RMS
SciTegic.value.DoubleValue
0.000000

@<SCITEGIC>MOL_PROPERTY
U
SciTegic.value.DoubleValue
5.843

@<SCITEGIC>MOL_PROPERTY
W
SciTegic.value.DoubleValue
-2.833

@<SCITEGIC>MOL_PROPERTY
W(PB)
SciTegic.value.DoubleValue
-4.568

@<SCITEGIC>MOL_PROPERTY
W(SA)
SciTegic.value.DoubleValue
1.735

@<SCITEGIC>MOL_PROPERTY
Valence
SciTegic.value.DoubleValue
13.789

@<SCITEGIC>MOL_PROPERTY
Coulomb
SciTegic.value.DoubleValue
-8.574

@<SCITEGIC>MOL_PROPERTY
VdW
SciTegic.value.DoubleValue
0.628

@<SCITEGIC>MOL_PROPERTY
VdW6
SciTegic.value.DoubleValue
-3.284

@<SCITEGIC>MOL_PROPERTY
VdW12
SciTegic.value.DoubleValue
3.912

@<SCITEGIC>MOL_PROPERTY
Bond
SciTegic.value.DoubleValue
0.054

@<SCITEGIC>MOL_PROPERTY
Angle
SciTegic.value.DoubleValue
4.034

@<SCITEGIC>MOL_PROPERTY
Pdih
SciTegic.value.DoubleValue
9.702

@<SCITEGIC>MOL_PROPERTY
Idih
SciTegic.value.DoubleValue
0.000

@<SCITEGIC>MOL_PROPERTY
Tether
SciTegic.value.DoubleValue
0.000

@<TRIPOS>MOLECULE
guest-4_confgen4.mol2 : confsearch ligand conformer 203
          16          16           1
SMALL
USER_CHARGES
 
@<TRIPOS>ATOM
       1    C1      18.753022   18.218415   21.102091 C.3        1 MOL1        -0.1689
       2    H1      18.595239   18.571073   20.073745 H          1 MOL1         0.0830
       3    H2      18.325540   17.209772   21.188807 H          1 MOL1         0.0830
       4    C2      18.107355   19.143965   22.142379 C.3        1 MOL1        -0.1689
       5    H3      18.248145   20.191414   21.841199 H          1 MOL1         0.0830
       6    H4      17.030326   18.960411   22.256214 H          1 MOL1         0.0830
       7    C3      18.890390   18.870789   23.439803 C.3        1 MOL1        -0.1765
       8    H5      18.405581   18.059983   23.998943 H          1 MOL1         0.0830
       9    H6      18.916711   19.755389   24.090041 H          1 MOL1         0.0830
      10    C4      20.301299   18.414697   23.014229 C.3        1 MOL1         0.1214
      11    H7      20.548416   17.473009   23.525771 H          1 MOL1         0.0787
      12    C5      20.243020   18.187705   21.488839 C.3        1 MOL1        -0.1765
      13    H8      20.771430   18.994849   20.963404 H          1 MOL1         0.0830
      14    H9      20.711717   17.236813   21.204281 H          1 MOL1         0.0830
      15    O1      21.256833   19.421970   23.324476 O.3        1 MOL1        -0.5512
      16    H10     22.127591   19.085657   23.024136 H          1 MOL1         0.3776
@<TRIPOS>BOND
    1     1     2    1
    2     1     3    1
    3     1     4    1
    4     4     5    1
    5     4     6    1
    6     4     7    1
    7     7     8    1
    8     7     9    1
    9     7    10    1
   10    10    11    1
   11     1    12    1
   12    10    12    1
   13    12    13    1
   14    12    14    1
   15    10    15    1
   16    15    16    1
@<TRIPOS>SUBSTRUCTURE
       1 MOL1            1 RESIDUE      1      MOL     
@<SCITEGIC>MOL_PROPERTY
VConf Rank
SciTegic.value.IntegerValue
203

@<SCITEGIC>MOL_PROPERTY
Conf_Id
SciTegic.value.IntegerValue
33

@<SCITEGIC>MOL_PROPERTY
Delta U+W
SciTegic.value.DoubleValue
0.015

@<SCITEGIC>MOL_PROPERTY
U+W
SciTegic.value.DoubleValue
3.025

@<SCITEGIC>MOL_PROPERTY
Grad RMS
SciTegic.value.DoubleValue
0.000000

@<SCITEGIC>MOL_PROPERTY
U
SciTegic.value.DoubleValue
5.843

@<SCITEGIC>MOL_PROPERTY
W
SciTegic.value.DoubleValue
-2.819

@<SCITEGIC>MOL_PROPERTY
W(PB)
SciTegic.value.DoubleValue
-4.568

@<SCITEGIC>MOL_PROPERTY
W(SA)
SciTegic.value.DoubleValue
1.750

@<SCITEGIC>MOL_PROPERTY
Valence
SciTegic.value.DoubleValue
13.789

@<SCITEGIC>MOL_PROPERTY
Coulomb
SciTegic.value.DoubleValue
-8.574

@<SCITEGIC>MOL_PROPERTY
VdW
SciTegic.value.DoubleValue
0.628

@<SCITEGIC>MOL_PROPERTY
VdW6
SciTegic.value.DoubleValue
-3.284

@<SCITEGIC>MOL_PROPERTY
VdW12
SciTegic.value.DoubleValue
3.913

@<SCITEGIC>MOL_PROPERTY
Bond
SciTegic.value.DoubleValue
0.054

@<SCITEGIC>MOL_PROPERTY
Angle
SciTegic.value.DoubleValue
4.033

@<SCITEGIC>MOL_PROPERTY
Pdih
SciTegic.value.DoubleValue
9.702

@<SCITEGIC>MOL_PROPERTY
Idih
SciTegic.value.DoubleValue
0.000

@<SCITEGIC>MOL_PROPERTY
Tether
SciTegic.value.DoubleValue
0.000

@<TRIPOS>MOLECULE
guest-4_confgen4.mol2 : confsearch ligand conformer 204
          16          16           1
SMALL
USER_CHARGES
 
@<TRIPOS>ATOM
       1    C1      19.072238   17.314848   22.373402 C.3        1 MOL1        -0.1689
       2    H1      19.929914   16.636430   22.266775 H          1 MOL1         0.0830
       3    H2      18.182990   16.699805   22.568226 H          1 MOL1         0.0830
       4    C2      18.908429   18.159915   21.091197 C.3        1 MOL1        -0.1689
       5    H3      19.686164   17.889745   20.363623 H          1 MOL1         0.0830
       6    H4      17.933048   17.987685   20.615837 H          1 MOL1         0.0830
       7    C3      19.065532   19.635362   21.516416 C.3        1 MOL1        -0.1765
       8    H5      18.073369   20.084857   21.654934 H          1 MOL1         0.0830
       9    H6      19.599986   20.230705   20.764132 H          1 MOL1         0.0830
      10    C4      19.795466   19.613390   22.866123 C.3        1 MOL1         0.1214
      11    H7      19.542719   20.491879   23.477154 H          1 MOL1         0.0787
      12    C5      19.320950   18.311452   23.525478 C.3        1 MOL1        -0.1765
      13    H8      20.043895   17.928713   24.258189 H          1 MOL1         0.0830
      14    H9      18.378240   18.502900   24.054880 H          1 MOL1         0.0830
      15    O1      21.195479   19.539655   22.639552 O.3        1 MOL1        -0.5512
      16    H10     21.323332   18.736421   22.093997 H          1 MOL1         0.3776
@<TRIPOS>BOND
    1     1     2    1
    2     1     3    1
    3     1     4    1
    4     4     5    1
    5     4     6    1
    6     4     7    1
    7     7     8    1
    8     7     9    1
    9     7    10    1
   10    10    11    1
   11     1    12    1
   12    10    12    1
   13    12    13    1
   14    12    14    1
   15    10    15    1
   16    15    16    1
@<TRIPOS>SUBSTRUCTURE
       1 MOL1            1 RESIDUE      1      MOL     
@<SCITEGIC>MOL_PROPERTY
VConf Rank
SciTegic.value.IntegerValue
204

@<SCITEGIC>MOL_PROPERTY
Conf_Id
SciTegic.value.IntegerValue
20

@<SCITEGIC>MOL_PROPERTY
Delta U+W
SciTegic.value.DoubleValue
-0.483

@<SCITEGIC>MOL_PROPERTY
U+W
SciTegic.value.DoubleValue
2.527

@<SCITEGIC>MOL_PROPERTY
Grad RMS
SciTegic.value.DoubleValue
0.000000

@<SCITEGIC>MOL_PROPERTY
U
SciTegic.value.DoubleValue
4.508

@<SCITEGIC>MOL_PROPERTY
W
SciTegic.value.DoubleValue
-1.981

@<SCITEGIC>MOL_PROPERTY
W(PB)
SciTegic.value.DoubleValue
-3.712

@<SCITEGIC>MOL_PROPERTY
W(SA)
SciTegic.value.DoubleValue
1.732

@<SCITEGIC>MOL_PROPERTY
Valence
SciTegic.value.DoubleValue
14.705

@<SCITEGIC>MOL_PROPERTY
Coulomb
SciTegic.value.DoubleValue
-10.687

@<SCITEGIC>MOL_PROPERTY
VdW
SciTegic.value.DoubleValue
0.490

@<SCITEGIC>MOL_PROPERTY
VdW6
SciTegic.value.DoubleValue
-3.745

@<SCITEGIC>MOL_PROPERTY
VdW12
SciTegic.value.DoubleValue
4.235

@<SCITEGIC>MOL_PROPERTY
Bond
SciTegic.value.DoubleValue
0.068

@<SCITEGIC>MOL_PROPERTY
Angle
SciTegic.value.DoubleValue
3.901

@<SCITEGIC>MOL_PROPERTY
Pdih
SciTegic.value.DoubleValue
10.737

@<SCITEGIC>MOL_PROPERTY
Idih
SciTegic.value.DoubleValue
0.000

@<SCITEGIC>MOL_PROPERTY
Tether
SciTegic.value.DoubleValue
0.000

@<TRIPOS>MOLECULE
guest-4_confgen4.mol2 : confsearch ligand conformer 205
          16          16           1
SMALL
USER_CHARGES
 
@<TRIPOS>ATOM
       1    C1      20.234836   18.002745   23.334473 C.3        1 MOL1        -0.1689
       2    H1      19.561236   17.651752   24.128666 H          1 MOL1         0.0830
       3    H2      21.264094   17.742009   23.616056 H          1 MOL1         0.0830
       4    C2      20.047342   19.512433   23.130962 C.3        1 MOL1        -0.1689
       5    H3      19.911912   20.048504   24.080195 H          1 MOL1         0.0830
       6    H4      20.928516   19.929290   22.623628 H          1 MOL1         0.0830
       7    C3      18.816063   19.625307   22.213483 C.3        1 MOL1        -0.1765
       8    H5      18.862504   20.526755   21.588919 H          1 MOL1         0.0830
       9    H6      17.908607   19.687954   22.829425 H          1 MOL1         0.0830
      10    C4      18.793146   18.342027   21.356542 C.3        1 MOL1         0.1214
      11    H7      19.100596   18.572107   20.325981 H          1 MOL1         0.0787
      12    C5      19.817070   17.377929   21.990521 C.3        1 MOL1        -0.1765
      13    H8      19.410239   16.366640   22.123955 H          1 MOL1         0.0830
      14    H9      20.692020   17.301373   21.331974 H          1 MOL1         0.0830
      15    O1      17.494599   17.761291   21.376810 O.3        1 MOL1        -0.5512
      16    H10     16.886787   18.417417   20.974821 H          1 MOL1         0.3776
@<TRIPOS>BOND
    1     1     2    1
    2     1     3    1
    3     1     4    1
    4     4     5    1
    5     4     6    1
    6     4     7    1
    7     7     8    1
    8     7     9    1
    9     7    10    1
   10    10    11    1
   11     1    12    1
   12    10    12    1
   13    12    13    1
   14    12    14    1
   15    10    15    1
   16    15    16    1
@<TRIPOS>SUBSTRUCTURE
       1 MOL1            1 RESIDUE      1      MOL     
@<SCITEGIC>MOL_PROPERTY
VConf Rank
SciTegic.value.IntegerValue
205

@<SCITEGIC>MOL_PROPERTY
Conf_Id
SciTegic.value.IntegerValue
59

@<SCITEGIC>MOL_PROPERTY
Delta U+W
SciTegic.value.DoubleValue
0.000

@<SCITEGIC>MOL_PROPERTY
U+W
SciTegic.value.DoubleValue
3.010

@<SCITEGIC>MOL_PROPERTY
Grad RMS
SciTegic.value.DoubleValue
0.000000

@<SCITEGIC>MOL_PROPERTY
U
SciTegic.value.DoubleValue
5.843

@<SCITEGIC>MOL_PROPERTY
W
SciTegic.value.DoubleValue
-2.833

@<SCITEGIC>MOL_PROPERTY
W(PB)
SciTegic.value.DoubleValue
-4.568

@<SCITEGIC>MOL_PROPERTY
W(SA)
SciTegic.value.DoubleValue
1.735

@<SCITEGIC>MOL_PROPERTY
Valence
SciTegic.value.DoubleValue
13.789

@<SCITEGIC>MOL_PROPERTY
Coulomb
SciTegic.value.DoubleValue
-8.574

@<SCITEGIC>MOL_PROPERTY
VdW
SciTegic.value.DoubleValue
0.628

@<SCITEGIC>MOL_PROPERTY
VdW6
SciTegic.value.DoubleValue
-3.284

@<SCITEGIC>MOL_PROPERTY
VdW12
SciTegic.value.DoubleValue
3.912

@<SCITEGIC>MOL_PROPERTY
Bond
SciTegic.value.DoubleValue
0.054

@<SCITEGIC>MOL_PROPERTY
Angle
SciTegic.value.DoubleValue
4.034

@<SCITEGIC>MOL_PROPERTY
Pdih
SciTegic.value.DoubleValue
9.702

@<SCITEGIC>MOL_PROPERTY
Idih
SciTegic.value.DoubleValue
0.000

@<SCITEGIC>MOL_PROPERTY
Tether
SciTegic.value.DoubleValue
0.000

@<TRIPOS>MOLECULE
guest-4_confgen4.mol2 : confsearch ligand conformer 206
          16          16           1
SMALL
USER_CHARGES
 
@<TRIPOS>ATOM
       1    C1      20.018741   17.761565   23.300240 C.3        1 MOL1        -0.1689
       2    H1      20.137942   16.691001   23.515744 H          1 MOL1         0.0830
       3    H2      20.608727   18.327614   24.034493 H          1 MOL1         0.0830
       4    C2      18.552009   18.209638   23.360695 C.3        1 MOL1        -0.1689
       5    H3      17.911705   17.435193   22.915808 H          1 MOL1         0.0830
       6    H4      18.210371   18.389682   24.389049 H          1 MOL1         0.0830
       7    C3      18.501574   19.481131   22.493610 C.3        1 MOL1        -0.1765
       8    H5      18.697993   20.361637   23.119081 H          1 MOL1         0.0830
       9    H6      17.515491   19.614910   22.029109 H          1 MOL1         0.0830
      10    C4      19.627777   19.345465   21.448115 C.3        1 MOL1         0.1214
      11    H7      20.246266   20.254774   21.460285 H          1 MOL1         0.0787
      12    C5      20.472417   18.126364   21.874859 C.3        1 MOL1        -0.1765
      13    H8      20.281379   17.277404   21.204372 H          1 MOL1         0.0830
      14    H9      21.546902   18.348034   21.840360 H          1 MOL1         0.0830
      15    O1      19.073834   19.130614   20.155489 O.3        1 MOL1        -0.5512
      16    H10     19.829487   19.040885   19.537050 H          1 MOL1         0.3776
@<TRIPOS>BOND
    1     1     2    1
    2     1     3    1
    3     1     4    1
    4     4     5    1
    5     4     6    1
    6     4     7    1
    7     7     8    1
    8     7     9    1
    9     7    10    1
   10    10    11    1
   11     1    12    1
   12    10    12    1
   13    12    13    1
   14    12    14    1
   15    10    15    1
   16    15    16    1
@<TRIPOS>SUBSTRUCTURE
       1 MOL1            1 RESIDUE      1      MOL     
@<SCITEGIC>MOL_PROPERTY
VConf Rank
SciTegic.value.IntegerValue
206

@<SCITEGIC>MOL_PROPERTY
Conf_Id
SciTegic.value.IntegerValue
33

@<SCITEGIC>MOL_PROPERTY
Delta U+W
SciTegic.value.DoubleValue
0.015

@<SCITEGIC>MOL_PROPERTY
U+W
SciTegic.value.DoubleValue
3.025

@<SCITEGIC>MOL_PROPERTY
Grad RMS
SciTegic.value.DoubleValue
0.000000

@<SCITEGIC>MOL_PROPERTY
U
SciTegic.value.DoubleValue
5.843

@<SCITEGIC>MOL_PROPERTY
W
SciTegic.value.DoubleValue
-2.819

@<SCITEGIC>MOL_PROPERTY
W(PB)
SciTegic.value.DoubleValue
-4.568

@<SCITEGIC>MOL_PROPERTY
W(SA)
SciTegic.value.DoubleValue
1.750

@<SCITEGIC>MOL_PROPERTY
Valence
SciTegic.value.DoubleValue
13.789

@<SCITEGIC>MOL_PROPERTY
Coulomb
SciTegic.value.DoubleValue
-8.574

@<SCITEGIC>MOL_PROPERTY
VdW
SciTegic.value.DoubleValue
0.628

@<SCITEGIC>MOL_PROPERTY
VdW6
SciTegic.value.DoubleValue
-3.284

@<SCITEGIC>MOL_PROPERTY
VdW12
SciTegic.value.DoubleValue
3.913

@<SCITEGIC>MOL_PROPERTY
Bond
SciTegic.value.DoubleValue
0.054

@<SCITEGIC>MOL_PROPERTY
Angle
SciTegic.value.DoubleValue
4.033

@<SCITEGIC>MOL_PROPERTY
Pdih
SciTegic.value.DoubleValue
9.702

@<SCITEGIC>MOL_PROPERTY
Idih
SciTegic.value.DoubleValue
0.000

@<SCITEGIC>MOL_PROPERTY
Tether
SciTegic.value.DoubleValue
0.000

@<TRIPOS>MOLECULE
guest-4_confgen4.mol2 : confsearch ligand conformer 207
          16          16           1
SMALL
USER_CHARGES
 
@<TRIPOS>ATOM
       1    C1      18.403186   18.305971   23.119315 C.3        1 MOL1        -0.1689
       2    H1      18.257824   19.046562   23.917827 H          1 MOL1         0.0830
       3    H2      17.659945   17.509898   23.263733 H          1 MOL1         0.0830
       4    C2      19.844413   17.753539   23.171336 C.3        1 MOL1        -0.1689
       5    H3      20.396231   18.225979   23.995668 H          1 MOL1         0.0830
       6    H4      19.855053   16.668286   23.341958 H          1 MOL1         0.0830
       7    C3      20.498434   18.108971   21.819167 C.3        1 MOL1        -0.1765
       8    H5      20.443865   17.242953   21.146371 H          1 MOL1         0.0830
       9    H6      21.556675   18.381701   21.927565 H          1 MOL1         0.0830
      10    C4      19.661137   19.251767   21.229299 C.3        1 MOL1         0.1214
      11    H7      19.703922   19.259355   20.130620 H          1 MOL1         0.0787
      12    C5      18.240039   18.973399   21.737186 C.3        1 MOL1        -0.1765
      13    H8      17.629224   19.884809   21.784539 H          1 MOL1         0.0830
      14    H9      17.745724   18.275317   21.048741 H          1 MOL1         0.0830
      15    O1      20.114720   20.487378   21.762528 O.3        1 MOL1        -0.5512
      16    H10     20.041361   20.387876   22.734063 H          1 MOL1         0.3776
@<TRIPOS>BOND
    1     1     2    1
    2     1     3    1
    3     1     4    1
    4     4     5    1
    5     4     6    1
    6     4     7    1
    7     7     8    1
    8     7     9    1
    9     7    10    1
   10    10    11    1
   11     1    12    1
   12    10    12    1
   13    12    13    1
   14    12    14    1
   15    10    15    1
   16    15    16    1
@<TRIPOS>SUBSTRUCTURE
       1 MOL1            1 RESIDUE      1      MOL     
@<SCITEGIC>MOL_PROPERTY
VConf Rank
SciTegic.value.IntegerValue
207

@<SCITEGIC>MOL_PROPERTY
Conf_Id
SciTegic.value.IntegerValue
20

@<SCITEGIC>MOL_PROPERTY
Delta U+W
SciTegic.value.DoubleValue
-0.483

@<SCITEGIC>MOL_PROPERTY
U+W
SciTegic.value.DoubleValue
2.527

@<SCITEGIC>MOL_PROPERTY
Grad RMS
SciTegic.value.DoubleValue
0.000000

@<SCITEGIC>MOL_PROPERTY
U
SciTegic.value.DoubleValue
4.508

@<SCITEGIC>MOL_PROPERTY
W
SciTegic.value.DoubleValue
-1.981

@<SCITEGIC>MOL_PROPERTY
W(PB)
SciTegic.value.DoubleValue
-3.712

@<SCITEGIC>MOL_PROPERTY
W(SA)
SciTegic.value.DoubleValue
1.732

@<SCITEGIC>MOL_PROPERTY
Valence
SciTegic.value.DoubleValue
14.705

@<SCITEGIC>MOL_PROPERTY
Coulomb
SciTegic.value.DoubleValue
-10.687

@<SCITEGIC>MOL_PROPERTY
VdW
SciTegic.value.DoubleValue
0.490

@<SCITEGIC>MOL_PROPERTY
VdW6
SciTegic.value.DoubleValue
-3.745

@<SCITEGIC>MOL_PROPERTY
VdW12
SciTegic.value.DoubleValue
4.235

@<SCITEGIC>MOL_PROPERTY
Bond
SciTegic.value.DoubleValue
0.068

@<SCITEGIC>MOL_PROPERTY
Angle
SciTegic.value.DoubleValue
3.901

@<SCITEGIC>MOL_PROPERTY
Pdih
SciTegic.value.DoubleValue
10.737

@<SCITEGIC>MOL_PROPERTY
Idih
SciTegic.value.DoubleValue
0.000

@<SCITEGIC>MOL_PROPERTY
Tether
SciTegic.value.DoubleValue
0.000

@<TRIPOS>MOLECULE
guest-4_confgen4.mol2 : confsearch ligand conformer 208
          16          16           1
SMALL
USER_CHARGES
 
@<TRIPOS>ATOM
       1    C1      19.227829   17.603855   23.406756 C.3        1 MOL1        -0.1689
       2    H1      20.077004   17.816427   24.071130 H          1 MOL1         0.0830
       3    H2      18.618064   16.815770   23.869090 H          1 MOL1         0.0830
       4    C2      19.747905   17.204422   22.019060 C.3        1 MOL1        -0.1689
       5    H3      20.638256   16.563401   22.074967 H          1 MOL1         0.0830
       6    H4      18.965220   16.658594   21.473990 H          1 MOL1         0.0830
       7    C3      20.033856   18.544436   21.316811 C.3        1 MOL1        -0.1765
       8    H5      19.912104   18.461277   20.229104 H          1 MOL1         0.0830
       9    H6      21.070801   18.846063   21.518182 H          1 MOL1         0.0830
      10    C4      19.051690   19.570230   21.920777 C.3        1 MOL1         0.1214
      11    H7      18.257486   19.802549   21.196355 H          1 MOL1         0.0787
      12    C5      18.428861   18.897115   23.161274 C.3        1 MOL1        -0.1765
      13    H8      18.441200   19.553225   24.041835 H          1 MOL1         0.0830
      14    H9      17.381752   18.647964   22.945481 H          1 MOL1         0.0830
      15    O1      19.747645   20.751334   22.300947 O.3        1 MOL1        -0.5512
      16    H10     20.129893   21.128873   21.480653 H          1 MOL1         0.3776
@<TRIPOS>BOND
    1     1     2    1
    2     1     3    1
    3     1     4    1
    4     4     5    1
    5     4     6    1
    6     4     7    1
    7     7     8    1
    8     7     9    1
    9     7    10    1
   10    10    11    1
   11     1    12    1
   12    10    12    1
   13    12    13    1
   14    12    14    1
   15    10    15    1
   16    15    16    1
@<TRIPOS>SUBSTRUCTURE
       1 MOL1            1 RESIDUE      1      MOL     
@<SCITEGIC>MOL_PROPERTY
VConf Rank
SciTegic.value.IntegerValue
208

@<SCITEGIC>MOL_PROPERTY
Conf_Id
SciTegic.value.IntegerValue
59

@<SCITEGIC>MOL_PROPERTY
Delta U+W
SciTegic.value.DoubleValue
0.000

@<SCITEGIC>MOL_PROPERTY
U+W
SciTegic.value.DoubleValue
3.010

@<SCITEGIC>MOL_PROPERTY
Grad RMS
SciTegic.value.DoubleValue
0.000000

@<SCITEGIC>MOL_PROPERTY
U
SciTegic.value.DoubleValue
5.843

@<SCITEGIC>MOL_PROPERTY
W
SciTegic.value.DoubleValue
-2.833

@<SCITEGIC>MOL_PROPERTY
W(PB)
SciTegic.value.DoubleValue
-4.568

@<SCITEGIC>MOL_PROPERTY
W(SA)
SciTegic.value.DoubleValue
1.735

@<SCITEGIC>MOL_PROPERTY
Valence
SciTegic.value.DoubleValue
13.789

@<SCITEGIC>MOL_PROPERTY
Coulomb
SciTegic.value.DoubleValue
-8.574

@<SCITEGIC>MOL_PROPERTY
VdW
SciTegic.value.DoubleValue
0.628

@<SCITEGIC>MOL_PROPERTY
VdW6
SciTegic.value.DoubleValue
-3.284

@<SCITEGIC>MOL_PROPERTY
VdW12
SciTegic.value.DoubleValue
3.912

@<SCITEGIC>MOL_PROPERTY
Bond
SciTegic.value.DoubleValue
0.054

@<SCITEGIC>MOL_PROPERTY
Angle
SciTegic.value.DoubleValue
4.034

@<SCITEGIC>MOL_PROPERTY
Pdih
SciTegic.value.DoubleValue
9.702

@<SCITEGIC>MOL_PROPERTY
Idih
SciTegic.value.DoubleValue
0.000

@<SCITEGIC>MOL_PROPERTY
Tether
SciTegic.value.DoubleValue
0.000

@<TRIPOS>MOLECULE
guest-4_confgen4.mol2 : confsearch ligand conformer 209
          16          16           1
SMALL
USER_CHARGES
 
@<TRIPOS>ATOM
       1    C1      18.173346   17.980137   22.131335 C.3        1 MOL1        -0.1689
       2    H1      17.757035   16.995959   21.876705 H          1 MOL1         0.0830
       3    H2      17.348244   18.627974   22.458649 H          1 MOL1         0.0830
       4    C2      18.901600   18.630308   20.946999 C.3        1 MOL1        -0.1689
       5    H3      19.468170   17.865207   20.398093 H          1 MOL1         0.0830
       6    H4      18.210410   19.116332   20.245089 H          1 MOL1         0.0830
       7    C3      19.878125   19.628360   21.596127 C.3        1 MOL1        -0.1765
       8    H5      19.387474   20.603955   21.708203 H          1 MOL1         0.0830
       9    H6      20.775444   19.774813   20.980182 H          1 MOL1         0.0830
      10    C4      20.212666   19.069954   22.994720 C.3        1 MOL1         0.1214
      11    H7      20.050929   19.855124   23.747626 H          1 MOL1         0.0787
      12    C5      19.240421   17.896396   23.238109 C.3        1 MOL1        -0.1765
      13    H8      19.772332   16.938553   23.158176 H          1 MOL1         0.0830
      14    H9      18.787512   17.948183   24.236627 H          1 MOL1         0.0830
      15    O1      21.557863   18.608307   23.029697 O.3        1 MOL1        -0.5512
      16    H10     21.711045   18.256350   23.932023 H          1 MOL1         0.3776
@<TRIPOS>BOND
    1     1     2    1
    2     1     3    1
    3     1     4    1
    4     4     5    1
    5     4     6    1
    6     4     7    1
    7     7     8    1
    8     7     9    1
    9     7    10    1
   10    10    11    1
   11     1    12    1
   12    10    12    1
   13    12    13    1
   14    12    14    1
   15    10    15    1
   16    15    16    1
@<TRIPOS>SUBSTRUCTURE
       1 MOL1            1 RESIDUE      1      MOL     
@<SCITEGIC>MOL_PROPERTY
VConf Rank
SciTegic.value.IntegerValue
209

@<SCITEGIC>MOL_PROPERTY
Conf_Id
SciTegic.value.IntegerValue
33

@<SCITEGIC>MOL_PROPERTY
Delta U+W
SciTegic.value.DoubleValue
0.015

@<SCITEGIC>MOL_PROPERTY
U+W
SciTegic.value.DoubleValue
3.025

@<SCITEGIC>MOL_PROPERTY
Grad RMS
SciTegic.value.DoubleValue
0.000000

@<SCITEGIC>MOL_PROPERTY
U
SciTegic.value.DoubleValue
5.843

@<SCITEGIC>MOL_PROPERTY
W
SciTegic.value.DoubleValue
-2.819

@<SCITEGIC>MOL_PROPERTY
W(PB)
SciTegic.value.DoubleValue
-4.568

@<SCITEGIC>MOL_PROPERTY
W(SA)
SciTegic.value.DoubleValue
1.750

@<SCITEGIC>MOL_PROPERTY
Valence
SciTegic.value.DoubleValue
13.789

@<SCITEGIC>MOL_PROPERTY
Coulomb
SciTegic.value.DoubleValue
-8.574

@<SCITEGIC>MOL_PROPERTY
VdW
SciTegic.value.DoubleValue
0.628

@<SCITEGIC>MOL_PROPERTY
VdW6
SciTegic.value.DoubleValue
-3.284

@<SCITEGIC>MOL_PROPERTY
VdW12
SciTegic.value.DoubleValue
3.913

@<SCITEGIC>MOL_PROPERTY
Bond
SciTegic.value.DoubleValue
0.054

@<SCITEGIC>MOL_PROPERTY
Angle
SciTegic.value.DoubleValue
4.033

@<SCITEGIC>MOL_PROPERTY
Pdih
SciTegic.value.DoubleValue
9.702

@<SCITEGIC>MOL_PROPERTY
Idih
SciTegic.value.DoubleValue
0.000

@<SCITEGIC>MOL_PROPERTY
Tether
SciTegic.value.DoubleValue
0.000

@<TRIPOS>MOLECULE
guest-4_confgen4.mol2 : confsearch ligand conformer 210
          16          16           1
SMALL
USER_CHARGES
 
@<TRIPOS>ATOM
       1    C1      20.285835   19.498535   22.673012 C.3        1 MOL1        -0.1689
       2    H1      20.806789   19.214397   23.597728 H          1 MOL1         0.0830
       3    H2      20.696389   20.462256   22.341824 H          1 MOL1         0.0830
       4    C2      18.766067   19.587786   22.932552 C.3        1 MOL1        -0.1689
       5    H3      18.551604   19.347882   23.983113 H          1 MOL1         0.0830
       6    H4      18.381433   20.597974   22.736145 H          1 MOL1         0.0830
       7    C3      18.101576   18.550598   22.002430 C.3        1 MOL1        -0.1765
       8    H5      17.736206   19.051443   21.096185 H          1 MOL1         0.0830
       9    H6      17.245419   18.053473   22.477685 H          1 MOL1         0.0830
      10    C4      19.206465   17.559394   21.612908 C.3        1 MOL1         0.1214
      11    H7      19.011914   17.101413   20.632406 H          1 MOL1         0.0787
      12    C5      20.482525   18.411629   21.594909 C.3        1 MOL1        -0.1765
      13    H8      21.385868   17.811766   21.768519 H          1 MOL1         0.0830
      14    H9      20.580669   18.885872   20.609474 H          1 MOL1         0.0830
      15    O1      19.321236   16.566694   22.621957 O.3        1 MOL1        -0.5512
      16    H10     19.491757   17.062650   23.449068 H          1 MOL1         0.3776
@<TRIPOS>BOND
    1     1     2    1
    2     1     3    1
    3     1     4    1
    4     4     5    1
    5     4     6    1
    6     4     7    1
    7     7     8    1
    8     7     9    1
    9     7    10    1
   10    10    11    1
   11     1    12    1
   12    10    12    1
   13    12    13    1
   14    12    14    1
   15    10    15    1
   16    15    16    1
@<TRIPOS>SUBSTRUCTURE
       1 MOL1            1 RESIDUE      1      MOL     
@<SCITEGIC>MOL_PROPERTY
VConf Rank
SciTegic.value.IntegerValue
210

@<SCITEGIC>MOL_PROPERTY
Conf_Id
SciTegic.value.IntegerValue
20

@<SCITEGIC>MOL_PROPERTY
Delta U+W
SciTegic.value.DoubleValue
-0.483

@<SCITEGIC>MOL_PROPERTY
U+W
SciTegic.value.DoubleValue
2.527

@<SCITEGIC>MOL_PROPERTY
Grad RMS
SciTegic.value.DoubleValue
0.000000

@<SCITEGIC>MOL_PROPERTY
U
SciTegic.value.DoubleValue
4.508

@<SCITEGIC>MOL_PROPERTY
W
SciTegic.value.DoubleValue
-1.981

@<SCITEGIC>MOL_PROPERTY
W(PB)
SciTegic.value.DoubleValue
-3.712

@<SCITEGIC>MOL_PROPERTY
W(SA)
SciTegic.value.DoubleValue
1.732

@<SCITEGIC>MOL_PROPERTY
Valence
SciTegic.value.DoubleValue
14.705

@<SCITEGIC>MOL_PROPERTY
Coulomb
SciTegic.value.DoubleValue
-10.687

@<SCITEGIC>MOL_PROPERTY
VdW
SciTegic.value.DoubleValue
0.490

@<SCITEGIC>MOL_PROPERTY
VdW6
SciTegic.value.DoubleValue
-3.745

@<SCITEGIC>MOL_PROPERTY
VdW12
SciTegic.value.DoubleValue
4.235

@<SCITEGIC>MOL_PROPERTY
Bond
SciTegic.value.DoubleValue
0.068

@<SCITEGIC>MOL_PROPERTY
Angle
SciTegic.value.DoubleValue
3.901

@<SCITEGIC>MOL_PROPERTY
Pdih
SciTegic.value.DoubleValue
10.737

@<SCITEGIC>MOL_PROPERTY
Idih
SciTegic.value.DoubleValue
0.000

@<SCITEGIC>MOL_PROPERTY
Tether
SciTegic.value.DoubleValue
0.000

@<TRIPOS>MOLECULE
guest-4_confgen4.mol2 : confsearch ligand conformer 211
          16          16           1
SMALL
USER_CHARGES
 
@<TRIPOS>ATOM
       1    C1      20.526736   19.407950   22.176558 C.3        1 MOL1        -0.1689
       2    H1      21.199134   19.102841   22.990479 H          1 MOL1         0.0830
       3    H2      21.036280   20.175932   21.578885 H          1 MOL1         0.0830
       4    C2      19.200307   19.907706   22.765249 C.3        1 MOL1        -0.1689
       5    H3      19.345723   20.504522   23.675976 H          1 MOL1         0.0830
       6    H4      18.679139   20.531169   22.025449 H          1 MOL1         0.0830
       7    C3      18.390526   18.624920   23.028446 C.3        1 MOL1        -0.1765
       8    H5      17.311127   18.809319   22.952687 H          1 MOL1         0.0830
       9    H6      18.600784   18.264714   24.044728 H          1 MOL1         0.0830
      10    C4      18.863806   17.590243   21.985791 C.3        1 MOL1         0.1214
      11    H7      18.093409   17.455696   21.212548 H          1 MOL1         0.0787
      12    C5      20.136974   18.175160   21.340231 C.3        1 MOL1        -0.1765
      13    H8      20.954521   17.443411   21.293530 H          1 MOL1         0.0830
      14    H9      19.907257   18.484835   20.312411 H          1 MOL1         0.0830
      15    O1      19.160347   16.352728   22.621801 O.3        1 MOL1        -0.5512
      16    H10     18.323496   16.034390   23.021642 H          1 MOL1         0.3776
@<TRIPOS>BOND
    1     1     2    1
    2     1     3    1
    3     1     4    1
    4     4     5    1
    5     4     6    1
    6     4     7    1
    7     7     8    1
    8     7     9    1
    9     7    10    1
   10    10    11    1
   11     1    12    1
   12    10    12    1
   13    12    13    1
   14    12    14    1
   15    10    15    1
   16    15    16    1
@<TRIPOS>SUBSTRUCTURE
       1 MOL1            1 RESIDUE      1      MOL     
@<SCITEGIC>MOL_PROPERTY
VConf Rank
SciTegic.value.IntegerValue
211

@<SCITEGIC>MOL_PROPERTY
Conf_Id
SciTegic.value.IntegerValue
59

@<SCITEGIC>MOL_PROPERTY
Delta U+W
SciTegic.value.DoubleValue
0.000

@<SCITEGIC>MOL_PROPERTY
U+W
SciTegic.value.DoubleValue
3.010

@<SCITEGIC>MOL_PROPERTY
Grad RMS
SciTegic.value.DoubleValue
0.000000

@<SCITEGIC>MOL_PROPERTY
U
SciTegic.value.DoubleValue
5.843

@<SCITEGIC>MOL_PROPERTY
W
SciTegic.value.DoubleValue
-2.833

@<SCITEGIC>MOL_PROPERTY
W(PB)
SciTegic.value.DoubleValue
-4.568

@<SCITEGIC>MOL_PROPERTY
W(SA)
SciTegic.value.DoubleValue
1.735

@<SCITEGIC>MOL_PROPERTY
Valence
SciTegic.value.DoubleValue
13.789

@<SCITEGIC>MOL_PROPERTY
Coulomb
SciTegic.value.DoubleValue
-8.574

@<SCITEGIC>MOL_PROPERTY
VdW
SciTegic.value.DoubleValue
0.628

@<SCITEGIC>MOL_PROPERTY
VdW6
SciTegic.value.DoubleValue
-3.284

@<SCITEGIC>MOL_PROPERTY
VdW12
SciTegic.value.DoubleValue
3.912

@<SCITEGIC>MOL_PROPERTY
Bond
SciTegic.value.DoubleValue
0.054

@<SCITEGIC>MOL_PROPERTY
Angle
SciTegic.value.DoubleValue
4.034

@<SCITEGIC>MOL_PROPERTY
Pdih
SciTegic.value.DoubleValue
9.702

@<SCITEGIC>MOL_PROPERTY
Idih
SciTegic.value.DoubleValue
0.000

@<SCITEGIC>MOL_PROPERTY
Tether
SciTegic.value.DoubleValue
0.000

@<TRIPOS>MOLECULE
guest-4_confgen4.mol2 : confsearch ligand conformer 212
          16          16           1
SMALL
USER_CHARGES
 
@<TRIPOS>ATOM
       1    C1      20.852884   18.392173   22.069341 C.3        1 MOL1        -0.1689
       2    H1      21.580482   17.569442   22.091123 H          1 MOL1         0.0830
       3    H2      21.347730   19.277344   21.645996 H          1 MOL1         0.0830
       4    C2      20.305217   18.724478   23.464103 C.3        1 MOL1        -0.1689
       5    H3      20.139784   17.794619   24.025952 H          1 MOL1         0.0830
       6    H4      20.989477   19.359360   24.043203 H          1 MOL1         0.0830
       7    C3      18.953662   19.410986   23.193766 C.3        1 MOL1        -0.1765
       8    H5      19.103333   20.494262   23.097866 H          1 MOL1         0.0830
       9    H6      18.243730   19.243495   24.014719 H          1 MOL1         0.0830
      10    C4      18.438073   18.853615   21.850895 C.3        1 MOL1         0.1214
      11    H7      18.170864   19.690202   21.188898 H          1 MOL1         0.0787
      12    C5      19.602988   18.047141   21.239087 C.3        1 MOL1        -0.1765
      13    H8      19.401854   16.969908   21.315865 H          1 MOL1         0.0830
      14    H9      19.747174   18.288368   20.178018 H          1 MOL1         0.0830
      15    O1      17.316232   18.006560   22.069682 O.3        1 MOL1        -0.5512
      16    H10     17.039130   17.673957   21.189842 H          1 MOL1         0.3776
@<TRIPOS>BOND
    1     1     2    1
    2     1     3    1
    3     1     4    1
    4     4     5    1
    5     4     6    1
    6     4     7    1
    7     7     8    1
    8     7     9    1
    9     7    10    1
   10    10    11    1
   11     1    12    1
   12    10    12    1
   13    12    13    1
   14    12    14    1
   15    10    15    1
   16    15    16    1
@<TRIPOS>SUBSTRUCTURE
       1 MOL1            1 RESIDUE      1      MOL     
@<SCITEGIC>MOL_PROPERTY
VConf Rank
SciTegic.value.IntegerValue
212

@<SCITEGIC>MOL_PROPERTY
Conf_Id
SciTegic.value.IntegerValue
33

@<SCITEGIC>MOL_PROPERTY
Delta U+W
SciTegic.value.DoubleValue
0.015

@<SCITEGIC>MOL_PROPERTY
U+W
SciTegic.value.DoubleValue
3.025

@<SCITEGIC>MOL_PROPERTY
Grad RMS
SciTegic.value.DoubleValue
0.000000

@<SCITEGIC>MOL_PROPERTY
U
SciTegic.value.DoubleValue
5.843

@<SCITEGIC>MOL_PROPERTY
W
SciTegic.value.DoubleValue
-2.819

@<SCITEGIC>MOL_PROPERTY
W(PB)
SciTegic.value.DoubleValue
-4.568

@<SCITEGIC>MOL_PROPERTY
W(SA)
SciTegic.value.DoubleValue
1.750

@<SCITEGIC>MOL_PROPERTY
Valence
SciTegic.value.DoubleValue
13.789

@<SCITEGIC>MOL_PROPERTY
Coulomb
SciTegic.value.DoubleValue
-8.574

@<SCITEGIC>MOL_PROPERTY
VdW
SciTegic.value.DoubleValue
0.628

@<SCITEGIC>MOL_PROPERTY
VdW6
SciTegic.value.DoubleValue
-3.284

@<SCITEGIC>MOL_PROPERTY
VdW12
SciTegic.value.DoubleValue
3.913

@<SCITEGIC>MOL_PROPERTY
Bond
SciTegic.value.DoubleValue
0.054

@<SCITEGIC>MOL_PROPERTY
Angle
SciTegic.value.DoubleValue
4.033

@<SCITEGIC>MOL_PROPERTY
Pdih
SciTegic.value.DoubleValue
9.702

@<SCITEGIC>MOL_PROPERTY
Idih
SciTegic.value.DoubleValue
0.000

@<SCITEGIC>MOL_PROPERTY
Tether
SciTegic.value.DoubleValue
0.000

@<TRIPOS>MOLECULE
guest-4_confgen4.mol2 : confsearch ligand conformer 213
          16          16           1
SMALL
USER_CHARGES
 
@<TRIPOS>ATOM
       1    C1      18.466687   19.161849   23.064193 C.3        1 MOL1        -0.1689
       2    H1      17.802560   18.438735   23.557415 H          1 MOL1         0.0830
       3    H2      18.181592   20.165271   23.408958 H          1 MOL1         0.0830
       4    C2      18.339411   19.030824   21.530682 C.3        1 MOL1        -0.1689
       5    H3      17.612916   18.245040   21.281735 H          1 MOL1         0.0830
       6    H4      17.988699   19.966055   21.073143 H          1 MOL1         0.0830
       7    C3      19.739724   18.647773   21.006438 C.3        1 MOL1        -0.1765
       8    H5      20.256470   19.548138   20.648755 H          1 MOL1         0.0830
       9    H6      19.691252   17.936342   20.171260 H          1 MOL1         0.0830
      10    C4      20.503617   18.079873   22.210161 C.3        1 MOL1         0.1214
      11    H7      21.588325   18.227561   22.107308 H          1 MOL1         0.0787
      12    C5      19.939414   18.854259   23.408893 C.3        1 MOL1        -0.1765
      13    H8      20.038944   18.295655   24.349137 H          1 MOL1         0.0830
      14    H9      20.494669   19.795120   23.518865 H          1 MOL1         0.0830
      15    O1      20.191345   16.702031   22.354544 O.3        1 MOL1        -0.5512
      16    H10     19.216127   16.669237   22.438428 H          1 MOL1         0.3776
@<TRIPOS>BOND
    1     1     2    1
    2     1     3    1
    3     1     4    1
    4     4     5    1
    5     4     6    1
    6     4     7    1
    7     7     8    1
    8     7     9    1
    9     7    10    1
   10    10    11    1
   11     1    12    1
   12    10    12    1
   13    12    13    1
   14    12    14    1
   15    10    15    1
   16    15    16    1
@<TRIPOS>SUBSTRUCTURE
       1 MOL1            1 RESIDUE      1      MOL     
@<SCITEGIC>MOL_PROPERTY
VConf Rank
SciTegic.value.IntegerValue
213

@<SCITEGIC>MOL_PROPERTY
Conf_Id
SciTegic.value.IntegerValue
20

@<SCITEGIC>MOL_PROPERTY
Delta U+W
SciTegic.value.DoubleValue
-0.483

@<SCITEGIC>MOL_PROPERTY
U+W
SciTegic.value.DoubleValue
2.527

@<SCITEGIC>MOL_PROPERTY
Grad RMS
SciTegic.value.DoubleValue
0.000000

@<SCITEGIC>MOL_PROPERTY
U
SciTegic.value.DoubleValue
4.508

@<SCITEGIC>MOL_PROPERTY
W
SciTegic.value.DoubleValue
-1.981

@<SCITEGIC>MOL_PROPERTY
W(PB)
SciTegic.value.DoubleValue
-3.712

@<SCITEGIC>MOL_PROPERTY
W(SA)
SciTegic.value.DoubleValue
1.732

@<SCITEGIC>MOL_PROPERTY
Valence
SciTegic.value.DoubleValue
14.705

@<SCITEGIC>MOL_PROPERTY
Coulomb
SciTegic.value.DoubleValue
-10.687

@<SCITEGIC>MOL_PROPERTY
VdW
SciTegic.value.DoubleValue
0.490

@<SCITEGIC>MOL_PROPERTY
VdW6
SciTegic.value.DoubleValue
-3.745

@<SCITEGIC>MOL_PROPERTY
VdW12
SciTegic.value.DoubleValue
4.235

@<SCITEGIC>MOL_PROPERTY
Bond
SciTegic.value.DoubleValue
0.068

@<SCITEGIC>MOL_PROPERTY
Angle
SciTegic.value.DoubleValue
3.901

@<SCITEGIC>MOL_PROPERTY
Pdih
SciTegic.value.DoubleValue
10.737

@<SCITEGIC>MOL_PROPERTY
Idih
SciTegic.value.DoubleValue
0.000

@<SCITEGIC>MOL_PROPERTY
Tether
SciTegic.value.DoubleValue
0.000

@<TRIPOS>MOLECULE
guest-4_confgen4.mol2 : confsearch ligand conformer 214
          16          16           1
SMALL
USER_CHARGES
 
@<TRIPOS>ATOM
       1    C1      19.994575   18.414286   21.014510 C.3        1 MOL1        -0.1689
       2    H1      20.379394   17.385093   20.995688 H          1 MOL1         0.0830
       3    H2      20.199478   18.876171   20.039154 H          1 MOL1         0.0830
       4    C2      20.640562   19.183792   22.174808 C.3        1 MOL1        -0.1689
       5    H3      21.705139   18.941319   22.295807 H          1 MOL1         0.0830
       6    H4      20.552466   20.264500   21.996108 H          1 MOL1         0.0830
       7    C3      19.806155   18.789880   23.407348 C.3        1 MOL1        -0.1765
       8    H5      19.794703   19.591668   24.156914 H          1 MOL1         0.0830
       9    H6      20.246178   17.898010   23.873968 H          1 MOL1         0.0830
      10    C4      18.386400   18.477125   22.889508 C.3        1 MOL1         0.1214
      11    H7      17.698082   19.289675   23.164280 H          1 MOL1         0.0787
      12    C5      18.492394   18.397004   21.352569 C.3        1 MOL1        -0.1765
      13    H8      17.996879   17.505032   20.946523 H          1 MOL1         0.0830
      14    H9      18.005829   19.277819   20.913820 H          1 MOL1         0.0830
      15    O1      17.934523   17.234962   23.415557 O.3        1 MOL1        -0.5512
      16    H10     17.896809   17.339199   24.389849 H          1 MOL1         0.3776
@<TRIPOS>BOND
    1     1     2    1
    2     1     3    1
    3     1     4    1
    4     4     5    1
    5     4     6    1
    6     4     7    1
    7     7     8    1
    8     7     9    1
    9     7    10    1
   10    10    11    1
   11     1    12    1
   12    10    12    1
   13    12    13    1
   14    12    14    1
   15    10    15    1
   16    15    16    1
@<TRIPOS>SUBSTRUCTURE
       1 MOL1            1 RESIDUE      1      MOL     
@<SCITEGIC>MOL_PROPERTY
VConf Rank
SciTegic.value.IntegerValue
214

@<SCITEGIC>MOL_PROPERTY
Conf_Id
SciTegic.value.IntegerValue
59

@<SCITEGIC>MOL_PROPERTY
Delta U+W
SciTegic.value.DoubleValue
0.000

@<SCITEGIC>MOL_PROPERTY
U+W
SciTegic.value.DoubleValue
3.010

@<SCITEGIC>MOL_PROPERTY
Grad RMS
SciTegic.value.DoubleValue
0.000000

@<SCITEGIC>MOL_PROPERTY
U
SciTegic.value.DoubleValue
5.843

@<SCITEGIC>MOL_PROPERTY
W
SciTegic.value.DoubleValue
-2.833

@<SCITEGIC>MOL_PROPERTY
W(PB)
SciTegic.value.DoubleValue
-4.568

@<SCITEGIC>MOL_PROPERTY
W(SA)
SciTegic.value.DoubleValue
1.735

@<SCITEGIC>MOL_PROPERTY
Valence
SciTegic.value.DoubleValue
13.789

@<SCITEGIC>MOL_PROPERTY
Coulomb
SciTegic.value.DoubleValue
-8.574

@<SCITEGIC>MOL_PROPERTY
VdW
SciTegic.value.DoubleValue
0.628

@<SCITEGIC>MOL_PROPERTY
VdW6
SciTegic.value.DoubleValue
-3.284

@<SCITEGIC>MOL_PROPERTY
VdW12
SciTegic.value.DoubleValue
3.912

@<SCITEGIC>MOL_PROPERTY
Bond
SciTegic.value.DoubleValue
0.054

@<SCITEGIC>MOL_PROPERTY
Angle
SciTegic.value.DoubleValue
4.034

@<SCITEGIC>MOL_PROPERTY
Pdih
SciTegic.value.DoubleValue
9.702

@<SCITEGIC>MOL_PROPERTY
Idih
SciTegic.value.DoubleValue
0.000

@<SCITEGIC>MOL_PROPERTY
Tether
SciTegic.value.DoubleValue
0.000

@<TRIPOS>MOLECULE
guest-4_confgen4.mol2 : confsearch ligand conformer 215
          16          16           1
SMALL
USER_CHARGES
 
@<TRIPOS>ATOM
       1    C1      20.700167   18.032080   21.884797 C.3        1 MOL1        -0.1689
       2    H1      21.705294   17.849982   22.288924 H          1 MOL1         0.0830
       3    H2      20.618649   17.512926   20.919678 H          1 MOL1         0.0830
       4    C2      20.409873   19.526965   21.693026 C.3        1 MOL1        -0.1689
       5    H3      20.826986   20.094320   22.536711 H          1 MOL1         0.0830
       6    H4      20.843134   19.922734   20.764429 H          1 MOL1         0.0830
       7    C3      18.873424   19.626804   21.713859 C.3        1 MOL1        -0.1765
       8    H5      18.483197   19.516653   20.693724 H          1 MOL1         0.0830
       9    H6      18.536598   20.599358   22.096882 H          1 MOL1         0.0830
      10    C4      18.367937   18.451230   22.575431 C.3        1 MOL1         0.1214
      11    H7      17.599009   17.896613   22.018054 H          1 MOL1         0.0787
      12    C5      19.589968   17.544799   22.833810 C.3        1 MOL1        -0.1765
      13    H8      19.928793   17.649833   23.873496 H          1 MOL1         0.0830
      14    H9      19.351277   16.487236   22.662246 H          1 MOL1         0.0830
      15    O1      17.846195   18.934796   23.807440 O.3        1 MOL1        -0.5512
      16    H10     17.552113   18.149581   24.315852 H          1 MOL1         0.3776
@<TRIPOS>BOND
    1     1     2    1
    2     1     3    1
    3     1     4    1
    4     4     5    1
    5     4     6    1
    6     4     7    1
    7     7     8    1
    8     7     9    1
    9     7    10    1
   10    10    11    1
   11     1    12    1
   12    10    12    1
   13    12    13    1
   14    12    14    1
   15    10    15    1
   16    15    16    1
@<TRIPOS>SUBSTRUCTURE
       1 MOL1            1 RESIDUE      1      MOL     
@<SCITEGIC>MOL_PROPERTY
VConf Rank
SciTegic.value.IntegerValue
215

@<SCITEGIC>MOL_PROPERTY
Conf_Id
SciTegic.value.IntegerValue
33

@<SCITEGIC>MOL_PROPERTY
Delta U+W
SciTegic.value.DoubleValue
0.015

@<SCITEGIC>MOL_PROPERTY
U+W
SciTegic.value.DoubleValue
3.025

@<SCITEGIC>MOL_PROPERTY
Grad RMS
SciTegic.value.DoubleValue
0.000000

@<SCITEGIC>MOL_PROPERTY
U
SciTegic.value.DoubleValue
5.843

@<SCITEGIC>MOL_PROPERTY
W
SciTegic.value.DoubleValue
-2.819

@<SCITEGIC>MOL_PROPERTY
W(PB)
SciTegic.value.DoubleValue
-4.568

@<SCITEGIC>MOL_PROPERTY
W(SA)
SciTegic.value.DoubleValue
1.750

@<SCITEGIC>MOL_PROPERTY
Valence
SciTegic.value.DoubleValue
13.789

@<SCITEGIC>MOL_PROPERTY
Coulomb
SciTegic.value.DoubleValue
-8.574

@<SCITEGIC>MOL_PROPERTY
VdW
SciTegic.value.DoubleValue
0.628

@<SCITEGIC>MOL_PROPERTY
VdW6
SciTegic.value.DoubleValue
-3.284

@<SCITEGIC>MOL_PROPERTY
VdW12
SciTegic.value.DoubleValue
3.913

@<SCITEGIC>MOL_PROPERTY
Bond
SciTegic.value.DoubleValue
0.054

@<SCITEGIC>MOL_PROPERTY
Angle
SciTegic.value.DoubleValue
4.033

@<SCITEGIC>MOL_PROPERTY
Pdih
SciTegic.value.DoubleValue
9.702

@<SCITEGIC>MOL_PROPERTY
Idih
SciTegic.value.DoubleValue
0.000

@<SCITEGIC>MOL_PROPERTY
Tether
SciTegic.value.DoubleValue
0.000

@<TRIPOS>MOLECULE
guest-4_confgen4.mol2 : confsearch ligand conformer 216
          16          16           1
SMALL
USER_CHARGES
 
@<TRIPOS>ATOM
       1    C1      18.657866   18.551482   23.381761 C.3        1 MOL1        -0.1689
       2    H1      18.031588   17.653117   23.470885 H          1 MOL1         0.0830
       3    H2      18.511333   19.151411   24.290392 H          1 MOL1         0.0830
       4    C2      18.268259   19.339496   22.112012 C.3        1 MOL1        -0.1689
       5    H3      17.452723   18.823077   21.587189 H          1 MOL1         0.0830
       6    H4      17.918872   20.352026   22.356369 H          1 MOL1         0.0830
       7    C3      19.528799   19.387184   21.222517 C.3        1 MOL1        -0.1765
       8    H5      20.046190   20.344283   21.370466 H          1 MOL1         0.0830
       9    H6      19.288273   19.298971   20.154635 H          1 MOL1         0.0830
      10    C4      20.436266   18.249637   21.709842 C.3        1 MOL1         0.1214
      11    H7      21.496929   18.468617   21.520040 H          1 MOL1         0.0787
      12    C5      20.139556   18.153646   23.212408 C.3        1 MOL1        -0.1765
      13    H8      20.350821   17.154050   23.615121 H          1 MOL1         0.0830
      14    H9      20.775501   18.870860   23.747944 H          1 MOL1         0.0830
      15    O1      20.048086   17.038405   21.078146 O.3        1 MOL1        -0.5512
      16    H10     19.100690   16.927500   21.300187 H          1 MOL1         0.3776
@<TRIPOS>BOND
    1     1     2    1
    2     1     3    1
    3     1     4    1
    4     4     5    1
    5     4     6    1
    6     4     7    1
    7     7     8    1
    8     7     9    1
    9     7    10    1
   10    10    11    1
   11     1    12    1
   12    10    12    1
   13    12    13    1
   14    12    14    1
   15    10    15    1
   16    15    16    1
@<TRIPOS>SUBSTRUCTURE
       1 MOL1            1 RESIDUE      1      MOL     
@<SCITEGIC>MOL_PROPERTY
VConf Rank
SciTegic.value.IntegerValue
216

@<SCITEGIC>MOL_PROPERTY
Conf_Id
SciTegic.value.IntegerValue
20

@<SCITEGIC>MOL_PROPERTY
Delta U+W
SciTegic.value.DoubleValue
-0.483

@<SCITEGIC>MOL_PROPERTY
U+W
SciTegic.value.DoubleValue
2.527

@<SCITEGIC>MOL_PROPERTY
Grad RMS
SciTegic.value.DoubleValue
0.000000

@<SCITEGIC>MOL_PROPERTY
U
SciTegic.value.DoubleValue
4.508

@<SCITEGIC>MOL_PROPERTY
W
SciTegic.value.DoubleValue
-1.981

@<SCITEGIC>MOL_PROPERTY
W(PB)
SciTegic.value.DoubleValue
-3.712

@<SCITEGIC>MOL_PROPERTY
W(SA)
SciTegic.value.DoubleValue
1.732

@<SCITEGIC>MOL_PROPERTY
Valence
SciTegic.value.DoubleValue
14.705

@<SCITEGIC>MOL_PROPERTY
Coulomb
SciTegic.value.DoubleValue
-10.687

@<SCITEGIC>MOL_PROPERTY
VdW
SciTegic.value.DoubleValue
0.490

@<SCITEGIC>MOL_PROPERTY
VdW6
SciTegic.value.DoubleValue
-3.745

@<SCITEGIC>MOL_PROPERTY
VdW12
SciTegic.value.DoubleValue
4.235

@<SCITEGIC>MOL_PROPERTY
Bond
SciTegic.value.DoubleValue
0.068

@<SCITEGIC>MOL_PROPERTY
Angle
SciTegic.value.DoubleValue
3.901

@<SCITEGIC>MOL_PROPERTY
Pdih
SciTegic.value.DoubleValue
10.737

@<SCITEGIC>MOL_PROPERTY
Idih
SciTegic.value.DoubleValue
0.000

@<SCITEGIC>MOL_PROPERTY
Tether
SciTegic.value.DoubleValue
0.000

@<TRIPOS>MOLECULE
guest-4_confgen4.mol2 : confsearch ligand conformer 217
          16          16           1
SMALL
USER_CHARGES
 
@<TRIPOS>ATOM
       1    C1      19.215092   19.645123   23.264373 C.3        1 MOL1        -0.1689
       2    H1      19.620543   19.254941   24.208325 H          1 MOL1         0.0830
       3    H2      18.930567   20.694663   23.419797 H          1 MOL1         0.0830
       4    C2      18.031535   18.777258   22.815227 C.3        1 MOL1        -0.1689
       5    H3      17.396158   18.469082   23.656703 H          1 MOL1         0.0830
       6    H4      17.410536   19.338791   22.103422 H          1 MOL1         0.0830
       7    C3      18.684185   17.577852   22.103868 C.3        1 MOL1        -0.1765
       8    H5      18.029723   17.170153   21.322646 H          1 MOL1         0.0830
       9    H6      18.873399   16.780568   22.835524 H          1 MOL1         0.0830
      10    C4      20.015675   18.092130   21.517070 C.3        1 MOL1         0.1214
      11    H7      19.929936   18.198350   20.425793 H          1 MOL1         0.0787
      12    C5      20.260807   19.479140   22.146313 C.3        1 MOL1        -0.1765
      13    H8      21.283920   19.587694   22.530341 H          1 MOL1         0.0830
      14    H9      20.107919   20.251372   21.381222 H          1 MOL1         0.0830
      15    O1      21.075927   17.205783   21.854921 O.3        1 MOL1        -0.5512
      16    H10     20.863645   16.342633   21.440867 H          1 MOL1         0.3776
@<TRIPOS>BOND
    1     1     2    1
    2     1     3    1
    3     1     4    1
    4     4     5    1
    5     4     6    1
    6     4     7    1
    7     7     8    1
    8     7     9    1
    9     7    10    1
   10    10    11    1
   11     1    12    1
   12    10    12    1
   13    12    13    1
   14    12    14    1
   15    10    15    1
   16    15    16    1
@<TRIPOS>SUBSTRUCTURE
       1 MOL1            1 RESIDUE      1      MOL     
@<SCITEGIC>MOL_PROPERTY
VConf Rank
SciTegic.value.IntegerValue
217

@<SCITEGIC>MOL_PROPERTY
Conf_Id
SciTegic.value.IntegerValue
59

@<SCITEGIC>MOL_PROPERTY
Delta U+W
SciTegic.value.DoubleValue
0.000

@<SCITEGIC>MOL_PROPERTY
U+W
SciTegic.value.DoubleValue
3.010

@<SCITEGIC>MOL_PROPERTY
Grad RMS
SciTegic.value.DoubleValue
0.000000

@<SCITEGIC>MOL_PROPERTY
U
SciTegic.value.DoubleValue
5.843

@<SCITEGIC>MOL_PROPERTY
W
SciTegic.value.DoubleValue
-2.833

@<SCITEGIC>MOL_PROPERTY
W(PB)
SciTegic.value.DoubleValue
-4.568

@<SCITEGIC>MOL_PROPERTY
W(SA)
SciTegic.value.DoubleValue
1.735

@<SCITEGIC>MOL_PROPERTY
Valence
SciTegic.value.DoubleValue
13.789

@<SCITEGIC>MOL_PROPERTY
Coulomb
SciTegic.value.DoubleValue
-8.574

@<SCITEGIC>MOL_PROPERTY
VdW
SciTegic.value.DoubleValue
0.628

@<SCITEGIC>MOL_PROPERTY
VdW6
SciTegic.value.DoubleValue
-3.284

@<SCITEGIC>MOL_PROPERTY
VdW12
SciTegic.value.DoubleValue
3.912

@<SCITEGIC>MOL_PROPERTY
Bond
SciTegic.value.DoubleValue
0.054

@<SCITEGIC>MOL_PROPERTY
Angle
SciTegic.value.DoubleValue
4.034

@<SCITEGIC>MOL_PROPERTY
Pdih
SciTegic.value.DoubleValue
9.702

@<SCITEGIC>MOL_PROPERTY
Idih
SciTegic.value.DoubleValue
0.000

@<SCITEGIC>MOL_PROPERTY
Tether
SciTegic.value.DoubleValue
0.000

@<TRIPOS>MOLECULE
guest-4_confgen4.mol2 : confsearch ligand conformer 218
          16          16           1
SMALL
USER_CHARGES
 
@<TRIPOS>ATOM
       1    C1      18.064953   18.304641   22.497163 C.3        1 MOL1        -0.1689
       2    H1      17.353520   18.177072   23.324415 H          1 MOL1         0.0830
       3    H2      17.500995   18.292652   21.554067 H          1 MOL1         0.0830
       4    C2      19.135327   17.204902   22.472636 C.3        1 MOL1        -0.1689
       5    H3      19.448396   16.972710   23.500135 H          1 MOL1         0.0830
       6    H4      18.774537   16.278638   22.005188 H          1 MOL1         0.0830
       7    C3      20.313379   17.830995   21.703691 C.3        1 MOL1        -0.1765
       8    H5      20.207123   17.620321   20.631585 H          1 MOL1         0.0830
       9    H6      21.276092   17.416570   22.031494 H          1 MOL1         0.0830
      10    C4      20.224934   19.354683   21.928080 C.3        1 MOL1         0.1214
      11    H7      20.263781   19.867899   20.956165 H          1 MOL1         0.0787
      12    C5      18.864836   19.615463   22.609155 C.3        1 MOL1        -0.1765
      13    H8      19.011213   19.862247   23.669557 H          1 MOL1         0.0830
      14    H9      18.331937   20.451915   22.138820 H          1 MOL1         0.0830
      15    O1      21.286598   19.789029   22.769573 O.3        1 MOL1        -0.5512
      16    H10     21.174997   20.756174   22.886635 H          1 MOL1         0.3776
@<TRIPOS>BOND
    1     1     2    1
    2     1     3    1
    3     1     4    1
    4     4     5    1
    5     4     6    1
    6     4     7    1
    7     7     8    1
    8     7     9    1
    9     7    10    1
   10    10    11    1
   11     1    12    1
   12    10    12    1
   13    12    13    1
   14    12    14    1
   15    10    15    1
   16    15    16    1
@<TRIPOS>SUBSTRUCTURE
       1 MOL1            1 RESIDUE      1      MOL     
@<SCITEGIC>MOL_PROPERTY
VConf Rank
SciTegic.value.IntegerValue
218

@<SCITEGIC>MOL_PROPERTY
Conf_Id
SciTegic.value.IntegerValue
33

@<SCITEGIC>MOL_PROPERTY
Delta U+W
SciTegic.value.DoubleValue
0.015

@<SCITEGIC>MOL_PROPERTY
U+W
SciTegic.value.DoubleValue
3.025

@<SCITEGIC>MOL_PROPERTY
Grad RMS
SciTegic.value.DoubleValue
0.000000

@<SCITEGIC>MOL_PROPERTY
U
SciTegic.value.DoubleValue
5.843

@<SCITEGIC>MOL_PROPERTY
W
SciTegic.value.DoubleValue
-2.819

@<SCITEGIC>MOL_PROPERTY
W(PB)
SciTegic.value.DoubleValue
-4.568

@<SCITEGIC>MOL_PROPERTY
W(SA)
SciTegic.value.DoubleValue
1.750

@<SCITEGIC>MOL_PROPERTY
Valence
SciTegic.value.DoubleValue
13.789

@<SCITEGIC>MOL_PROPERTY
Coulomb
SciTegic.value.DoubleValue
-8.574

@<SCITEGIC>MOL_PROPERTY
VdW
SciTegic.value.DoubleValue
0.628

@<SCITEGIC>MOL_PROPERTY
VdW6
SciTegic.value.DoubleValue
-3.284

@<SCITEGIC>MOL_PROPERTY
VdW12
SciTegic.value.DoubleValue
3.913

@<SCITEGIC>MOL_PROPERTY
Bond
SciTegic.value.DoubleValue
0.054

@<SCITEGIC>MOL_PROPERTY
Angle
SciTegic.value.DoubleValue
4.033

@<SCITEGIC>MOL_PROPERTY
Pdih
SciTegic.value.DoubleValue
9.702

@<SCITEGIC>MOL_PROPERTY
Idih
SciTegic.value.DoubleValue
0.000

@<SCITEGIC>MOL_PROPERTY
Tether
SciTegic.value.DoubleValue
0.000

@<TRIPOS>MOLECULE
guest-4_confgen4.mol2 : confsearch ligand conformer 219
          16          16           1
SMALL
USER_CHARGES
 
@<TRIPOS>ATOM
       1    C1      18.238557   17.921598   22.367052 C.3        1 MOL1        -0.1689
       2    H1      17.578038   18.265343   23.175001 H          1 MOL1         0.0830
       3    H2      17.735466   17.088788   21.856832 H          1 MOL1         0.0830
       4    C2      19.601547   17.489733   22.950809 C.3        1 MOL1        -0.1689
       5    H3      19.600309   17.623465   24.041378 H          1 MOL1         0.0830
       6    H4      19.811905   16.431235   22.745064 H          1 MOL1         0.0830
       7    C3      20.664196   18.402655   22.302901 C.3        1 MOL1        -0.1765
       8    H5      21.129126   17.880738   21.456105 H          1 MOL1         0.0830
       9    H6      21.462391   18.676167   23.005810 H          1 MOL1         0.0830
      10    C4      19.907074   19.629569   21.777124 C.3        1 MOL1         0.1214
      11    H7      20.419596   20.083145   20.916559 H          1 MOL1         0.0787
      12    C5      18.528912   19.078452   21.387388 C.3        1 MOL1        -0.1765
      13    H8      17.749277   19.851436   21.413269 H          1 MOL1         0.0830
      14    H9      18.578028   18.687648   20.362458 H          1 MOL1         0.0830
      15    O1      19.753850   20.570923   22.829352 O.3        1 MOL1        -0.5512
      16    H10     19.293480   20.082868   23.542811 H          1 MOL1         0.3776
@<TRIPOS>BOND
    1     1     2    1
    2     1     3    1
    3     1     4    1
    4     4     5    1
    5     4     6    1
    6     4     7    1
    7     7     8    1
    8     7     9    1
    9     7    10    1
   10    10    11    1
   11     1    12    1
   12    10    12    1
   13    12    13    1
   14    12    14    1
   15    10    15    1
   16    15    16    1
@<TRIPOS>SUBSTRUCTURE
       1 MOL1            1 RESIDUE      1      MOL     
@<SCITEGIC>MOL_PROPERTY
VConf Rank
SciTegic.value.IntegerValue
219

@<SCITEGIC>MOL_PROPERTY
Conf_Id
SciTegic.value.IntegerValue
20

@<SCITEGIC>MOL_PROPERTY
Delta U+W
SciTegic.value.DoubleValue
-0.483

@<SCITEGIC>MOL_PROPERTY
U+W
SciTegic.value.DoubleValue
2.527

@<SCITEGIC>MOL_PROPERTY
Grad RMS
SciTegic.value.DoubleValue
0.000000

@<SCITEGIC>MOL_PROPERTY
U
SciTegic.value.DoubleValue
4.508

@<SCITEGIC>MOL_PROPERTY
W
SciTegic.value.DoubleValue
-1.981

@<SCITEGIC>MOL_PROPERTY
W(PB)
SciTegic.value.DoubleValue
-3.712

@<SCITEGIC>MOL_PROPERTY
W(SA)
SciTegic.value.DoubleValue
1.732

@<SCITEGIC>MOL_PROPERTY
Valence
SciTegic.value.DoubleValue
14.705

@<SCITEGIC>MOL_PROPERTY
Coulomb
SciTegic.value.DoubleValue
-10.687

@<SCITEGIC>MOL_PROPERTY
VdW
SciTegic.value.DoubleValue
0.490

@<SCITEGIC>MOL_PROPERTY
VdW6
SciTegic.value.DoubleValue
-3.745

@<SCITEGIC>MOL_PROPERTY
VdW12
SciTegic.value.DoubleValue
4.235

@<SCITEGIC>MOL_PROPERTY
Bond
SciTegic.value.DoubleValue
0.068

@<SCITEGIC>MOL_PROPERTY
Angle
SciTegic.value.DoubleValue
3.901

@<SCITEGIC>MOL_PROPERTY
Pdih
SciTegic.value.DoubleValue
10.737

@<SCITEGIC>MOL_PROPERTY
Idih
SciTegic.value.DoubleValue
0.000

@<SCITEGIC>MOL_PROPERTY
Tether
SciTegic.value.DoubleValue
0.000

@<TRIPOS>MOLECULE
guest-4_confgen4.mol2 : confsearch ligand conformer 220
          16          16           1
SMALL
USER_CHARGES
 
@<TRIPOS>ATOM
       1    C1      17.919073   18.697451   22.164583 C.3        1 MOL1        -0.1689
       2    H1      17.537202   17.669665   22.090378 H          1 MOL1         0.0830
       3    H2      17.062202   19.384663   22.152020 H          1 MOL1         0.0830
       4    C2      18.902008   18.965070   21.016565 C.3        1 MOL1        -0.1689
       5    H3      18.570681   18.517352   20.069712 H          1 MOL1         0.0830
       6    H4      19.008171   20.048409   20.865796 H          1 MOL1         0.0830
       7    C3      20.235946   18.374444   21.508833 C.3        1 MOL1        -0.1765
       8    H5      21.093675   18.907694   21.078958 H          1 MOL1         0.0830
       9    H6      20.303398   17.322389   21.199938 H          1 MOL1         0.0830
      10    C4      20.216281   18.479508   23.048396 C.3        1 MOL1         0.1214
      11    H7      20.893189   19.280499   23.379646 H          1 MOL1         0.0787
      12    C5      18.768774   18.840936   23.440730 C.3        1 MOL1        -0.1765
      13    H8      18.387105   18.208948   24.253713 H          1 MOL1         0.0830
      14    H9      18.741102   19.882405   23.786647 H          1 MOL1         0.0830
      15    O1      20.586119   17.235055   23.630156 O.3        1 MOL1        -0.5512
      16    H10     21.504640   17.051048   23.340341 H          1 MOL1         0.3776
@<TRIPOS>BOND
    1     1     2    1
    2     1     3    1
    3     1     4    1
    4     4     5    1
    5     4     6    1
    6     4     7    1
    7     7     8    1
    8     7     9    1
    9     7    10    1
   10    10    11    1
   11     1    12    1
   12    10    12    1
   13    12    13    1
   14    12    14    1
   15    10    15    1
   16    15    16    1
@<TRIPOS>SUBSTRUCTURE
       1 MOL1            1 RESIDUE      1      MOL     
@<SCITEGIC>MOL_PROPERTY
VConf Rank
SciTegic.value.IntegerValue
220

@<SCITEGIC>MOL_PROPERTY
Conf_Id
SciTegic.value.IntegerValue
59

@<SCITEGIC>MOL_PROPERTY
Delta U+W
SciTegic.value.DoubleValue
0.000

@<SCITEGIC>MOL_PROPERTY
U+W
SciTegic.value.DoubleValue
3.010

@<SCITEGIC>MOL_PROPERTY
Grad RMS
SciTegic.value.DoubleValue
0.000000

@<SCITEGIC>MOL_PROPERTY
U
SciTegic.value.DoubleValue
5.843

@<SCITEGIC>MOL_PROPERTY
W
SciTegic.value.DoubleValue
-2.833

@<SCITEGIC>MOL_PROPERTY
W(PB)
SciTegic.value.DoubleValue
-4.568

@<SCITEGIC>MOL_PROPERTY
W(SA)
SciTegic.value.DoubleValue
1.735

@<SCITEGIC>MOL_PROPERTY
Valence
SciTegic.value.DoubleValue
13.789

@<SCITEGIC>MOL_PROPERTY
Coulomb
SciTegic.value.DoubleValue
-8.574

@<SCITEGIC>MOL_PROPERTY
VdW
SciTegic.value.DoubleValue
0.628

@<SCITEGIC>MOL_PROPERTY
VdW6
SciTegic.value.DoubleValue
-3.284

@<SCITEGIC>MOL_PROPERTY
VdW12
SciTegic.value.DoubleValue
3.912

@<SCITEGIC>MOL_PROPERTY
Bond
SciTegic.value.DoubleValue
0.054

@<SCITEGIC>MOL_PROPERTY
Angle
SciTegic.value.DoubleValue
4.034

@<SCITEGIC>MOL_PROPERTY
Pdih
SciTegic.value.DoubleValue
9.702

@<SCITEGIC>MOL_PROPERTY
Idih
SciTegic.value.DoubleValue
0.000

@<SCITEGIC>MOL_PROPERTY
Tether
SciTegic.value.DoubleValue
0.000

@<TRIPOS>MOLECULE
guest-4_confgen4.mol2 : confsearch ligand conformer 221
          16          16           1
SMALL
USER_CHARGES
 
@<TRIPOS>ATOM
       1    C1      20.218810   19.678628   21.713224 C.3        1 MOL1        -0.1689
       2    H1      20.824294   20.537771   22.032630 H          1 MOL1         0.0830
       3    H2      20.337493   19.559409   20.627258 H          1 MOL1         0.0830
       4    C2      18.732464   19.852739   22.054090 C.3        1 MOL1        -0.1689
       5    H3      18.633874   20.318600   23.044510 H          1 MOL1         0.0830
       6    H4      18.205464   20.481810   21.323895 H          1 MOL1         0.0830
       7    C3      18.177473   18.417201   22.101941 C.3        1 MOL1        -0.1765
       8    H5      17.818088   18.127747   21.105877 H          1 MOL1         0.0830
       9    H6      17.332967   18.333225   22.798918 H          1 MOL1         0.0830
      10    C4      19.355715   17.503082   22.496821 C.3        1 MOL1         0.1214
      11    H7      19.429415   16.674298   21.777650 H          1 MOL1         0.0787
      12    C5      20.625882   18.376945   22.427733 C.3        1 MOL1        -0.1765
      13    H8      20.980485   18.613849   23.440114 H          1 MOL1         0.0830
      14    H9      21.439088   17.865428   21.896796 H          1 MOL1         0.0830
      15    O1      19.171449   17.008429   23.817904 O.3        1 MOL1        -0.5512
      16    H10     19.949656   16.446749   24.018997 H          1 MOL1         0.3776
@<TRIPOS>BOND
    1     1     2    1
    2     1     3    1
    3     1     4    1
    4     4     5    1
    5     4     6    1
    6     4     7    1
    7     7     8    1
    8     7     9    1
    9     7    10    1
   10    10    11    1
   11     1    12    1
   12    10    12    1
   13    12    13    1
   14    12    14    1
   15    10    15    1
   16    15    16    1
@<TRIPOS>SUBSTRUCTURE
       1 MOL1            1 RESIDUE      1      MOL     
@<SCITEGIC>MOL_PROPERTY
VConf Rank
SciTegic.value.IntegerValue
221

@<SCITEGIC>MOL_PROPERTY
Conf_Id
SciTegic.value.IntegerValue
33

@<SCITEGIC>MOL_PROPERTY
Delta U+W
SciTegic.value.DoubleValue
0.015

@<SCITEGIC>MOL_PROPERTY
U+W
SciTegic.value.DoubleValue
3.025

@<SCITEGIC>MOL_PROPERTY
Grad RMS
SciTegic.value.DoubleValue
0.000000

@<SCITEGIC>MOL_PROPERTY
U
SciTegic.value.DoubleValue
5.843

@<SCITEGIC>MOL_PROPERTY
W
SciTegic.value.DoubleValue
-2.819

@<SCITEGIC>MOL_PROPERTY
W(PB)
SciTegic.value.DoubleValue
-4.568

@<SCITEGIC>MOL_PROPERTY
W(SA)
SciTegic.value.DoubleValue
1.750

@<SCITEGIC>MOL_PROPERTY
Valence
SciTegic.value.DoubleValue
13.789

@<SCITEGIC>MOL_PROPERTY
Coulomb
SciTegic.value.DoubleValue
-8.574

@<SCITEGIC>MOL_PROPERTY
VdW
SciTegic.value.DoubleValue
0.628

@<SCITEGIC>MOL_PROPERTY
VdW6
SciTegic.value.DoubleValue
-3.284

@<SCITEGIC>MOL_PROPERTY
VdW12
SciTegic.value.DoubleValue
3.913

@<SCITEGIC>MOL_PROPERTY
Bond
SciTegic.value.DoubleValue
0.054

@<SCITEGIC>MOL_PROPERTY
Angle
SciTegic.value.DoubleValue
4.033

@<SCITEGIC>MOL_PROPERTY
Pdih
SciTegic.value.DoubleValue
9.702

@<SCITEGIC>MOL_PROPERTY
Idih
SciTegic.value.DoubleValue
0.000

@<SCITEGIC>MOL_PROPERTY
Tether
SciTegic.value.DoubleValue
0.000

@<TRIPOS>MOLECULE
guest-4_confgen4.mol2 : confsearch ligand conformer 222
          16          16           1
SMALL
USER_CHARGES
 
@<TRIPOS>ATOM
       1    C1      19.710687   17.447334   22.825649 C.3        1 MOL1        -0.1689
       2    H1      19.016241   16.623805   22.609384 H          1 MOL1         0.0830
       3    H2      20.515378   17.047454   23.457760 H          1 MOL1         0.0830
       4    C2      18.957484   18.599253   23.526214 C.3        1 MOL1        -0.1689
       5    H3      17.898753   18.332792   23.649954 H          1 MOL1         0.0830
       6    H4      19.368848   18.802626   24.524422 H          1 MOL1         0.0830
       7    C3      19.093069   19.832837   22.608431 C.3        1 MOL1        -0.1765
       8    H5      19.913761   20.468219   22.966726 H          1 MOL1         0.0830
       9    H6      18.180113   20.443000   22.593644 H          1 MOL1         0.0830
      10    C4      19.452688   19.291068   21.218412 C.3        1 MOL1         0.1214
      11    H7      20.030059   20.023249   20.635714 H          1 MOL1         0.0787
      12    C5      20.274174   18.028429   21.511431 C.3        1 MOL1        -0.1765
      13    H8      20.234443   17.305395   20.685811 H          1 MOL1         0.0830
      14    H9      21.324851   18.312370   21.656607 H          1 MOL1         0.0830
      15    O1      18.261784   18.926343   20.536114 O.3        1 MOL1        -0.5512
      16    H10     17.819422   18.279589   21.123641 H          1 MOL1         0.3776
@<TRIPOS>BOND
    1     1     2    1
    2     1     3    1
    3     1     4    1
    4     4     5    1
    5     4     6    1
    6     4     7    1
    7     7     8    1
    8     7     9    1
    9     7    10    1
   10    10    11    1
   11     1    12    1
   12    10    12    1
   13    12    13    1
   14    12    14    1
   15    10    15    1
   16    15    16    1
@<TRIPOS>SUBSTRUCTURE
       1 MOL1            1 RESIDUE      1      MOL     
@<SCITEGIC>MOL_PROPERTY
VConf Rank
SciTegic.value.IntegerValue
222

@<SCITEGIC>MOL_PROPERTY
Conf_Id
SciTegic.value.IntegerValue
20

@<SCITEGIC>MOL_PROPERTY
Delta U+W
SciTegic.value.DoubleValue
-0.483

@<SCITEGIC>MOL_PROPERTY
U+W
SciTegic.value.DoubleValue
2.527

@<SCITEGIC>MOL_PROPERTY
Grad RMS
SciTegic.value.DoubleValue
0.000000

@<SCITEGIC>MOL_PROPERTY
U
SciTegic.value.DoubleValue
4.508

@<SCITEGIC>MOL_PROPERTY
W
SciTegic.value.DoubleValue
-1.981

@<SCITEGIC>MOL_PROPERTY
W(PB)
SciTegic.value.DoubleValue
-3.712

@<SCITEGIC>MOL_PROPERTY
W(SA)
SciTegic.value.DoubleValue
1.732

@<SCITEGIC>MOL_PROPERTY
Valence
SciTegic.value.DoubleValue
14.705

@<SCITEGIC>MOL_PROPERTY
Coulomb
SciTegic.value.DoubleValue
-10.687

@<SCITEGIC>MOL_PROPERTY
VdW
SciTegic.value.DoubleValue
0.490

@<SCITEGIC>MOL_PROPERTY
VdW6
SciTegic.value.DoubleValue
-3.745

@<SCITEGIC>MOL_PROPERTY
VdW12
SciTegic.value.DoubleValue
4.235

@<SCITEGIC>MOL_PROPERTY
Bond
SciTegic.value.DoubleValue
0.068

@<SCITEGIC>MOL_PROPERTY
Angle
SciTegic.value.DoubleValue
3.901

@<SCITEGIC>MOL_PROPERTY
Pdih
SciTegic.value.DoubleValue
10.737

@<SCITEGIC>MOL_PROPERTY
Idih
SciTegic.value.DoubleValue
0.000

@<SCITEGIC>MOL_PROPERTY
Tether
SciTegic.value.DoubleValue
0.000

@<TRIPOS>MOLECULE
guest-4_confgen4.mol2 : confsearch ligand conformer 223
          16          16           1
SMALL
USER_CHARGES
 
@<TRIPOS>ATOM
       1    C1      19.698114   17.286018   22.938717 C.3        1 MOL1        -0.1689
       2    H1      20.777894   17.345859   23.134089 H          1 MOL1         0.0830
       3    H2      19.327656   16.333862   23.342207 H          1 MOL1         0.0830
       4    C2      19.439576   17.424452   21.432157 C.3        1 MOL1        -0.1689
       5    H3      20.186679   16.890689   20.829088 H          1 MOL1         0.0830
       6    H4      18.447793   17.018725   21.188482 H          1 MOL1         0.0830
       7    C3      19.457964   18.942922   21.178250 C.3        1 MOL1        -0.1765
       8    H5      18.814613   19.215900   20.331829 H          1 MOL1         0.0830
       9    H6      20.482525   19.258823   20.938946 H          1 MOL1         0.0830
      10    C4      18.985261   19.608596   22.487871 C.3        1 MOL1         0.1214
      11    H7      17.961297   19.991307   22.367251 H          1 MOL1         0.0787
      12    C5      18.992687   18.503494   23.564220 C.3        1 MOL1        -0.1765
      13    H8      19.488014   18.826332   24.489665 H          1 MOL1         0.0830
      14    H9      17.956664   18.240633   23.814503 H          1 MOL1         0.0830
      15    O1      19.874568   20.656691   22.854637 O.3        1 MOL1        -0.5512
      16    H10     19.838263   21.321230   22.134497 H          1 MOL1         0.3776
@<TRIPOS>BOND
    1     1     2    1
    2     1     3    1
    3     1     4    1
    4     4     5    1
    5     4     6    1
    6     4     7    1
    7     7     8    1
    8     7     9    1
    9     7    10    1
   10    10    11    1
   11     1    12    1
   12    10    12    1
   13    12    13    1
   14    12    14    1
   15    10    15    1
   16    15    16    1
@<TRIPOS>SUBSTRUCTURE
       1 MOL1            1 RESIDUE      1      MOL     
@<SCITEGIC>MOL_PROPERTY
VConf Rank
SciTegic.value.IntegerValue
223

@<SCITEGIC>MOL_PROPERTY
Conf_Id
SciTegic.value.IntegerValue
59

@<SCITEGIC>MOL_PROPERTY
Delta U+W
SciTegic.value.DoubleValue
0.000

@<SCITEGIC>MOL_PROPERTY
U+W
SciTegic.value.DoubleValue
3.010

@<SCITEGIC>MOL_PROPERTY
Grad RMS
SciTegic.value.DoubleValue
0.000000

@<SCITEGIC>MOL_PROPERTY
U
SciTegic.value.DoubleValue
5.843

@<SCITEGIC>MOL_PROPERTY
W
SciTegic.value.DoubleValue
-2.833

@<SCITEGIC>MOL_PROPERTY
W(PB)
SciTegic.value.DoubleValue
-4.568

@<SCITEGIC>MOL_PROPERTY
W(SA)
SciTegic.value.DoubleValue
1.735

@<SCITEGIC>MOL_PROPERTY
Valence
SciTegic.value.DoubleValue
13.789

@<SCITEGIC>MOL_PROPERTY
Coulomb
SciTegic.value.DoubleValue
-8.574

@<SCITEGIC>MOL_PROPERTY
VdW
SciTegic.value.DoubleValue
0.628

@<SCITEGIC>MOL_PROPERTY
VdW6
SciTegic.value.DoubleValue
-3.284

@<SCITEGIC>MOL_PROPERTY
VdW12
SciTegic.value.DoubleValue
3.912

@<SCITEGIC>MOL_PROPERTY
Bond
SciTegic.value.DoubleValue
0.054

@<SCITEGIC>MOL_PROPERTY
Angle
SciTegic.value.DoubleValue
4.034

@<SCITEGIC>MOL_PROPERTY
Pdih
SciTegic.value.DoubleValue
9.702

@<SCITEGIC>MOL_PROPERTY
Idih
SciTegic.value.DoubleValue
0.000

@<SCITEGIC>MOL_PROPERTY
Tether
SciTegic.value.DoubleValue
0.000

@<TRIPOS>MOLECULE
guest-4_confgen4.mol2 : confsearch ligand conformer 224
          16          16           1
SMALL
USER_CHARGES
 
@<TRIPOS>ATOM
       1    C1      18.700457   19.051803   23.433655 C.3        1 MOL1        -0.1689
       2    H1      18.838816   19.659718   24.338118 H          1 MOL1         0.0830
       3    H2      17.633067   18.806016   23.344840 H          1 MOL1         0.0830
       4    C2      19.526912   17.758904   23.466965 C.3        1 MOL1        -0.1689
       5    H3      20.513952   17.963921   23.904456 H          1 MOL1         0.0830
       6    H4      19.045644   16.968457   24.058757 H          1 MOL1         0.0830
       7    C3      19.690199   17.367815   21.986606 C.3        1 MOL1        -0.1765
       8    H5      18.859420   16.717382   21.683576 H          1 MOL1         0.0830
       9    H6      20.624861   16.817533   21.814507 H          1 MOL1         0.0830
      10    C4      19.624520   18.678463   21.175628 C.3        1 MOL1         0.1214
      11    H7      18.884034   18.570305   20.369711 H          1 MOL1         0.0787
      12    C5      19.175476   19.777571   22.161558 C.3        1 MOL1        -0.1765
      13    H8      20.020742   20.433174   22.411541 H          1 MOL1         0.0830
      14    H9      18.379562   20.401552   21.734926 H          1 MOL1         0.0830
      15    O1      20.906279   18.990558   20.643098 O.3        1 MOL1        -0.5512
      16    H10     20.808674   19.832739   20.150418 H          1 MOL1         0.3776
@<TRIPOS>BOND
    1     1     2    1
    2     1     3    1
    3     1     4    1
    4     4     5    1
    5     4     6    1
    6     4     7    1
    7     7     8    1
    8     7     9    1
    9     7    10    1
   10    10    11    1
   11     1    12    1
   12    10    12    1
   13    12    13    1
   14    12    14    1
   15    10    15    1
   16    15    16    1
@<TRIPOS>SUBSTRUCTURE
       1 MOL1            1 RESIDUE      1      MOL     
@<SCITEGIC>MOL_PROPERTY
VConf Rank
SciTegic.value.IntegerValue
224

@<SCITEGIC>MOL_PROPERTY
Conf_Id
SciTegic.value.IntegerValue
33

@<SCITEGIC>MOL_PROPERTY
Delta U+W
SciTegic.value.DoubleValue
0.015

@<SCITEGIC>MOL_PROPERTY
U+W
SciTegic.value.DoubleValue
3.025

@<SCITEGIC>MOL_PROPERTY
Grad RMS
SciTegic.value.DoubleValue
0.000000

@<SCITEGIC>MOL_PROPERTY
U
SciTegic.value.DoubleValue
5.843

@<SCITEGIC>MOL_PROPERTY
W
SciTegic.value.DoubleValue
-2.819

@<SCITEGIC>MOL_PROPERTY
W(PB)
SciTegic.value.DoubleValue
-4.568

@<SCITEGIC>MOL_PROPERTY
W(SA)
SciTegic.value.DoubleValue
1.750

@<SCITEGIC>MOL_PROPERTY
Valence
SciTegic.value.DoubleValue
13.789

@<SCITEGIC>MOL_PROPERTY
Coulomb
SciTegic.value.DoubleValue
-8.574

@<SCITEGIC>MOL_PROPERTY
VdW
SciTegic.value.DoubleValue
0.628

@<SCITEGIC>MOL_PROPERTY
VdW6
SciTegic.value.DoubleValue
-3.284

@<SCITEGIC>MOL_PROPERTY
VdW12
SciTegic.value.DoubleValue
3.913

@<SCITEGIC>MOL_PROPERTY
Bond
SciTegic.value.DoubleValue
0.054

@<SCITEGIC>MOL_PROPERTY
Angle
SciTegic.value.DoubleValue
4.033

@<SCITEGIC>MOL_PROPERTY
Pdih
SciTegic.value.DoubleValue
9.702

@<SCITEGIC>MOL_PROPERTY
Idih
SciTegic.value.DoubleValue
0.000

@<SCITEGIC>MOL_PROPERTY
Tether
SciTegic.value.DoubleValue
0.000

@<TRIPOS>MOLECULE
guest-4_confgen4.mol2 : confsearch ligand conformer 225
          16          16           1
SMALL
USER_CHARGES
 
@<TRIPOS>ATOM
       1    C1      20.026462   19.775890   22.180638 C.3        1 MOL1        -0.1689
       2    H1      19.594112   20.486857   21.463124 H          1 MOL1         0.0830
       3    H2      20.890422   20.263043   22.653132 H          1 MOL1         0.0830
       4    C2      20.435247   18.477184   21.451748 C.3        1 MOL1        -0.1689
       5    H3      20.201717   18.560019   20.381314 H          1 MOL1         0.0830
       6    H4      21.512916   18.284440   21.543824 H          1 MOL1         0.0830
       7    C3      19.611515   17.338888   22.090640 C.3        1 MOL1        -0.1765
       8    H5      20.220126   16.825315   22.846586 H          1 MOL1         0.0830
       9    H6      19.293641   16.590304   21.352681 H          1 MOL1         0.0830
      10    C4      18.420441   18.013641   22.784215 C.3        1 MOL1         0.1214
      11    H7      18.060386   17.421112   23.637592 H          1 MOL1         0.0787
      12    C5      18.971964   19.373410   23.233444 C.3        1 MOL1        -0.1765
      13    H8      18.181450   20.128154   23.340471 H          1 MOL1         0.0830
      14    H9      19.456504   19.256056   24.211744 H          1 MOL1         0.0830
      15    O1      17.382843   18.219690   21.836723 O.3        1 MOL1        -0.5512
      16    H10     17.792007   18.749760   21.122039 H          1 MOL1         0.3776
@<TRIPOS>BOND
    1     1     2    1
    2     1     3    1
    3     1     4    1
    4     4     5    1
    5     4     6    1
    6     4     7    1
    7     7     8    1
    8     7     9    1
    9     7    10    1
   10    10    11    1
   11     1    12    1
   12    10    12    1
   13    12    13    1
   14    12    14    1
   15    10    15    1
   16    15    16    1
@<TRIPOS>SUBSTRUCTURE
       1 MOL1            1 RESIDUE      1      MOL     
@<SCITEGIC>MOL_PROPERTY
VConf Rank
SciTegic.value.IntegerValue
225

@<SCITEGIC>MOL_PROPERTY
Conf_Id
SciTegic.value.IntegerValue
20

@<SCITEGIC>MOL_PROPERTY
Delta U+W
SciTegic.value.DoubleValue
-0.483

@<SCITEGIC>MOL_PROPERTY
U+W
SciTegic.value.DoubleValue
2.527

@<SCITEGIC>MOL_PROPERTY
Grad RMS
SciTegic.value.DoubleValue
0.000000

@<SCITEGIC>MOL_PROPERTY
U
SciTegic.value.DoubleValue
4.508

@<SCITEGIC>MOL_PROPERTY
W
SciTegic.value.DoubleValue
-1.981

@<SCITEGIC>MOL_PROPERTY
W(PB)
SciTegic.value.DoubleValue
-3.712

@<SCITEGIC>MOL_PROPERTY
W(SA)
SciTegic.value.DoubleValue
1.732

@<SCITEGIC>MOL_PROPERTY
Valence
SciTegic.value.DoubleValue
14.705

@<SCITEGIC>MOL_PROPERTY
Coulomb
SciTegic.value.DoubleValue
-10.687

@<SCITEGIC>MOL_PROPERTY
VdW
SciTegic.value.DoubleValue
0.490

@<SCITEGIC>MOL_PROPERTY
VdW6
SciTegic.value.DoubleValue
-3.745

@<SCITEGIC>MOL_PROPERTY
VdW12
SciTegic.value.DoubleValue
4.235

@<SCITEGIC>MOL_PROPERTY
Bond
SciTegic.value.DoubleValue
0.068

@<SCITEGIC>MOL_PROPERTY
Angle
SciTegic.value.DoubleValue
3.901

@<SCITEGIC>MOL_PROPERTY
Pdih
SciTegic.value.DoubleValue
10.737

@<SCITEGIC>MOL_PROPERTY
Idih
SciTegic.value.DoubleValue
0.000

@<SCITEGIC>MOL_PROPERTY
Tether
SciTegic.value.DoubleValue
0.000

@<TRIPOS>MOLECULE
guest-4_confgen4.mol2 : confsearch ligand conformer 226
          16          16           1
SMALL
USER_CHARGES
 
@<TRIPOS>ATOM
       1    C1      20.440136   19.063284   23.140974 C.3        1 MOL1        -0.1689
       2    H1      20.384842   18.481353   24.071552 H          1 MOL1         0.0830
       3    H2      21.309100   19.732239   23.204562 H          1 MOL1         0.0830
       4    C2      19.125603   19.827980   22.933677 C.3        1 MOL1        -0.1689
       5    H3      18.727895   20.237634   23.872171 H          1 MOL1         0.0830
       6    H4      19.288950   20.661791   22.236753 H          1 MOL1         0.0830
       7    C3      18.177806   18.795028   22.297087 C.3        1 MOL1        -0.1765
       8    H5      17.435678   19.277916   21.648310 H          1 MOL1         0.0830
       9    H6      17.636384   18.261572   23.090227 H          1 MOL1         0.0830
      10    C4      19.070266   17.815084   21.506579 C.3        1 MOL1         0.1214
      11    H7      18.968091   17.999975   20.427277 H          1 MOL1         0.0787
      12    C5      20.522613   18.105538   21.938039 C.3        1 MOL1        -0.1765
      13    H8      21.074377   17.189448   22.187753 H          1 MOL1         0.0830
      14    H9      21.050170   18.597733   21.110688 H          1 MOL1         0.0830
      15    O1      18.723959   16.471852   21.822314 O.3        1 MOL1        -0.5512
      16    H10     17.793696   16.347108   21.538447 H          1 MOL1         0.3776
@<TRIPOS>BOND
    1     1     2    1
    2     1     3    1
    3     1     4    1
    4     4     5    1
    5     4     6    1
    6     4     7    1
    7     7     8    1
    8     7     9    1
    9     7    10    1
   10    10    11    1
   11     1    12    1
   12    10    12    1
   13    12    13    1
   14    12    14    1
   15    10    15    1
   16    15    16    1
@<TRIPOS>SUBSTRUCTURE
       1 MOL1            1 RESIDUE      1      MOL     
@<SCITEGIC>MOL_PROPERTY
VConf Rank
SciTegic.value.IntegerValue
226

@<SCITEGIC>MOL_PROPERTY
Conf_Id
SciTegic.value.IntegerValue
59

@<SCITEGIC>MOL_PROPERTY
Delta U+W
SciTegic.value.DoubleValue
0.000

@<SCITEGIC>MOL_PROPERTY
U+W
SciTegic.value.DoubleValue
3.010

@<SCITEGIC>MOL_PROPERTY
Grad RMS
SciTegic.value.DoubleValue
0.000000

@<SCITEGIC>MOL_PROPERTY
U
SciTegic.value.DoubleValue
5.843

@<SCITEGIC>MOL_PROPERTY
W
SciTegic.value.DoubleValue
-2.833

@<SCITEGIC>MOL_PROPERTY
W(PB)
SciTegic.value.DoubleValue
-4.568

@<SCITEGIC>MOL_PROPERTY
W(SA)
SciTegic.value.DoubleValue
1.735

@<SCITEGIC>MOL_PROPERTY
Valence
SciTegic.value.DoubleValue
13.789

@<SCITEGIC>MOL_PROPERTY
Coulomb
SciTegic.value.DoubleValue
-8.574

@<SCITEGIC>MOL_PROPERTY
VdW
SciTegic.value.DoubleValue
0.628

@<SCITEGIC>MOL_PROPERTY
VdW6
SciTegic.value.DoubleValue
-3.284

@<SCITEGIC>MOL_PROPERTY
VdW12
SciTegic.value.DoubleValue
3.912

@<SCITEGIC>MOL_PROPERTY
Bond
SciTegic.value.DoubleValue
0.054

@<SCITEGIC>MOL_PROPERTY
Angle
SciTegic.value.DoubleValue
4.034

@<SCITEGIC>MOL_PROPERTY
Pdih
SciTegic.value.DoubleValue
9.702

@<SCITEGIC>MOL_PROPERTY
Idih
SciTegic.value.DoubleValue
0.000

@<SCITEGIC>MOL_PROPERTY
Tether
SciTegic.value.DoubleValue
0.000

@<TRIPOS>MOLECULE
guest-4_confgen4.mol2 : confsearch ligand conformer 227
          16          16           1
SMALL
USER_CHARGES
 
@<TRIPOS>ATOM
       1    C1      18.390798   18.116977   23.122478 C.3        1 MOL1        -0.1689
       2    H1      17.466752   17.530003   23.031050 H          1 MOL1         0.0830
       3    H2      18.597600   18.267972   24.191147 H          1 MOL1         0.0830
       4    C2      18.290536   19.477311   22.418798 C.3        1 MOL1        -0.1689
       5    H3      17.746407   19.362427   21.470957 H          1 MOL1         0.0830
       6    H4      17.766949   20.226960   23.027506 H          1 MOL1         0.0830
       7    C3      19.751143   19.870479   22.130486 C.3        1 MOL1        -0.1765
       8    H5      20.152243   20.443681   22.976442 H          1 MOL1         0.0830
       9    H6      19.831154   20.499019   21.233516 H          1 MOL1         0.0830
      10    C4      20.542627   18.553288   21.994992 C.3        1 MOL1         0.1214
      11    H7      21.424968   18.590560   22.650434 H          1 MOL1         0.0787
      12    C5      19.592418   17.426307   22.451884 C.3        1 MOL1        -0.1765
      13    H8      19.242413   16.848837   21.585393 H          1 MOL1         0.0830
      14    H9      20.091506   16.732149   23.140290 H          1 MOL1         0.0830
      15    O1      20.929421   18.350479   20.641051 O.3        1 MOL1        -0.5512
      16    H10     21.415682   17.499461   20.611934 H          1 MOL1         0.3776
@<TRIPOS>BOND
    1     1     2    1
    2     1     3    1
    3     1     4    1
    4     4     5    1
    5     4     6    1
    6     4     7    1
    7     7     8    1
    8     7     9    1
    9     7    10    1
   10    10    11    1
   11     1    12    1
   12    10    12    1
   13    12    13    1
   14    12    14    1
   15    10    15    1
   16    15    16    1
@<TRIPOS>SUBSTRUCTURE
       1 MOL1            1 RESIDUE      1      MOL     
@<SCITEGIC>MOL_PROPERTY
VConf Rank
SciTegic.value.IntegerValue
227

@<SCITEGIC>MOL_PROPERTY
Conf_Id
SciTegic.value.IntegerValue
33

@<SCITEGIC>MOL_PROPERTY
Delta U+W
SciTegic.value.DoubleValue
0.015

@<SCITEGIC>MOL_PROPERTY
U+W
SciTegic.value.DoubleValue
3.025

@<SCITEGIC>MOL_PROPERTY
Grad RMS
SciTegic.value.DoubleValue
0.000000

@<SCITEGIC>MOL_PROPERTY
U
SciTegic.value.DoubleValue
5.843

@<SCITEGIC>MOL_PROPERTY
W
SciTegic.value.DoubleValue
-2.819

@<SCITEGIC>MOL_PROPERTY
W(PB)
SciTegic.value.DoubleValue
-4.568

@<SCITEGIC>MOL_PROPERTY
W(SA)
SciTegic.value.DoubleValue
1.750

@<SCITEGIC>MOL_PROPERTY
Valence
SciTegic.value.DoubleValue
13.789

@<SCITEGIC>MOL_PROPERTY
Coulomb
SciTegic.value.DoubleValue
-8.574

@<SCITEGIC>MOL_PROPERTY
VdW
SciTegic.value.DoubleValue
0.628

@<SCITEGIC>MOL_PROPERTY
VdW6
SciTegic.value.DoubleValue
-3.284

@<SCITEGIC>MOL_PROPERTY
VdW12
SciTegic.value.DoubleValue
3.913

@<SCITEGIC>MOL_PROPERTY
Bond
SciTegic.value.DoubleValue
0.054

@<SCITEGIC>MOL_PROPERTY
Angle
SciTegic.value.DoubleValue
4.033

@<SCITEGIC>MOL_PROPERTY
Pdih
SciTegic.value.DoubleValue
9.702

@<SCITEGIC>MOL_PROPERTY
Idih
SciTegic.value.DoubleValue
0.000

@<SCITEGIC>MOL_PROPERTY
Tether
SciTegic.value.DoubleValue
0.000

@<TRIPOS>MOLECULE
guest-4_confgen4.mol2 : confsearch ligand conformer 228
          16          16           1
SMALL
USER_CHARGES
 
@<TRIPOS>ATOM
       1    C1      19.901548   18.203866   23.418274 C.3        1 MOL1        -0.1689
       2    H1      19.215504   18.275521   24.273514 H          1 MOL1         0.0830
       3    H2      20.848870   17.785470   23.785049 H          1 MOL1         0.0830
       4    C2      20.103213   19.599413   22.788353 C.3        1 MOL1        -0.1689
       5    H3      19.515613   20.346633   23.339367 H          1 MOL1         0.0830
       6    H4      21.156227   19.910603   22.824700 H          1 MOL1         0.0830
       7    C3      19.604684   19.497999   21.331088 C.3        1 MOL1        -0.1765
       8    H5      20.459318   19.333686   20.661594 H          1 MOL1         0.0830
       9    H6      19.093076   20.412170   21.001612 H          1 MOL1         0.0830
      10    C4      18.688026   18.268317   21.279972 C.3        1 MOL1         0.1214
      11    H7      18.670219   17.818343   20.276882 H          1 MOL1         0.0787
      12    C5      19.289873   17.311235   22.317629 C.3        1 MOL1        -0.1765
      13    H8      18.545772   16.609123   22.716823 H          1 MOL1         0.0830
      14    H9      20.083579   16.721342   21.840473 H          1 MOL1         0.0830
      15    O1      17.380986   18.641884   21.690947 O.3        1 MOL1        -0.5512
      16    H10     17.495247   19.028159   22.583639 H          1 MOL1         0.3776
@<TRIPOS>BOND
    1     1     2    1
    2     1     3    1
    3     1     4    1
    4     4     5    1
    5     4     6    1
    6     4     7    1
    7     7     8    1
    8     7     9    1
    9     7    10    1
   10    10    11    1
   11     1    12    1
   12    10    12    1
   13    12    13    1
   14    12    14    1
   15    10    15    1
   16    15    16    1
@<TRIPOS>SUBSTRUCTURE
       1 MOL1            1 RESIDUE      1      MOL     
@<SCITEGIC>MOL_PROPERTY
VConf Rank
SciTegic.value.IntegerValue
228

@<SCITEGIC>MOL_PROPERTY
Conf_Id
SciTegic.value.IntegerValue
20

@<SCITEGIC>MOL_PROPERTY
Delta U+W
SciTegic.value.DoubleValue
-0.483

@<SCITEGIC>MOL_PROPERTY
U+W
SciTegic.value.DoubleValue
2.527

@<SCITEGIC>MOL_PROPERTY
Grad RMS
SciTegic.value.DoubleValue
0.000000

@<SCITEGIC>MOL_PROPERTY
U
SciTegic.value.DoubleValue
4.508

@<SCITEGIC>MOL_PROPERTY
W
SciTegic.value.DoubleValue
-1.981

@<SCITEGIC>MOL_PROPERTY
W(PB)
SciTegic.value.DoubleValue
-3.712

@<SCITEGIC>MOL_PROPERTY
W(SA)
SciTegic.value.DoubleValue
1.732

@<SCITEGIC>MOL_PROPERTY
Valence
SciTegic.value.DoubleValue
14.705

@<SCITEGIC>MOL_PROPERTY
Coulomb
SciTegic.value.DoubleValue
-10.687

@<SCITEGIC>MOL_PROPERTY
VdW
SciTegic.value.DoubleValue
0.490

@<SCITEGIC>MOL_PROPERTY
VdW6
SciTegic.value.DoubleValue
-3.745

@<SCITEGIC>MOL_PROPERTY
VdW12
SciTegic.value.DoubleValue
4.235

@<SCITEGIC>MOL_PROPERTY
Bond
SciTegic.value.DoubleValue
0.068

@<SCITEGIC>MOL_PROPERTY
Angle
SciTegic.value.DoubleValue
3.901

@<SCITEGIC>MOL_PROPERTY
Pdih
SciTegic.value.DoubleValue
10.737

@<SCITEGIC>MOL_PROPERTY
Idih
SciTegic.value.DoubleValue
0.000

@<SCITEGIC>MOL_PROPERTY
Tether
SciTegic.value.DoubleValue
0.000

@<TRIPOS>MOLECULE
guest-4_confgen4.mol2 : confsearch ligand conformer 229
          16          16           1
SMALL
USER_CHARGES
 
@<TRIPOS>ATOM
       1    C1      19.789345   17.572045   21.332664 C.3        1 MOL1        -0.1689
       2    H1      20.793770   17.267139   21.657993 H          1 MOL1         0.0830
       3    H2      19.517030   16.975176   20.451621 H          1 MOL1         0.0830
       4    C2      19.777214   19.079795   21.045833 C.3        1 MOL1        -0.1689
       5    H3      20.695542   19.417682   20.546569 H          1 MOL1         0.0830
       6    H4      18.923799   19.326137   20.398821 H          1 MOL1         0.0830
       7    C3      19.588111   19.731191   22.428034 C.3        1 MOL1        -0.1765
       8    H5      19.065460   20.693264   22.349946 H          1 MOL1         0.0830
       9    H6      20.572112   19.917433   22.879522 H          1 MOL1         0.0830
      10    C4      18.791607   18.720418   23.279854 C.3        1 MOL1         0.1214
      11    H7      17.755208   19.066895   23.403752 H          1 MOL1         0.0787
      12    C5      18.794532   17.392756   22.494271 C.3        1 MOL1        -0.1765
      13    H8      19.061235   16.535111   23.126201 H          1 MOL1         0.0830
      14    H9      17.788726   17.211832   22.093394 H          1 MOL1         0.0830
      15    O1      19.417940   18.543371   24.544863 O.3        1 MOL1        -0.5512
      16    H10     19.397935   19.415289   24.993073 H          1 MOL1         0.3776
@<TRIPOS>BOND
    1     1     2    1
    2     1     3    1
    3     1     4    1
    4     4     5    1
    5     4     6    1
    6     4     7    1
    7     7     8    1
    8     7     9    1
    9     7    10    1
   10    10    11    1
   11     1    12    1
   12    10    12    1
   13    12    13    1
   14    12    14    1
   15    10    15    1
   16    15    16    1
@<TRIPOS>SUBSTRUCTURE
       1 MOL1            1 RESIDUE      1      MOL     
@<SCITEGIC>MOL_PROPERTY
VConf Rank
SciTegic.value.IntegerValue
229

@<SCITEGIC>MOL_PROPERTY
Conf_Id
SciTegic.value.IntegerValue
59

@<SCITEGIC>MOL_PROPERTY
Delta U+W
SciTegic.value.DoubleValue
0.000

@<SCITEGIC>MOL_PROPERTY
U+W
SciTegic.value.DoubleValue
3.010

@<SCITEGIC>MOL_PROPERTY
Grad RMS
SciTegic.value.DoubleValue
0.000000

@<SCITEGIC>MOL_PROPERTY
U
SciTegic.value.DoubleValue
5.843

@<SCITEGIC>MOL_PROPERTY
W
SciTegic.value.DoubleValue
-2.833

@<SCITEGIC>MOL_PROPERTY
W(PB)
SciTegic.value.DoubleValue
-4.568

@<SCITEGIC>MOL_PROPERTY
W(SA)
SciTegic.value.DoubleValue
1.735

@<SCITEGIC>MOL_PROPERTY
Valence
SciTegic.value.DoubleValue
13.789

@<SCITEGIC>MOL_PROPERTY
Coulomb
SciTegic.value.DoubleValue
-8.574

@<SCITEGIC>MOL_PROPERTY
VdW
SciTegic.value.DoubleValue
0.628

@<SCITEGIC>MOL_PROPERTY
VdW6
SciTegic.value.DoubleValue
-3.284

@<SCITEGIC>MOL_PROPERTY
VdW12
SciTegic.value.DoubleValue
3.912

@<SCITEGIC>MOL_PROPERTY
Bond
SciTegic.value.DoubleValue
0.054

@<SCITEGIC>MOL_PROPERTY
Angle
SciTegic.value.DoubleValue
4.034

@<SCITEGIC>MOL_PROPERTY
Pdih
SciTegic.value.DoubleValue
9.702

@<SCITEGIC>MOL_PROPERTY
Idih
SciTegic.value.DoubleValue
0.000

@<SCITEGIC>MOL_PROPERTY
Tether
SciTegic.value.DoubleValue
0.000

@<TRIPOS>MOLECULE
guest-4_confgen4.mol2 : confsearch ligand conformer 230
          16          16           1
SMALL
USER_CHARGES
 
@<TRIPOS>ATOM
       1    C1      19.385400   19.120616   23.633171 C.3        1 MOL1        -0.1689
       2    H1      18.840454   18.933811   24.568530 H          1 MOL1         0.0830
       3    H2      20.185154   19.845257   23.840319 H          1 MOL1         0.0830
       4    C2      18.473054   19.661728   22.523870 C.3        1 MOL1        -0.1689
       5    H3      17.504389   19.143871   22.558386 H          1 MOL1         0.0830
       6    H4      18.290135   20.740582   22.620086 H          1 MOL1         0.0830
       7    C3      19.202808   19.303759   21.216049 C.3        1 MOL1        -0.1765
       8    H5      19.875301   20.123958   20.933010 H          1 MOL1         0.0830
       9    H6      18.497436   19.149792   20.388545 H          1 MOL1         0.0830
      10    C4      20.042641   18.043960   21.511660 C.3        1 MOL1         0.1214
      11    H7      21.080679   18.215992   21.191659 H          1 MOL1         0.0787
      12    C5      19.988770   17.834399   23.039704 C.3        1 MOL1        -0.1765
      13    H8      19.340068   16.982302   23.284442 H          1 MOL1         0.0830
      14    H9      20.984398   17.630092   23.454228 H          1 MOL1         0.0830
      15    O1      19.489457   16.917344   20.841867 O.3        1 MOL1        -0.5512
      16    H10     20.052470   16.148449   21.072834 H          1 MOL1         0.3776
@<TRIPOS>BOND
    1     1     2    1
    2     1     3    1
    3     1     4    1
    4     4     5    1
    5     4     6    1
    6     4     7    1
    7     7     8    1
    8     7     9    1
    9     7    10    1
   10    10    11    1
   11     1    12    1
   12    10    12    1
   13    12    13    1
   14    12    14    1
   15    10    15    1
   16    15    16    1
@<TRIPOS>SUBSTRUCTURE
       1 MOL1            1 RESIDUE      1      MOL     
@<SCITEGIC>MOL_PROPERTY
VConf Rank
SciTegic.value.IntegerValue
230

@<SCITEGIC>MOL_PROPERTY
Conf_Id
SciTegic.value.IntegerValue
33

@<SCITEGIC>MOL_PROPERTY
Delta U+W
SciTegic.value.DoubleValue
0.015

@<SCITEGIC>MOL_PROPERTY
U+W
SciTegic.value.DoubleValue
3.025

@<SCITEGIC>MOL_PROPERTY
Grad RMS
SciTegic.value.DoubleValue
0.000000

@<SCITEGIC>MOL_PROPERTY
U
SciTegic.value.DoubleValue
5.843

@<SCITEGIC>MOL_PROPERTY
W
SciTegic.value.DoubleValue
-2.819

@<SCITEGIC>MOL_PROPERTY
W(PB)
SciTegic.value.DoubleValue
-4.568

@<SCITEGIC>MOL_PROPERTY
W(SA)
SciTegic.value.DoubleValue
1.750

@<SCITEGIC>MOL_PROPERTY
Valence
SciTegic.value.DoubleValue
13.789

@<SCITEGIC>MOL_PROPERTY
Coulomb
SciTegic.value.DoubleValue
-8.574

@<SCITEGIC>MOL_PROPERTY
VdW
SciTegic.value.DoubleValue
0.628

@<SCITEGIC>MOL_PROPERTY
VdW6
SciTegic.value.DoubleValue
-3.284

@<SCITEGIC>MOL_PROPERTY
VdW12
SciTegic.value.DoubleValue
3.913

@<SCITEGIC>MOL_PROPERTY
Bond
SciTegic.value.DoubleValue
0.054

@<SCITEGIC>MOL_PROPERTY
Angle
SciTegic.value.DoubleValue
4.033

@<SCITEGIC>MOL_PROPERTY
Pdih
SciTegic.value.DoubleValue
9.702

@<SCITEGIC>MOL_PROPERTY
Idih
SciTegic.value.DoubleValue
0.000

@<SCITEGIC>MOL_PROPERTY
Tether
SciTegic.value.DoubleValue
0.000

@<TRIPOS>MOLECULE
guest-4_confgen4.mol2 : confsearch ligand conformer 231
          16          16           1
SMALL
USER_CHARGES
 
@<TRIPOS>ATOM
       1    C1      18.841736   19.177718   21.174106 C.3        1 MOL1        -0.1689
       2    H1      17.782957   19.450199   21.283502 H          1 MOL1         0.0830
       3    H2      19.161896   19.481700   20.168080 H          1 MOL1         0.0830
       4    C2      19.018407   17.658997   21.391584 C.3        1 MOL1        -0.1689
       5    H3      18.045003   17.196301   21.605182 H          1 MOL1         0.0830
       6    H4      19.431952   17.168678   20.499639 H          1 MOL1         0.0830
       7    C3      19.962735   17.497096   22.601737 C.3        1 MOL1        -0.1765
       8    H5      20.987550   17.325325   22.246957 H          1 MOL1         0.0830
       9    H6      19.682379   16.646794   23.237656 H          1 MOL1         0.0830
      10    C4      19.914779   18.830536   23.359780 C.3        1 MOL1         0.1214
      11    H7      20.848832   19.017617   23.908897 H          1 MOL1         0.0787
      12    C5      19.686924   19.876512   22.260247 C.3        1 MOL1        -0.1765
      13    H8      19.203213   20.784726   22.643878 H          1 MOL1         0.0830
      14    H9      20.657963   20.167830   21.838536 H          1 MOL1         0.0830
      15    O1      18.800967   18.827879   24.240815 O.3        1 MOL1        -0.5512
      16    H10     18.024461   18.655855   23.669318 H          1 MOL1         0.3776
@<TRIPOS>BOND
    1     1     2    1
    2     1     3    1
    3     1     4    1
    4     4     5    1
    5     4     6    1
    6     4     7    1
    7     7     8    1
    8     7     9    1
    9     7    10    1
   10    10    11    1
   11     1    12    1
   12    10    12    1
   13    12    13    1
   14    12    14    1
   15    10    15    1
   16    15    16    1
@<TRIPOS>SUBSTRUCTURE
       1 MOL1            1 RESIDUE      1      MOL     
@<SCITEGIC>MOL_PROPERTY
VConf Rank
SciTegic.value.IntegerValue
231

@<SCITEGIC>MOL_PROPERTY
Conf_Id
SciTegic.value.IntegerValue
20

@<SCITEGIC>MOL_PROPERTY
Delta U+W
SciTegic.value.DoubleValue
-0.483

@<SCITEGIC>MOL_PROPERTY
U+W
SciTegic.value.DoubleValue
2.527

@<SCITEGIC>MOL_PROPERTY
Grad RMS
SciTegic.value.DoubleValue
0.000000

@<SCITEGIC>MOL_PROPERTY
U
SciTegic.value.DoubleValue
4.508

@<SCITEGIC>MOL_PROPERTY
W
SciTegic.value.DoubleValue
-1.981

@<SCITEGIC>MOL_PROPERTY
W(PB)
SciTegic.value.DoubleValue
-3.712

@<SCITEGIC>MOL_PROPERTY
W(SA)
SciTegic.value.DoubleValue
1.732

@<SCITEGIC>MOL_PROPERTY
Valence
SciTegic.value.DoubleValue
14.705

@<SCITEGIC>MOL_PROPERTY
Coulomb
SciTegic.value.DoubleValue
-10.687

@<SCITEGIC>MOL_PROPERTY
VdW
SciTegic.value.DoubleValue
0.490

@<SCITEGIC>MOL_PROPERTY
VdW6
SciTegic.value.DoubleValue
-3.745

@<SCITEGIC>MOL_PROPERTY
VdW12
SciTegic.value.DoubleValue
4.235

@<SCITEGIC>MOL_PROPERTY
Bond
SciTegic.value.DoubleValue
0.068

@<SCITEGIC>MOL_PROPERTY
Angle
SciTegic.value.DoubleValue
3.901

@<SCITEGIC>MOL_PROPERTY
Pdih
SciTegic.value.DoubleValue
10.737

@<SCITEGIC>MOL_PROPERTY
Idih
SciTegic.value.DoubleValue
0.000

@<SCITEGIC>MOL_PROPERTY
Tether
SciTegic.value.DoubleValue
0.000

@<TRIPOS>MOLECULE
guest-4_confgen4.mol2 : confsearch ligand conformer 232
          16          16           1
SMALL
USER_CHARGES
 
@<TRIPOS>ATOM
       1    C1      20.366200   17.937373   23.160967 C.3        1 MOL1        -0.1689
       2    H1      21.132252   18.712643   23.301670 H          1 MOL1         0.0830
       3    H2      20.652319   17.059009   23.755321 H          1 MOL1         0.0830
       4    C2      20.229332   17.614749   21.666675 C.3        1 MOL1        -0.1689
       5    H3      21.199882   17.596443   21.152422 H          1 MOL1         0.0830
       6    H4      19.756231   16.630647   21.542797 H          1 MOL1         0.0830
       7    C3      19.297961   18.712837   21.121417 C.3        1 MOL1        -0.1765
       8    H5      18.716387   18.355205   20.261930 H          1 MOL1         0.0830
       9    H6      19.901177   19.568335   20.788192 H          1 MOL1         0.0830
      10    C4      18.382614   19.127789   22.292585 C.3        1 MOL1         0.1214
      11    H7      17.368910   18.730674   22.136944 H          1 MOL1         0.0787
      12    C5      18.988252   18.495156   23.562550 C.3        1 MOL1        -0.1765
      13    H8      19.068321   19.214096   24.388827 H          1 MOL1         0.0830
      14    H9      18.341310   17.673606   23.896621 H          1 MOL1         0.0830
      15    O1      18.354848   20.544811   22.415731 O.3        1 MOL1        -0.5512
      16    H10     17.973570   20.892162   21.581761 H          1 MOL1         0.3776
@<TRIPOS>BOND
    1     1     2    1
    2     1     3    1
    3     1     4    1
    4     4     5    1
    5     4     6    1
    6     4     7    1
    7     7     8    1
    8     7     9    1
    9     7    10    1
   10    10    11    1
   11     1    12    1
   12    10    12    1
   13    12    13    1
   14    12    14    1
   15    10    15    1
   16    15    16    1
@<TRIPOS>SUBSTRUCTURE
       1 MOL1            1 RESIDUE      1      MOL     
@<SCITEGIC>MOL_PROPERTY
VConf Rank
SciTegic.value.IntegerValue
232

@<SCITEGIC>MOL_PROPERTY
Conf_Id
SciTegic.value.IntegerValue
59

@<SCITEGIC>MOL_PROPERTY
Delta U+W
SciTegic.value.DoubleValue
0.000

@<SCITEGIC>MOL_PROPERTY
U+W
SciTegic.value.DoubleValue
3.010

@<SCITEGIC>MOL_PROPERTY
Grad RMS
SciTegic.value.DoubleValue
0.000000

@<SCITEGIC>MOL_PROPERTY
U
SciTegic.value.DoubleValue
5.843

@<SCITEGIC>MOL_PROPERTY
W
SciTegic.value.DoubleValue
-2.833

@<SCITEGIC>MOL_PROPERTY
W(PB)
SciTegic.value.DoubleValue
-4.568

@<SCITEGIC>MOL_PROPERTY
W(SA)
SciTegic.value.DoubleValue
1.735

@<SCITEGIC>MOL_PROPERTY
Valence
SciTegic.value.DoubleValue
13.789

@<SCITEGIC>MOL_PROPERTY
Coulomb
SciTegic.value.DoubleValue
-8.574

@<SCITEGIC>MOL_PROPERTY
VdW
SciTegic.value.DoubleValue
0.628

@<SCITEGIC>MOL_PROPERTY
VdW6
SciTegic.value.DoubleValue
-3.284

@<SCITEGIC>MOL_PROPERTY
VdW12
SciTegic.value.DoubleValue
3.912

@<SCITEGIC>MOL_PROPERTY
Bond
SciTegic.value.DoubleValue
0.054

@<SCITEGIC>MOL_PROPERTY
Angle
SciTegic.value.DoubleValue
4.034

@<SCITEGIC>MOL_PROPERTY
Pdih
SciTegic.value.DoubleValue
9.702

@<SCITEGIC>MOL_PROPERTY
Idih
SciTegic.value.DoubleValue
0.000

@<SCITEGIC>MOL_PROPERTY
Tether
SciTegic.value.DoubleValue
0.000

@<TRIPOS>MOLECULE
guest-4_confgen4.mol2 : confsearch ligand conformer 233
          16          16           1
SMALL
USER_CHARGES
 
@<TRIPOS>ATOM
       1    C1      19.216847   18.572720   23.707910 C.3        1 MOL1        -0.1689
       2    H1      19.762012   18.357518   24.637019 H          1 MOL1         0.0830
       3    H2      18.230684   18.977939   23.974182 H          1 MOL1         0.0830
       4    C2      19.042735   17.325350   22.830709 C.3        1 MOL1        -0.1689
       5    H3      19.962104   16.723984   22.858985 H          1 MOL1         0.0830
       6    H4      18.207621   16.693054   23.161507 H          1 MOL1         0.0830
       7    C3      18.832876   17.879976   21.409644 C.3        1 MOL1        -0.1765
       8    H5      17.761580   18.039556   21.230916 H          1 MOL1         0.0830
       9    H6      19.198461   17.181645   20.644987 H          1 MOL1         0.0830
      10    C4      19.559721   19.239629   21.356394 C.3        1 MOL1         0.1214
      11    H7      18.869912   20.005578   20.972979 H          1 MOL1         0.0787
      12    C5      19.965199   19.572825   22.807705 C.3        1 MOL1        -0.1765
      13    H8      21.047756   19.441339   22.940234 H          1 MOL1         0.0830
      14    H9      19.717238   20.609976   23.067857 H          1 MOL1         0.0830
      15    O1      20.715981   19.145824   20.532890 O.3        1 MOL1        -0.5512
      16    H10     21.141887   20.029000   20.544440 H          1 MOL1         0.3776
@<TRIPOS>BOND
    1     1     2    1
    2     1     3    1
    3     1     4    1
    4     4     5    1
    5     4     6    1
    6     4     7    1
    7     7     8    1
    8     7     9    1
    9     7    10    1
   10    10    11    1
   11     1    12    1
   12    10    12    1
   13    12    13    1
   14    12    14    1
   15    10    15    1
   16    15    16    1
@<TRIPOS>SUBSTRUCTURE
       1 MOL1            1 RESIDUE      1      MOL     
@<SCITEGIC>MOL_PROPERTY
VConf Rank
SciTegic.value.IntegerValue
233

@<SCITEGIC>MOL_PROPERTY
Conf_Id
SciTegic.value.IntegerValue
33

@<SCITEGIC>MOL_PROPERTY
Delta U+W
SciTegic.value.DoubleValue
0.015

@<SCITEGIC>MOL_PROPERTY
U+W
SciTegic.value.DoubleValue
3.025

@<SCITEGIC>MOL_PROPERTY
Grad RMS
SciTegic.value.DoubleValue
0.000000

@<SCITEGIC>MOL_PROPERTY
U
SciTegic.value.DoubleValue
5.843

@<SCITEGIC>MOL_PROPERTY
W
SciTegic.value.DoubleValue
-2.819

@<SCITEGIC>MOL_PROPERTY
W(PB)
SciTegic.value.DoubleValue
-4.568

@<SCITEGIC>MOL_PROPERTY
W(SA)
SciTegic.value.DoubleValue
1.750

@<SCITEGIC>MOL_PROPERTY
Valence
SciTegic.value.DoubleValue
13.789

@<SCITEGIC>MOL_PROPERTY
Coulomb
SciTegic.value.DoubleValue
-8.574

@<SCITEGIC>MOL_PROPERTY
VdW
SciTegic.value.DoubleValue
0.628

@<SCITEGIC>MOL_PROPERTY
VdW6
SciTegic.value.DoubleValue
-3.284

@<SCITEGIC>MOL_PROPERTY
VdW12
SciTegic.value.DoubleValue
3.913

@<SCITEGIC>MOL_PROPERTY
Bond
SciTegic.value.DoubleValue
0.054

@<SCITEGIC>MOL_PROPERTY
Angle
SciTegic.value.DoubleValue
4.033

@<SCITEGIC>MOL_PROPERTY
Pdih
SciTegic.value.DoubleValue
9.702

@<SCITEGIC>MOL_PROPERTY
Idih
SciTegic.value.DoubleValue
0.000

@<SCITEGIC>MOL_PROPERTY
Tether
SciTegic.value.DoubleValue
0.000

@<TRIPOS>MOLECULE
guest-4_confgen4.mol2 : confsearch ligand conformer 234
          16          16           1
SMALL
USER_CHARGES
 
@<TRIPOS>ATOM
       1    C1      18.452828   17.933906   21.571713 C.3        1 MOL1        -0.1689
       2    H1      18.828917   17.453582   20.657890 H          1 MOL1         0.0830
       3    H2      17.385318   17.690169   21.661226 H          1 MOL1         0.0830
       4    C2      18.682666   19.459186   21.496095 C.3        1 MOL1        -0.1689
       5    H3      19.169019   19.717172   20.545238 H          1 MOL1         0.0830
       6    H4      17.735425   20.013383   21.547079 H          1 MOL1         0.0830
       7    C3      19.602431   19.822475   22.681206 C.3        1 MOL1        -0.1765
       8    H5      18.994721   20.194612   23.516564 H          1 MOL1         0.0830
       9    H6      20.327392   20.605165   22.420757 H          1 MOL1         0.0830
      10    C4      20.285498   18.515402   23.105439 C.3        1 MOL1         0.1214
      11    H7      20.556137   18.527659   24.171078 H          1 MOL1         0.0787
      12    C5      19.241343   17.432974   22.800400 C.3        1 MOL1        -0.1765
      13    H8      19.699399   16.449793   22.628520 H          1 MOL1         0.0830
      14    H9      18.562932   17.340034   23.658736 H          1 MOL1         0.0830
      15    O1      21.431340   18.301774   22.294135 O.3        1 MOL1        -0.5512
      16    H10     21.096385   18.306478   21.373838 H          1 MOL1         0.3776
@<TRIPOS>BOND
    1     1     2    1
    2     1     3    1
    3     1     4    1
    4     4     5    1
    5     4     6    1
    6     4     7    1
    7     7     8    1
    8     7     9    1
    9     7    10    1
   10    10    11    1
   11     1    12    1
   12    10    12    1
   13    12    13    1
   14    12    14    1
   15    10    15    1
   16    15    16    1
@<TRIPOS>SUBSTRUCTURE
       1 MOL1            1 RESIDUE      1      MOL     
@<SCITEGIC>MOL_PROPERTY
VConf Rank
SciTegic.value.IntegerValue
234

@<SCITEGIC>MOL_PROPERTY
Conf_Id
SciTegic.value.IntegerValue
20

@<SCITEGIC>MOL_PROPERTY
Delta U+W
SciTegic.value.DoubleValue
-0.483

@<SCITEGIC>MOL_PROPERTY
U+W
SciTegic.value.DoubleValue
2.527

@<SCITEGIC>MOL_PROPERTY
Grad RMS
SciTegic.value.DoubleValue
0.000000

@<SCITEGIC>MOL_PROPERTY
U
SciTegic.value.DoubleValue
4.508

@<SCITEGIC>MOL_PROPERTY
W
SciTegic.value.DoubleValue
-1.981

@<SCITEGIC>MOL_PROPERTY
W(PB)
SciTegic.value.DoubleValue
-3.712

@<SCITEGIC>MOL_PROPERTY
W(SA)
SciTegic.value.DoubleValue
1.732

@<SCITEGIC>MOL_PROPERTY
Valence
SciTegic.value.DoubleValue
14.705

@<SCITEGIC>MOL_PROPERTY
Coulomb
SciTegic.value.DoubleValue
-10.687

@<SCITEGIC>MOL_PROPERTY
VdW
SciTegic.value.DoubleValue
0.490

@<SCITEGIC>MOL_PROPERTY
VdW6
SciTegic.value.DoubleValue
-3.745

@<SCITEGIC>MOL_PROPERTY
VdW12
SciTegic.value.DoubleValue
4.235

@<SCITEGIC>MOL_PROPERTY
Bond
SciTegic.value.DoubleValue
0.068

@<SCITEGIC>MOL_PROPERTY
Angle
SciTegic.value.DoubleValue
3.901

@<SCITEGIC>MOL_PROPERTY
Pdih
SciTegic.value.DoubleValue
10.737

@<SCITEGIC>MOL_PROPERTY
Idih
SciTegic.value.DoubleValue
0.000

@<SCITEGIC>MOL_PROPERTY
Tether
SciTegic.value.DoubleValue
0.000

@<TRIPOS>MOLECULE
guest-4_confgen4.mol2 : confsearch ligand conformer 235
          16          16           1
SMALL
USER_CHARGES
 
@<TRIPOS>ATOM
       1    C1      19.395158   17.106916   22.179943 C.3        1 MOL1        -0.1689
       2    H1      18.976582   16.902932   21.184522 H          1 MOL1         0.0830
       3    H2      19.711834   16.152593   22.622242 H          1 MOL1         0.0830
       4    C2      18.350229   17.832783   23.038412 C.3        1 MOL1        -0.1689
       5    H3      17.336535   17.438027   22.885600 H          1 MOL1         0.0830
       6    H4      18.604889   17.723357   24.101802 H          1 MOL1         0.0830
       7    C3      18.472458   19.310255   22.622850 C.3        1 MOL1        -0.1765
       8    H5      18.200776   19.982520   23.446922 H          1 MOL1         0.0830
       9    H6      17.789832   19.509781   21.785595 H          1 MOL1         0.0830
      10    C4      19.936302   19.517923   22.180451 C.3        1 MOL1         0.1214
      11    H7      20.483096   20.089016   22.944903 H          1 MOL1         0.0787
      12    C5      20.556113   18.110797   22.055294 C.3        1 MOL1        -0.1765
      13    H8      21.104833   17.979329   21.113145 H          1 MOL1         0.0830
      14    H9      21.265650   17.957664   22.878815 H          1 MOL1         0.0830
      15    O1      19.979742   20.186570   20.925495 O.3        1 MOL1        -0.5512
      16    H10     19.565538   21.065070   21.060420 H          1 MOL1         0.3776
@<TRIPOS>BOND
    1     1     2    1
    2     1     3    1
    3     1     4    1
    4     4     5    1
    5     4     6    1
    6     4     7    1
    7     7     8    1
    8     7     9    1
    9     7    10    1
   10    10    11    1
   11     1    12    1
   12    10    12    1
   13    12    13    1
   14    12    14    1
   15    10    15    1
   16    15    16    1
@<TRIPOS>SUBSTRUCTURE
       1 MOL1            1 RESIDUE      1      MOL     
@<SCITEGIC>MOL_PROPERTY
VConf Rank
SciTegic.value.IntegerValue
235

@<SCITEGIC>MOL_PROPERTY
Conf_Id
SciTegic.value.IntegerValue
59

@<SCITEGIC>MOL_PROPERTY
Delta U+W
SciTegic.value.DoubleValue
0.000

@<SCITEGIC>MOL_PROPERTY
U+W
SciTegic.value.DoubleValue
3.010

@<SCITEGIC>MOL_PROPERTY
Grad RMS
SciTegic.value.DoubleValue
0.000000

@<SCITEGIC>MOL_PROPERTY
U
SciTegic.value.DoubleValue
5.843

@<SCITEGIC>MOL_PROPERTY
W
SciTegic.value.DoubleValue
-2.833

@<SCITEGIC>MOL_PROPERTY
W(PB)
SciTegic.value.DoubleValue
-4.568

@<SCITEGIC>MOL_PROPERTY
W(SA)
SciTegic.value.DoubleValue
1.735

@<SCITEGIC>MOL_PROPERTY
Valence
SciTegic.value.DoubleValue
13.789

@<SCITEGIC>MOL_PROPERTY
Coulomb
SciTegic.value.DoubleValue
-8.574

@<SCITEGIC>MOL_PROPERTY
VdW
SciTegic.value.DoubleValue
0.628

@<SCITEGIC>MOL_PROPERTY
VdW6
SciTegic.value.DoubleValue
-3.284

@<SCITEGIC>MOL_PROPERTY
VdW12
SciTegic.value.DoubleValue
3.912

@<SCITEGIC>MOL_PROPERTY
Bond
SciTegic.value.DoubleValue
0.054

@<SCITEGIC>MOL_PROPERTY
Angle
SciTegic.value.DoubleValue
4.034

@<SCITEGIC>MOL_PROPERTY
Pdih
SciTegic.value.DoubleValue
9.702

@<SCITEGIC>MOL_PROPERTY
Idih
SciTegic.value.DoubleValue
0.000

@<SCITEGIC>MOL_PROPERTY
Tether
SciTegic.value.DoubleValue
0.000

@<TRIPOS>MOLECULE
guest-4_confgen4.mol2 : confsearch ligand conformer 236
          16          16           1
SMALL
USER_CHARGES
 
@<TRIPOS>ATOM
       1    C1      20.038017   19.476516   23.277394 C.3        1 MOL1        -0.1689
       2    H1      19.763912   20.344269   23.892724 H          1 MOL1         0.0830
       3    H2      21.022026   19.117059   23.609266 H          1 MOL1         0.0830
       4    C2      20.089588   19.814552   21.781133 C.3        1 MOL1        -0.1689
       5    H3      19.260432   20.489643   21.527296 H          1 MOL1         0.0830
       6    H4      21.030862   20.302253   21.493395 H          1 MOL1         0.0830
       7    C3      19.888320   18.461880   21.073430 C.3        1 MOL1        -0.1765
       8    H5      20.863062   17.986494   20.903220 H          1 MOL1         0.0830
       9    H6      19.401899   18.585064   20.096577 H          1 MOL1         0.0830
      10    C4      19.060451   17.582342   22.033036 C.3        1 MOL1         0.1214
      11    H7      19.565209   16.614214   22.165201 H          1 MOL1         0.0787
      12    C5      19.006511   18.337854   23.377665 C.3        1 MOL1        -0.1765
      13    H8      18.006947   18.765899   23.533970 H          1 MOL1         0.0830
      14    H9      19.224356   17.672655   24.223183 H          1 MOL1         0.0830
      15    O1      17.746302   17.399058   21.519890 O.3        1 MOL1        -0.5512
      16    H10     17.264724   16.846161   22.170979 H          1 MOL1         0.3776
@<TRIPOS>BOND
    1     1     2    1
    2     1     3    1
    3     1     4    1
    4     4     5    1
    5     4     6    1
    6     4     7    1
    7     7     8    1
    8     7     9    1
    9     7    10    1
   10    10    11    1
   11     1    12    1
   12    10    12    1
   13    12    13    1
   14    12    14    1
   15    10    15    1
   16    15    16    1
@<TRIPOS>SUBSTRUCTURE
       1 MOL1            1 RESIDUE      1      MOL     
@<SCITEGIC>MOL_PROPERTY
VConf Rank
SciTegic.value.IntegerValue
236

@<SCITEGIC>MOL_PROPERTY
Conf_Id
SciTegic.value.IntegerValue
33

@<SCITEGIC>MOL_PROPERTY
Delta U+W
SciTegic.value.DoubleValue
0.015

@<SCITEGIC>MOL_PROPERTY
U+W
SciTegic.value.DoubleValue
3.025

@<SCITEGIC>MOL_PROPERTY
Grad RMS
SciTegic.value.DoubleValue
0.000000

@<SCITEGIC>MOL_PROPERTY
U
SciTegic.value.DoubleValue
5.843

@<SCITEGIC>MOL_PROPERTY
W
SciTegic.value.DoubleValue
-2.819

@<SCITEGIC>MOL_PROPERTY
W(PB)
SciTegic.value.DoubleValue
-4.568

@<SCITEGIC>MOL_PROPERTY
W(SA)
SciTegic.value.DoubleValue
1.750

@<SCITEGIC>MOL_PROPERTY
Valence
SciTegic.value.DoubleValue
13.789

@<SCITEGIC>MOL_PROPERTY
Coulomb
SciTegic.value.DoubleValue
-8.574

@<SCITEGIC>MOL_PROPERTY
VdW
SciTegic.value.DoubleValue
0.628

@<SCITEGIC>MOL_PROPERTY
VdW6
SciTegic.value.DoubleValue
-3.284

@<SCITEGIC>MOL_PROPERTY
VdW12
SciTegic.value.DoubleValue
3.913

@<SCITEGIC>MOL_PROPERTY
Bond
SciTegic.value.DoubleValue
0.054

@<SCITEGIC>MOL_PROPERTY
Angle
SciTegic.value.DoubleValue
4.033

@<SCITEGIC>MOL_PROPERTY
Pdih
SciTegic.value.DoubleValue
9.702

@<SCITEGIC>MOL_PROPERTY
Idih
SciTegic.value.DoubleValue
0.000

@<SCITEGIC>MOL_PROPERTY
Tether
SciTegic.value.DoubleValue
0.000

@<TRIPOS>MOLECULE
guest-4_confgen4.mol2 : confsearch ligand conformer 237
          16          16           1
SMALL
USER_CHARGES
 
@<TRIPOS>ATOM
       1    C1      20.557398   18.874363   22.827998 C.3        1 MOL1        -0.1689
       2    H1      20.612540   19.855702   23.319078 H          1 MOL1         0.0830
       3    H2      21.524867   18.374344   22.972854 H          1 MOL1         0.0830
       4    C2      20.230018   19.054554   21.329540 C.3        1 MOL1        -0.1689
       5    H3      20.127764   20.123128   21.095190 H          1 MOL1         0.0830
       6    H4      21.025792   18.647863   20.690521 H          1 MOL1         0.0830
       7    C3      18.892769   18.324259   21.082819 C.3        1 MOL1        -0.1765
       8    H5      19.090757   17.323867   20.675834 H          1 MOL1         0.0830
       9    H6      18.254052   18.856468   20.365323 H          1 MOL1         0.0830
      10    C4      18.227148   18.179984   22.458001 C.3        1 MOL1         0.1214
      11    H7      17.564970   17.303068   22.497010 H          1 MOL1         0.0787
      12    C5      19.406300   18.040902   23.430221 C.3        1 MOL1        -0.1765
      13    H8      19.146952   18.363240   24.447493 H          1 MOL1         0.0830
      14    H9      19.704710   16.985399   23.480076 H          1 MOL1         0.0830
      15    O1      17.511248   19.369182   22.758169 O.3        1 MOL1        -0.5512
      16    H10     18.174467   20.087441   22.699787 H          1 MOL1         0.3776
@<TRIPOS>BOND
    1     1     2    1
    2     1     3    1
    3     1     4    1
    4     4     5    1
    5     4     6    1
    6     4     7    1
    7     7     8    1
    8     7     9    1
    9     7    10    1
   10    10    11    1
   11     1    12    1
   12    10    12    1
   13    12    13    1
   14    12    14    1
   15    10    15    1
   16    15    16    1
@<TRIPOS>SUBSTRUCTURE
       1 MOL1            1 RESIDUE      1      MOL     
@<SCITEGIC>MOL_PROPERTY
VConf Rank
SciTegic.value.IntegerValue
237

@<SCITEGIC>MOL_PROPERTY
Conf_Id
SciTegic.value.IntegerValue
20

@<SCITEGIC>MOL_PROPERTY
Delta U+W
SciTegic.value.DoubleValue
-0.483

@<SCITEGIC>MOL_PROPERTY
U+W
SciTegic.value.DoubleValue
2.527

@<SCITEGIC>MOL_PROPERTY
Grad RMS
SciTegic.value.DoubleValue
0.000000

@<SCITEGIC>MOL_PROPERTY
U
SciTegic.value.DoubleValue
4.508

@<SCITEGIC>MOL_PROPERTY
W
SciTegic.value.DoubleValue
-1.981

@<SCITEGIC>MOL_PROPERTY
W(PB)
SciTegic.value.DoubleValue
-3.712

@<SCITEGIC>MOL_PROPERTY
W(SA)
SciTegic.value.DoubleValue
1.732

@<SCITEGIC>MOL_PROPERTY
Valence
SciTegic.value.DoubleValue
14.705

@<SCITEGIC>MOL_PROPERTY
Coulomb
SciTegic.value.DoubleValue
-10.687

@<SCITEGIC>MOL_PROPERTY
VdW
SciTegic.value.DoubleValue
0.490

@<SCITEGIC>MOL_PROPERTY
VdW6
SciTegic.value.DoubleValue
-3.745

@<SCITEGIC>MOL_PROPERTY
VdW12
SciTegic.value.DoubleValue
4.235

@<SCITEGIC>MOL_PROPERTY
Bond
SciTegic.value.DoubleValue
0.068

@<SCITEGIC>MOL_PROPERTY
Angle
SciTegic.value.DoubleValue
3.901

@<SCITEGIC>MOL_PROPERTY
Pdih
SciTegic.value.DoubleValue
10.737

@<SCITEGIC>MOL_PROPERTY
Idih
SciTegic.value.DoubleValue
0.000

@<SCITEGIC>MOL_PROPERTY
Tether
SciTegic.value.DoubleValue
0.000

@<TRIPOS>MOLECULE
guest-4_confgen4.mol2 : confsearch ligand conformer 238
          16          16           1
SMALL
USER_CHARGES
 
@<TRIPOS>ATOM
       1    C1      20.410853   19.556542   22.291300 C.3        1 MOL1        -0.1689
       2    H1      20.052700   20.359959   22.950030 H          1 MOL1         0.0830
       3    H2      21.419663   19.819411   21.945111 H          1 MOL1         0.0830
       4    C2      19.424478   19.364516   21.131163 C.3        1 MOL1        -0.1689
       5    H3      19.034003   20.318822   20.752233 H          1 MOL1         0.0830
       6    H4      19.925192   18.844802   20.302424 H          1 MOL1         0.0830
       7    C3      18.316674   18.468419   21.714547 C.3        1 MOL1        -0.1765
       8    H5      17.851692   17.848138   20.937443 H          1 MOL1         0.0830
       9    H6      17.533463   19.099806   22.155812 H          1 MOL1         0.0830
      10    C4      18.985028   17.604929   22.805128 C.3        1 MOL1         0.1214
      11    H7      19.098891   16.570647   22.449018 H          1 MOL1         0.0787
      12    C5      20.380208   18.216354   23.048985 C.3        1 MOL1        -0.1765
      13    H8      20.595324   18.351011   24.117448 H          1 MOL1         0.0830
      14    H9      21.143101   17.542838   22.637341 H          1 MOL1         0.0830
      15    O1      18.216395   17.643739   24.001617 O.3        1 MOL1        -0.5512
      16    H10     17.341900   17.255603   23.786811 H          1 MOL1         0.3776
@<TRIPOS>BOND
    1     1     2    1
    2     1     3    1
    3     1     4    1
    4     4     5    1
    5     4     6    1
    6     4     7    1
    7     7     8    1
    8     7     9    1
    9     7    10    1
   10    10    11    1
   11     1    12    1
   12    10    12    1
   13    12    13    1
   14    12    14    1
   15    10    15    1
   16    15    16    1
@<TRIPOS>SUBSTRUCTURE
       1 MOL1            1 RESIDUE      1      MOL     
@<SCITEGIC>MOL_PROPERTY
VConf Rank
SciTegic.value.IntegerValue
238

@<SCITEGIC>MOL_PROPERTY
Conf_Id
SciTegic.value.IntegerValue
59

@<SCITEGIC>MOL_PROPERTY
Delta U+W
SciTegic.value.DoubleValue
0.000

@<SCITEGIC>MOL_PROPERTY
U+W
SciTegic.value.DoubleValue
3.010

@<SCITEGIC>MOL_PROPERTY
Grad RMS
SciTegic.value.DoubleValue
0.000000

@<SCITEGIC>MOL_PROPERTY
U
SciTegic.value.DoubleValue
5.843

@<SCITEGIC>MOL_PROPERTY
W
SciTegic.value.DoubleValue
-2.833

@<SCITEGIC>MOL_PROPERTY
W(PB)
SciTegic.value.DoubleValue
-4.568

@<SCITEGIC>MOL_PROPERTY
W(SA)
SciTegic.value.DoubleValue
1.735

@<SCITEGIC>MOL_PROPERTY
Valence
SciTegic.value.DoubleValue
13.789

@<SCITEGIC>MOL_PROPERTY
Coulomb
SciTegic.value.DoubleValue
-8.574

@<SCITEGIC>MOL_PROPERTY
VdW
SciTegic.value.DoubleValue
0.628

@<SCITEGIC>MOL_PROPERTY
VdW6
SciTegic.value.DoubleValue
-3.284

@<SCITEGIC>MOL_PROPERTY
VdW12
SciTegic.value.DoubleValue
3.912

@<SCITEGIC>MOL_PROPERTY
Bond
SciTegic.value.DoubleValue
0.054

@<SCITEGIC>MOL_PROPERTY
Angle
SciTegic.value.DoubleValue
4.034

@<SCITEGIC>MOL_PROPERTY
Pdih
SciTegic.value.DoubleValue
9.702

@<SCITEGIC>MOL_PROPERTY
Idih
SciTegic.value.DoubleValue
0.000

@<SCITEGIC>MOL_PROPERTY
Tether
SciTegic.value.DoubleValue
0.000

@<TRIPOS>MOLECULE
guest-4_confgen4.mol2 : confsearch ligand conformer 239
          16          16           1
SMALL
USER_CHARGES
 
@<TRIPOS>ATOM
       1    C1      20.154561   19.523834   23.150314 C.3        1 MOL1        -0.1689
       2    H1      19.958501   20.425892   23.745805 H          1 MOL1         0.0830
       3    H2      21.171016   19.174861   23.379788 H          1 MOL1         0.0830
       4    C2      20.024685   19.779800   21.642554 C.3        1 MOL1        -0.1689
       5    H3      19.171896   20.446895   21.454368 H          1 MOL1         0.0830
       6    H4      20.924834   20.243459   21.216650 H          1 MOL1         0.0830
       7    C3      19.736926   18.392432   21.039658 C.3        1 MOL1        -0.1765
       8    H5      20.683071   17.900555   20.778984 H          1 MOL1         0.0830
       9    H6      19.135740   18.466439   20.123625 H          1 MOL1         0.0830
      10    C4      19.030278   17.573032   22.139217 C.3        1 MOL1         0.1214
      11    H7      19.545848   16.609397   22.262159 H          1 MOL1         0.0787
      12    C5      19.141090   18.400766   23.437028 C.3        1 MOL1        -0.1765
      13    H8      18.168547   18.844824   23.689523 H          1 MOL1         0.0830
      14    H9      19.458910   17.780636   24.285129 H          1 MOL1         0.0830
      15    O1      17.663285   17.372953   21.799809 O.3        1 MOL1        -0.5512
      16    H10     17.263429   16.860137   22.533747 H          1 MOL1         0.3776
@<TRIPOS>BOND
    1     1     2    1
    2     1     3    1
    3     1     4    1
    4     4     5    1
    5     4     6    1
    6     4     7    1
    7     7     8    1
    8     7     9    1
    9     7    10    1
   10    10    11    1
   11     1    12    1
   12    10    12    1
   13    12    13    1
   14    12    14    1
   15    10    15    1
   16    15    16    1
@<TRIPOS>SUBSTRUCTURE
       1 MOL1            1 RESIDUE      1      MOL     
@<SCITEGIC>MOL_PROPERTY
VConf Rank
SciTegic.value.IntegerValue
239

@<SCITEGIC>MOL_PROPERTY
Conf_Id
SciTegic.value.IntegerValue
33

@<SCITEGIC>MOL_PROPERTY
Delta U+W
SciTegic.value.DoubleValue
0.015

@<SCITEGIC>MOL_PROPERTY
U+W
SciTegic.value.DoubleValue
3.025

@<SCITEGIC>MOL_PROPERTY
Grad RMS
SciTegic.value.DoubleValue
0.000000

@<SCITEGIC>MOL_PROPERTY
U
SciTegic.value.DoubleValue
5.843

@<SCITEGIC>MOL_PROPERTY
W
SciTegic.value.DoubleValue
-2.819

@<SCITEGIC>MOL_PROPERTY
W(PB)
SciTegic.value.DoubleValue
-4.568

@<SCITEGIC>MOL_PROPERTY
W(SA)
SciTegic.value.DoubleValue
1.750

@<SCITEGIC>MOL_PROPERTY
Valence
SciTegic.value.DoubleValue
13.789

@<SCITEGIC>MOL_PROPERTY
Coulomb
SciTegic.value.DoubleValue
-8.574

@<SCITEGIC>MOL_PROPERTY
VdW
SciTegic.value.DoubleValue
0.628

@<SCITEGIC>MOL_PROPERTY
VdW6
SciTegic.value.DoubleValue
-3.284

@<SCITEGIC>MOL_PROPERTY
VdW12
SciTegic.value.DoubleValue
3.913

@<SCITEGIC>MOL_PROPERTY
Bond
SciTegic.value.DoubleValue
0.054

@<SCITEGIC>MOL_PROPERTY
Angle
SciTegic.value.DoubleValue
4.033

@<SCITEGIC>MOL_PROPERTY
Pdih
SciTegic.value.DoubleValue
9.702

@<SCITEGIC>MOL_PROPERTY
Idih
SciTegic.value.DoubleValue
0.000

@<SCITEGIC>MOL_PROPERTY
Tether
SciTegic.value.DoubleValue
0.000

@<TRIPOS>MOLECULE
guest-4_confgen4.mol2 : confsearch ligand conformer 240
          16          16           1
SMALL
USER_CHARGES
 
@<TRIPOS>ATOM
       1    C1      18.874702   19.550626   21.453711 C.3        1 MOL1        -0.1689
       2    H1      18.745387   20.531880   21.930833 H          1 MOL1         0.0830
       3    H2      18.553158   19.643840   20.407328 H          1 MOL1         0.0830
       4    C2      18.048772   18.486445   22.208947 C.3        1 MOL1        -0.1689
       5    H3      17.518903   18.952853   23.050927 H          1 MOL1         0.0830
       6    H4      17.295834   18.022247   21.557330 H          1 MOL1         0.0830
       7    C3      19.055731   17.437936   22.727692 C.3        1 MOL1        -0.1765
       8    H5      19.083983   16.583895   22.038173 H          1 MOL1         0.0830
       9    H6      18.784720   17.056435   23.721178 H          1 MOL1         0.0830
      10    C4      20.426902   18.127044   22.723837 C.3        1 MOL1         0.1214
      11    H7      21.243701   17.402134   22.596065 H          1 MOL1         0.0787
      12    C5      20.349605   19.104560   21.543394 C.3        1 MOL1        -0.1765
      13    H8      21.035070   19.954386   21.661454 H          1 MOL1         0.0830
      14    H9      20.629340   18.575040   20.623080 H          1 MOL1         0.0830
      15    O1      20.584864   18.861016   23.929300 O.3        1 MOL1        -0.5512
      16    H10     19.821081   19.473428   23.956663 H          1 MOL1         0.3776
@<TRIPOS>BOND
    1     1     2    1
    2     1     3    1
    3     1     4    1
    4     4     5    1
    5     4     6    1
    6     4     7    1
    7     7     8    1
    8     7     9    1
    9     7    10    1
   10    10    11    1
   11     1    12    1
   12    10    12    1
   13    12    13    1
   14    12    14    1
   15    10    15    1
   16    15    16    1
@<TRIPOS>SUBSTRUCTURE
       1 MOL1            1 RESIDUE      1      MOL     
@<SCITEGIC>MOL_PROPERTY
VConf Rank
SciTegic.value.IntegerValue
240

@<SCITEGIC>MOL_PROPERTY
Conf_Id
SciTegic.value.IntegerValue
20

@<SCITEGIC>MOL_PROPERTY
Delta U+W
SciTegic.value.DoubleValue
-0.483

@<SCITEGIC>MOL_PROPERTY
U+W
SciTegic.value.DoubleValue
2.527

@<SCITEGIC>MOL_PROPERTY
Grad RMS
SciTegic.value.DoubleValue
0.000000

@<SCITEGIC>MOL_PROPERTY
U
SciTegic.value.DoubleValue
4.508

@<SCITEGIC>MOL_PROPERTY
W
SciTegic.value.DoubleValue
-1.981

@<SCITEGIC>MOL_PROPERTY
W(PB)
SciTegic.value.DoubleValue
-3.712

@<SCITEGIC>MOL_PROPERTY
W(SA)
SciTegic.value.DoubleValue
1.732

@<SCITEGIC>MOL_PROPERTY
Valence
SciTegic.value.DoubleValue
14.705

@<SCITEGIC>MOL_PROPERTY
Coulomb
SciTegic.value.DoubleValue
-10.687

@<SCITEGIC>MOL_PROPERTY
VdW
SciTegic.value.DoubleValue
0.490

@<SCITEGIC>MOL_PROPERTY
VdW6
SciTegic.value.DoubleValue
-3.745

@<SCITEGIC>MOL_PROPERTY
VdW12
SciTegic.value.DoubleValue
4.235

@<SCITEGIC>MOL_PROPERTY
Bond
SciTegic.value.DoubleValue
0.068

@<SCITEGIC>MOL_PROPERTY
Angle
SciTegic.value.DoubleValue
3.901

@<SCITEGIC>MOL_PROPERTY
Pdih
SciTegic.value.DoubleValue
10.737

@<SCITEGIC>MOL_PROPERTY
Idih
SciTegic.value.DoubleValue
0.000

@<SCITEGIC>MOL_PROPERTY
Tether
SciTegic.value.DoubleValue
0.000

@<TRIPOS>MOLECULE
guest-4_confgen4.mol2 : confsearch ligand conformer 241
          16          16           1
SMALL
USER_CHARGES
 
@<TRIPOS>ATOM
       1    C1      18.432868   17.433672   22.362274 C.3        1 MOL1        -0.1689
       2    H1      17.989149   17.388090   21.357927 H          1 MOL1         0.0830
       3    H2      18.039573   16.593590   22.950682 H          1 MOL1         0.0830
       4    C2      18.120720   18.793832   23.001224 C.3        1 MOL1        -0.1689
       5    H3      17.099051   19.133486   22.783081 H          1 MOL1         0.0830
       6    H4      18.234224   18.724569   24.092070 H          1 MOL1         0.0830
       7    C3      19.188749   19.741678   22.425499 C.3        1 MOL1        -0.1765
       8    H5      19.422968   20.554334   23.125198 H          1 MOL1         0.0830
       9    H6      18.811534   20.193339   21.497870 H          1 MOL1         0.0830
      10    C4      20.428927   18.871722   22.130860 C.3        1 MOL1         0.1214
      11    H7      21.212313   19.068004   22.877385 H          1 MOL1         0.0787
      12    C5      19.968295   17.404211   22.249453 C.3        1 MOL1        -0.1765
      13    H8      20.299513   16.793359   21.399055 H          1 MOL1         0.0830
      14    H9      20.396402   16.967221   23.160959 H          1 MOL1         0.0830
      15    O1      20.909249   19.130538   20.817013 O.3        1 MOL1        -0.5512
      16    H10     21.176032   20.073889   20.795859 H          1 MOL1         0.3776
@<TRIPOS>BOND
    1     1     2    1
    2     1     3    1
    3     1     4    1
    4     4     5    1
    5     4     6    1
    6     4     7    1
    7     7     8    1
    8     7     9    1
    9     7    10    1
   10    10    11    1
   11     1    12    1
   12    10    12    1
   13    12    13    1
   14    12    14    1
   15    10    15    1
   16    15    16    1
@<TRIPOS>SUBSTRUCTURE
       1 MOL1            1 RESIDUE      1      MOL     
@<SCITEGIC>MOL_PROPERTY
VConf Rank
SciTegic.value.IntegerValue
241

@<SCITEGIC>MOL_PROPERTY
Conf_Id
SciTegic.value.IntegerValue
59

@<SCITEGIC>MOL_PROPERTY
Delta U+W
SciTegic.value.DoubleValue
0.000

@<SCITEGIC>MOL_PROPERTY
U+W
SciTegic.value.DoubleValue
3.010

@<SCITEGIC>MOL_PROPERTY
Grad RMS
SciTegic.value.DoubleValue
0.000000

@<SCITEGIC>MOL_PROPERTY
U
SciTegic.value.DoubleValue
5.843

@<SCITEGIC>MOL_PROPERTY
W
SciTegic.value.DoubleValue
-2.833

@<SCITEGIC>MOL_PROPERTY
W(PB)
SciTegic.value.DoubleValue
-4.568

@<SCITEGIC>MOL_PROPERTY
W(SA)
SciTegic.value.DoubleValue
1.735

@<SCITEGIC>MOL_PROPERTY
Valence
SciTegic.value.DoubleValue
13.789

@<SCITEGIC>MOL_PROPERTY
Coulomb
SciTegic.value.DoubleValue
-8.574

@<SCITEGIC>MOL_PROPERTY
VdW
SciTegic.value.DoubleValue
0.628

@<SCITEGIC>MOL_PROPERTY
VdW6
SciTegic.value.DoubleValue
-3.284

@<SCITEGIC>MOL_PROPERTY
VdW12
SciTegic.value.DoubleValue
3.912

@<SCITEGIC>MOL_PROPERTY
Bond
SciTegic.value.DoubleValue
0.054

@<SCITEGIC>MOL_PROPERTY
Angle
SciTegic.value.DoubleValue
4.034

@<SCITEGIC>MOL_PROPERTY
Pdih
SciTegic.value.DoubleValue
9.702

@<SCITEGIC>MOL_PROPERTY
Idih
SciTegic.value.DoubleValue
0.000

@<SCITEGIC>MOL_PROPERTY
Tether
SciTegic.value.DoubleValue
0.000

@<TRIPOS>MOLECULE
guest-4_confgen4.mol2 : confsearch ligand conformer 242
          16          16           1
SMALL
USER_CHARGES
 
@<TRIPOS>ATOM
       1    C1      18.301714   18.643327   23.150501 C.3        1 MOL1        -0.1689
       2    H1      18.057295   18.796940   24.210416 H          1 MOL1         0.0830
       3    H2      17.361636   18.610881   22.582325 H          1 MOL1         0.0830
       4    C2      19.092134   17.348890   22.915140 C.3        1 MOL1        -0.1689
       5    H3      19.823948   17.212103   23.723482 H          1 MOL1         0.0830
       6    H4      18.444833   16.461970   22.883225 H          1 MOL1         0.0830
       7    C3      19.831151   17.585211   21.585072 C.3        1 MOL1        -0.1765
       8    H5      19.205538   17.243550   20.750231 H          1 MOL1         0.0830
       9    H6      20.776685   17.028213   21.543375 H          1 MOL1         0.0830
      10    C4      20.043061   19.108465   21.464287 C.3        1 MOL1         0.1214
      11    H7      19.678368   19.449432   20.484359 H          1 MOL1         0.0787
      12    C5      19.210012   19.753912   22.591746 C.3        1 MOL1        -0.1765
      13    H8      19.869428   20.120068   23.390422 H          1 MOL1         0.0830
      14    H9      18.622690   20.604719   22.222929 H          1 MOL1         0.0830
      15    O1      21.420011   19.426644   21.627593 O.3        1 MOL1        -0.5512
      16    H10     21.494113   20.401586   21.553255 H          1 MOL1         0.3776
@<TRIPOS>BOND
    1     1     2    1
    2     1     3    1
    3     1     4    1
    4     4     5    1
    5     4     6    1
    6     4     7    1
    7     7     8    1
    8     7     9    1
    9     7    10    1
   10    10    11    1
   11     1    12    1
   12    10    12    1
   13    12    13    1
   14    12    14    1
   15    10    15    1
   16    15    16    1
@<TRIPOS>SUBSTRUCTURE
       1 MOL1            1 RESIDUE      1      MOL     
@<SCITEGIC>MOL_PROPERTY
VConf Rank
SciTegic.value.IntegerValue
242

@<SCITEGIC>MOL_PROPERTY
Conf_Id
SciTegic.value.IntegerValue
33

@<SCITEGIC>MOL_PROPERTY
Delta U+W
SciTegic.value.DoubleValue
0.015

@<SCITEGIC>MOL_PROPERTY
U+W
SciTegic.value.DoubleValue
3.025

@<SCITEGIC>MOL_PROPERTY
Grad RMS
SciTegic.value.DoubleValue
0.000000

@<SCITEGIC>MOL_PROPERTY
U
SciTegic.value.DoubleValue
5.843

@<SCITEGIC>MOL_PROPERTY
W
SciTegic.value.DoubleValue
-2.819

@<SCITEGIC>MOL_PROPERTY
W(PB)
SciTegic.value.DoubleValue
-4.568

@<SCITEGIC>MOL_PROPERTY
W(SA)
SciTegic.value.DoubleValue
1.750

@<SCITEGIC>MOL_PROPERTY
Valence
SciTegic.value.DoubleValue
13.789

@<SCITEGIC>MOL_PROPERTY
Coulomb
SciTegic.value.DoubleValue
-8.574

@<SCITEGIC>MOL_PROPERTY
VdW
SciTegic.value.DoubleValue
0.628

@<SCITEGIC>MOL_PROPERTY
VdW6
SciTegic.value.DoubleValue
-3.284

@<SCITEGIC>MOL_PROPERTY
VdW12
SciTegic.value.DoubleValue
3.913

@<SCITEGIC>MOL_PROPERTY
Bond
SciTegic.value.DoubleValue
0.054

@<SCITEGIC>MOL_PROPERTY
Angle
SciTegic.value.DoubleValue
4.033

@<SCITEGIC>MOL_PROPERTY
Pdih
SciTegic.value.DoubleValue
9.702

@<SCITEGIC>MOL_PROPERTY
Idih
SciTegic.value.DoubleValue
0.000

@<SCITEGIC>MOL_PROPERTY
Tether
SciTegic.value.DoubleValue
0.000

@<TRIPOS>MOLECULE
guest-4_confgen4.mol2 : confsearch ligand conformer 243
          16          16           1
SMALL
USER_CHARGES
 
@<TRIPOS>ATOM
       1    C1      20.706435   18.730244   22.177913 C.3        1 MOL1        -0.1689
       2    H1      21.073771   19.037413   21.189005 H          1 MOL1         0.0830
       3    H2      21.577486   18.625162   22.839143 H          1 MOL1         0.0830
       4    C2      19.921143   17.405838   22.058392 C.3        1 MOL1        -0.1689
       5    H3      19.909322   17.071487   21.011828 H          1 MOL1         0.0830
       6    H4      20.380846   16.608199   22.657928 H          1 MOL1         0.0830
       7    C3      18.484986   17.703658   22.539219 C.3        1 MOL1        -0.1765
       8    H5      18.378256   17.396866   23.588079 H          1 MOL1         0.0830
       9    H6      17.729513   17.162319   21.954225 H          1 MOL1         0.0830
      10    C4      18.312206   19.225595   22.445160 C.3        1 MOL1         0.1214
      11    H7      17.577343   19.595241   23.174764 H          1 MOL1         0.0787
      12    C5      19.715645   19.778334   22.727639 C.3        1 MOL1        -0.1765
      13    H8      19.869448   20.770323   22.282322 H          1 MOL1         0.0830
      14    H9      19.848870   19.875147   23.813227 H          1 MOL1         0.0830
      15    O1      17.930693   19.572090   21.121833 O.3        1 MOL1        -0.5512
      16    H10     18.635791   19.205849   20.549235 H          1 MOL1         0.3776
@<TRIPOS>BOND
    1     1     2    1
    2     1     3    1
    3     1     4    1
    4     4     5    1
    5     4     6    1
    6     4     7    1
    7     7     8    1
    8     7     9    1
    9     7    10    1
   10    10    11    1
   11     1    12    1
   12    10    12    1
   13    12    13    1
   14    12    14    1
   15    10    15    1
   16    15    16    1
@<TRIPOS>SUBSTRUCTURE
       1 MOL1            1 RESIDUE      1      MOL     
@<SCITEGIC>MOL_PROPERTY
VConf Rank
SciTegic.value.IntegerValue
243

@<SCITEGIC>MOL_PROPERTY
Conf_Id
SciTegic.value.IntegerValue
20

@<SCITEGIC>MOL_PROPERTY
Delta U+W
SciTegic.value.DoubleValue
-0.483

@<SCITEGIC>MOL_PROPERTY
U+W
SciTegic.value.DoubleValue
2.527

@<SCITEGIC>MOL_PROPERTY
Grad RMS
SciTegic.value.DoubleValue
0.000000

@<SCITEGIC>MOL_PROPERTY
U
SciTegic.value.DoubleValue
4.508

@<SCITEGIC>MOL_PROPERTY
W
SciTegic.value.DoubleValue
-1.981

@<SCITEGIC>MOL_PROPERTY
W(PB)
SciTegic.value.DoubleValue
-3.712

@<SCITEGIC>MOL_PROPERTY
W(SA)
SciTegic.value.DoubleValue
1.732

@<SCITEGIC>MOL_PROPERTY
Valence
SciTegic.value.DoubleValue
14.705

@<SCITEGIC>MOL_PROPERTY
Coulomb
SciTegic.value.DoubleValue
-10.687

@<SCITEGIC>MOL_PROPERTY
VdW
SciTegic.value.DoubleValue
0.490

@<SCITEGIC>MOL_PROPERTY
VdW6
SciTegic.value.DoubleValue
-3.745

@<SCITEGIC>MOL_PROPERTY
VdW12
SciTegic.value.DoubleValue
4.235

@<SCITEGIC>MOL_PROPERTY
Bond
SciTegic.value.DoubleValue
0.068

@<SCITEGIC>MOL_PROPERTY
Angle
SciTegic.value.DoubleValue
3.901

@<SCITEGIC>MOL_PROPERTY
Pdih
SciTegic.value.DoubleValue
10.737

@<SCITEGIC>MOL_PROPERTY
Idih
SciTegic.value.DoubleValue
0.000

@<SCITEGIC>MOL_PROPERTY
Tether
SciTegic.value.DoubleValue
0.000

@<TRIPOS>MOLECULE
guest-4_confgen4.mol2 : confsearch ligand conformer 244
          16          16           1
SMALL
USER_CHARGES
 
@<TRIPOS>ATOM
       1    C1      20.530189   19.408887   22.217970 C.3        1 MOL1        -0.1689
       2    H1      20.327325   20.247172   22.899000 H          1 MOL1         0.0830
       3    H2      21.538884   19.539040   21.802955 H          1 MOL1         0.0830
       4    C2      19.450155   19.358261   21.128617 C.3        1 MOL1        -0.1689
       5    H3      19.164411   20.358830   20.776523 H          1 MOL1         0.0830
       6    H4      19.819913   18.783742   20.267901 H          1 MOL1         0.0830
       7    C3      18.275989   18.611588   21.787686 C.3        1 MOL1        -0.1765
       8    H5      17.681039   18.064497   21.045008 H          1 MOL1         0.0830
       9    H6      17.615190   19.337261   22.281171 H          1 MOL1         0.0830
      10    C4      18.897142   17.658542   22.830543 C.3        1 MOL1         0.1214
      11    H7      18.848565   16.621218   22.468444 H          1 MOL1         0.0787
      12    C5      20.374323   18.078356   22.977263 C.3        1 MOL1        -0.1765
      13    H8      20.677844   18.174717   24.028267 H          1 MOL1         0.0830
      14    H9      21.011481   17.313366   22.514767 H          1 MOL1         0.0830
      15    O1      18.223945   17.788772   24.077032 O.3        1 MOL1        -0.5512
      16    H10     17.293172   17.521285   23.923264 H          1 MOL1         0.3776
@<TRIPOS>BOND
    1     1     2    1
    2     1     3    1
    3     1     4    1
    4     4     5    1
    5     4     6    1
    6     4     7    1
    7     7     8    1
    8     7     9    1
    9     7    10    1
   10    10    11    1
   11     1    12    1
   12    10    12    1
   13    12    13    1
   14    12    14    1
   15    10    15    1
   16    15    16    1
@<TRIPOS>SUBSTRUCTURE
       1 MOL1            1 RESIDUE      1      MOL     
@<SCITEGIC>MOL_PROPERTY
VConf Rank
SciTegic.value.IntegerValue
244

@<SCITEGIC>MOL_PROPERTY
Conf_Id
SciTegic.value.IntegerValue
59

@<SCITEGIC>MOL_PROPERTY
Delta U+W
SciTegic.value.DoubleValue
0.000

@<SCITEGIC>MOL_PROPERTY
U+W
SciTegic.value.DoubleValue
3.010

@<SCITEGIC>MOL_PROPERTY
Grad RMS
SciTegic.value.DoubleValue
0.000000

@<SCITEGIC>MOL_PROPERTY
U
SciTegic.value.DoubleValue
5.843

@<SCITEGIC>MOL_PROPERTY
W
SciTegic.value.DoubleValue
-2.833

@<SCITEGIC>MOL_PROPERTY
W(PB)
SciTegic.value.DoubleValue
-4.568

@<SCITEGIC>MOL_PROPERTY
W(SA)
SciTegic.value.DoubleValue
1.735

@<SCITEGIC>MOL_PROPERTY
Valence
SciTegic.value.DoubleValue
13.789

@<SCITEGIC>MOL_PROPERTY
Coulomb
SciTegic.value.DoubleValue
-8.574

@<SCITEGIC>MOL_PROPERTY
VdW
SciTegic.value.DoubleValue
0.628

@<SCITEGIC>MOL_PROPERTY
VdW6
SciTegic.value.DoubleValue
-3.284

@<SCITEGIC>MOL_PROPERTY
VdW12
SciTegic.value.DoubleValue
3.912

@<SCITEGIC>MOL_PROPERTY
Bond
SciTegic.value.DoubleValue
0.054

@<SCITEGIC>MOL_PROPERTY
Angle
SciTegic.value.DoubleValue
4.034

@<SCITEGIC>MOL_PROPERTY
Pdih
SciTegic.value.DoubleValue
9.702

@<SCITEGIC>MOL_PROPERTY
Idih
SciTegic.value.DoubleValue
0.000

@<SCITEGIC>MOL_PROPERTY
Tether
SciTegic.value.DoubleValue
0.000

@<TRIPOS>MOLECULE
guest-4_confgen4.mol2 : confsearch ligand conformer 245
          16          16           1
SMALL
USER_CHARGES
 
@<TRIPOS>ATOM
       1    C1      20.482336   17.807093   22.884658 C.3        1 MOL1        -0.1689
       2    H1      21.188180   17.015341   22.598876 H          1 MOL1         0.0830
       3    H2      20.730102   18.137048   23.903168 H          1 MOL1         0.0830
       4    C2      19.023053   17.333972   22.835900 C.3        1 MOL1        -0.1689
       5    H3      18.874372   16.688179   21.959244 H          1 MOL1         0.0830
       6    H4      18.735128   16.768596   23.732611 H          1 MOL1         0.0830
       7    C3      18.204174   18.627218   22.668487 C.3        1 MOL1        -0.1765
       8    H5      17.942375   19.028006   23.656371 H          1 MOL1         0.0830
       9    H6      17.268354   18.445503   22.123290 H          1 MOL1         0.0830
      10    C4      19.118356   19.635782   21.942630 C.3        1 MOL1         0.1214
      11    H7      19.135095   20.580886   22.504783 H          1 MOL1         0.0787
      12    C5      20.528114   19.008160   21.922395 C.3        1 MOL1        -0.1765
      13    H8      20.772943   18.654639   20.911522 H          1 MOL1         0.0830
      14    H9      21.296572   19.732633   22.221493 H          1 MOL1         0.0830
      15    O1      18.656564   19.848410   20.613934 O.3        1 MOL1        -0.5512
      16    H10     19.276898   20.484446   20.198996 H          1 MOL1         0.3776
@<TRIPOS>BOND
    1     1     2    1
    2     1     3    1
    3     1     4    1
    4     4     5    1
    5     4     6    1
    6     4     7    1
    7     7     8    1
    8     7     9    1
    9     7    10    1
   10    10    11    1
   11     1    12    1
   12    10    12    1
   13    12    13    1
   14    12    14    1
   15    10    15    1
   16    15    16    1
@<TRIPOS>SUBSTRUCTURE
       1 MOL1            1 RESIDUE      1      MOL     
@<SCITEGIC>MOL_PROPERTY
VConf Rank
SciTegic.value.IntegerValue
245

@<SCITEGIC>MOL_PROPERTY
Conf_Id
SciTegic.value.IntegerValue
33

@<SCITEGIC>MOL_PROPERTY
Delta U+W
SciTegic.value.DoubleValue
0.015

@<SCITEGIC>MOL_PROPERTY
U+W
SciTegic.value.DoubleValue
3.025

@<SCITEGIC>MOL_PROPERTY
Grad RMS
SciTegic.value.DoubleValue
0.000000

@<SCITEGIC>MOL_PROPERTY
U
SciTegic.value.DoubleValue
5.843

@<SCITEGIC>MOL_PROPERTY
W
SciTegic.value.DoubleValue
-2.819

@<SCITEGIC>MOL_PROPERTY
W(PB)
SciTegic.value.DoubleValue
-4.568

@<SCITEGIC>MOL_PROPERTY
W(SA)
SciTegic.value.DoubleValue
1.750

@<SCITEGIC>MOL_PROPERTY
Valence
SciTegic.value.DoubleValue
13.789

@<SCITEGIC>MOL_PROPERTY
Coulomb
SciTegic.value.DoubleValue
-8.574

@<SCITEGIC>MOL_PROPERTY
VdW
SciTegic.value.DoubleValue
0.628

@<SCITEGIC>MOL_PROPERTY
VdW6
SciTegic.value.DoubleValue
-3.284

@<SCITEGIC>MOL_PROPERTY
VdW12
SciTegic.value.DoubleValue
3.913

@<SCITEGIC>MOL_PROPERTY
Bond
SciTegic.value.DoubleValue
0.054

@<SCITEGIC>MOL_PROPERTY
Angle
SciTegic.value.DoubleValue
4.033

@<SCITEGIC>MOL_PROPERTY
Pdih
SciTegic.value.DoubleValue
9.702

@<SCITEGIC>MOL_PROPERTY
Idih
SciTegic.value.DoubleValue
0.000

@<SCITEGIC>MOL_PROPERTY
Tether
SciTegic.value.DoubleValue
0.000

@<TRIPOS>MOLECULE
guest-4_confgen4.mol2 : confsearch ligand conformer 246
          16          16           1
SMALL
USER_CHARGES
 
@<TRIPOS>ATOM
       1    C1      18.631329   18.499083   21.155972 C.3        1 MOL1        -0.1689
       2    H1      18.994423   17.751578   20.437206 H          1 MOL1         0.0830
       3    H2      17.713076   18.939365   20.743709 H          1 MOL1         0.0830
       4    C2      19.717885   19.570542   21.393445 C.3        1 MOL1        -0.1689
       5    H3      20.606425   19.342181   20.788818 H          1 MOL1         0.0830
       6    H4      19.367640   20.571493   21.106346 H          1 MOL1         0.0830
       7    C3      20.066664   19.514651   22.895998 C.3        1 MOL1        -0.1765
       8    H5      19.513140   20.297959   23.430470 H          1 MOL1         0.0830
       9    H6      21.136988   19.676303   23.081152 H          1 MOL1         0.0830
      10    C4      19.591773   18.142221   23.391889 C.3        1 MOL1         0.1214
      11    H7      19.336407   18.164500   24.461130 H          1 MOL1         0.0787
      12    C5      18.363452   17.836817   22.524184 C.3        1 MOL1        -0.1765
      13    H8      18.174837   16.758638   22.434970 H          1 MOL1         0.0830
      14    H9      17.478227   18.293771   22.985910 H          1 MOL1         0.0830
      15    O1      20.599944   17.176430   23.131801 O.3        1 MOL1        -0.5512
      16    H10     20.759542   17.228231   22.166914 H          1 MOL1         0.3776
@<TRIPOS>BOND
    1     1     2    1
    2     1     3    1
    3     1     4    1
    4     4     5    1
    5     4     6    1
    6     4     7    1
    7     7     8    1
    8     7     9    1
    9     7    10    1
   10    10    11    1
   11     1    12    1
   12    10    12    1
   13    12    13    1
   14    12    14    1
   15    10    15    1
   16    15    16    1
@<TRIPOS>SUBSTRUCTURE
       1 MOL1            1 RESIDUE      1      MOL     
@<SCITEGIC>MOL_PROPERTY
VConf Rank
SciTegic.value.IntegerValue
246

@<SCITEGIC>MOL_PROPERTY
Conf_Id
SciTegic.value.IntegerValue
20

@<SCITEGIC>MOL_PROPERTY
Delta U+W
SciTegic.value.DoubleValue
-0.483

@<SCITEGIC>MOL_PROPERTY
U+W
SciTegic.value.DoubleValue
2.527

@<SCITEGIC>MOL_PROPERTY
Grad RMS
SciTegic.value.DoubleValue
0.000000

@<SCITEGIC>MOL_PROPERTY
U
SciTegic.value.DoubleValue
4.508

@<SCITEGIC>MOL_PROPERTY
W
SciTegic.value.DoubleValue
-1.981

@<SCITEGIC>MOL_PROPERTY
W(PB)
SciTegic.value.DoubleValue
-3.712

@<SCITEGIC>MOL_PROPERTY
W(SA)
SciTegic.value.DoubleValue
1.732

@<SCITEGIC>MOL_PROPERTY
Valence
SciTegic.value.DoubleValue
14.705

@<SCITEGIC>MOL_PROPERTY
Coulomb
SciTegic.value.DoubleValue
-10.687

@<SCITEGIC>MOL_PROPERTY
VdW
SciTegic.value.DoubleValue
0.490

@<SCITEGIC>MOL_PROPERTY
VdW6
SciTegic.value.DoubleValue
-3.745

@<SCITEGIC>MOL_PROPERTY
VdW12
SciTegic.value.DoubleValue
4.235

@<SCITEGIC>MOL_PROPERTY
Bond
SciTegic.value.DoubleValue
0.068

@<SCITEGIC>MOL_PROPERTY
Angle
SciTegic.value.DoubleValue
3.901

@<SCITEGIC>MOL_PROPERTY
Pdih
SciTegic.value.DoubleValue
10.737

@<SCITEGIC>MOL_PROPERTY
Idih
SciTegic.value.DoubleValue
0.000

@<SCITEGIC>MOL_PROPERTY
Tether
SciTegic.value.DoubleValue
0.000

@<TRIPOS>MOLECULE
guest-4_confgen4.mol2 : confsearch ligand conformer 247
          16          16           1
SMALL
USER_CHARGES
 
@<TRIPOS>ATOM
       1    C1      18.690781   18.330496   23.586316 C.3        1 MOL1        -0.1689
       2    H1      17.694363   17.950007   23.321633 H          1 MOL1         0.0830
       3    H2      18.780688   18.327352   24.681100 H          1 MOL1         0.0830
       4    C2      18.882949   19.730097   22.986387 C.3        1 MOL1        -0.1689
       5    H3      17.972705   20.341574   23.052046 H          1 MOL1         0.0830
       6    H4      19.687987   20.253854   23.520444 H          1 MOL1         0.0830
       7    C3      19.308666   19.467577   21.530226 C.3        1 MOL1        -0.1765
       8    H5      19.949388   20.272820   21.148250 H          1 MOL1         0.0830
       9    H6      18.414640   19.417133   20.893863 H          1 MOL1         0.0830
      10    C4      20.042674   18.110038   21.529723 C.3        1 MOL1         0.1214
      11    H7      21.124616   18.267226   21.410509 H          1 MOL1         0.0787
      12    C5      19.769625   17.468014   22.905617 C.3        1 MOL1        -0.1765
      13    H8      19.454920   16.419279   22.821139 H          1 MOL1         0.0830
      14    H9      20.691292   17.492828   23.501432 H          1 MOL1         0.0830
      15    O1      19.537210   17.279028   20.491544 O.3        1 MOL1        -0.5512
      16    H10     19.727061   17.738212   19.646181 H          1 MOL1         0.3776
@<TRIPOS>BOND
    1     1     2    1
    2     1     3    1
    3     1     4    1
    4     4     5    1
    5     4     6    1
    6     4     7    1
    7     7     8    1
    8     7     9    1
    9     7    10    1
   10    10    11    1
   11     1    12    1
   12    10    12    1
   13    12    13    1
   14    12    14    1
   15    10    15    1
   16    15    16    1
@<TRIPOS>SUBSTRUCTURE
       1 MOL1            1 RESIDUE      1      MOL     
@<SCITEGIC>MOL_PROPERTY
VConf Rank
SciTegic.value.IntegerValue
247

@<SCITEGIC>MOL_PROPERTY
Conf_Id
SciTegic.value.IntegerValue
59

@<SCITEGIC>MOL_PROPERTY
Delta U+W
SciTegic.value.DoubleValue
0.000

@<SCITEGIC>MOL_PROPERTY
U+W
SciTegic.value.DoubleValue
3.010

@<SCITEGIC>MOL_PROPERTY
Grad RMS
SciTegic.value.DoubleValue
0.000000

@<SCITEGIC>MOL_PROPERTY
U
SciTegic.value.DoubleValue
5.843

@<SCITEGIC>MOL_PROPERTY
W
SciTegic.value.DoubleValue
-2.833

@<SCITEGIC>MOL_PROPERTY
W(PB)
SciTegic.value.DoubleValue
-4.568

@<SCITEGIC>MOL_PROPERTY
W(SA)
SciTegic.value.DoubleValue
1.735

@<SCITEGIC>MOL_PROPERTY
Valence
SciTegic.value.DoubleValue
13.789

@<SCITEGIC>MOL_PROPERTY
Coulomb
SciTegic.value.DoubleValue
-8.574

@<SCITEGIC>MOL_PROPERTY
VdW
SciTegic.value.DoubleValue
0.628

@<SCITEGIC>MOL_PROPERTY
VdW6
SciTegic.value.DoubleValue
-3.284

@<SCITEGIC>MOL_PROPERTY
VdW12
SciTegic.value.DoubleValue
3.912

@<SCITEGIC>MOL_PROPERTY
Bond
SciTegic.value.DoubleValue
0.054

@<SCITEGIC>MOL_PROPERTY
Angle
SciTegic.value.DoubleValue
4.034

@<SCITEGIC>MOL_PROPERTY
Pdih
SciTegic.value.DoubleValue
9.702

@<SCITEGIC>MOL_PROPERTY
Idih
SciTegic.value.DoubleValue
0.000

@<SCITEGIC>MOL_PROPERTY
Tether
SciTegic.value.DoubleValue
0.000

@<TRIPOS>MOLECULE
guest-4_confgen4.mol2 : confsearch ligand conformer 248
          16          16           1
SMALL
USER_CHARGES
 
@<TRIPOS>ATOM
       1    C1      18.360955   19.528525   22.467096 C.3        1 MOL1        -0.1689
       2    H1      18.058983   20.346140   23.135735 H          1 MOL1         0.0830
       3    H2      17.651171   19.490118   21.629031 H          1 MOL1         0.0830
       4    C2      18.390154   18.170432   23.181558 C.3        1 MOL1        -0.1689
       5    H3      18.797400   18.295876   24.194521 H          1 MOL1         0.0830
       6    H4      17.392286   17.718892   23.265311 H          1 MOL1         0.0830
       7    C3      19.354274   17.313420   22.340679 C.3        1 MOL1        -0.1765
       8    H5      18.791892   16.784539   21.560233 H          1 MOL1         0.0830
       9    H6      19.864229   16.558700   22.954163 H          1 MOL1         0.0830
      10    C4      20.343356   18.291017   21.672982 C.3        1 MOL1         0.1214
      11    H7      20.378476   18.090606   20.592186 H          1 MOL1         0.0787
      12    C5      19.792345   19.709571   21.929553 C.3        1 MOL1        -0.1765
      13    H8      20.401817   20.223791   22.685135 H          1 MOL1         0.0830
      14    H9      19.803742   20.318105   21.016096 H          1 MOL1         0.0830
      15    O1      21.635271   18.153937   22.252692 O.3        1 MOL1        -0.5512
      16    H10     22.216266   18.802241   21.801387 H          1 MOL1         0.3776
@<TRIPOS>BOND
    1     1     2    1
    2     1     3    1
    3     1     4    1
    4     4     5    1
    5     4     6    1
    6     4     7    1
    7     7     8    1
    8     7     9    1
    9     7    10    1
   10    10    11    1
   11     1    12    1
   12    10    12    1
   13    12    13    1
   14    12    14    1
   15    10    15    1
   16    15    16    1
@<TRIPOS>SUBSTRUCTURE
       1 MOL1            1 RESIDUE      1      MOL     
@<SCITEGIC>MOL_PROPERTY
VConf Rank
SciTegic.value.IntegerValue
248

@<SCITEGIC>MOL_PROPERTY
Conf_Id
SciTegic.value.IntegerValue
33

@<SCITEGIC>MOL_PROPERTY
Delta U+W
SciTegic.value.DoubleValue
0.015

@<SCITEGIC>MOL_PROPERTY
U+W
SciTegic.value.DoubleValue
3.025

@<SCITEGIC>MOL_PROPERTY
Grad RMS
SciTegic.value.DoubleValue
0.000000

@<SCITEGIC>MOL_PROPERTY
U
SciTegic.value.DoubleValue
5.843

@<SCITEGIC>MOL_PROPERTY
W
SciTegic.value.DoubleValue
-2.819

@<SCITEGIC>MOL_PROPERTY
W(PB)
SciTegic.value.DoubleValue
-4.568

@<SCITEGIC>MOL_PROPERTY
W(SA)
SciTegic.value.DoubleValue
1.750

@<SCITEGIC>MOL_PROPERTY
Valence
SciTegic.value.DoubleValue
13.789

@<SCITEGIC>MOL_PROPERTY
Coulomb
SciTegic.value.DoubleValue
-8.574

@<SCITEGIC>MOL_PROPERTY
VdW
SciTegic.value.DoubleValue
0.628

@<SCITEGIC>MOL_PROPERTY
VdW6
SciTegic.value.DoubleValue
-3.284

@<SCITEGIC>MOL_PROPERTY
VdW12
SciTegic.value.DoubleValue
3.913

@<SCITEGIC>MOL_PROPERTY
Bond
SciTegic.value.DoubleValue
0.054

@<SCITEGIC>MOL_PROPERTY
Angle
SciTegic.value.DoubleValue
4.033

@<SCITEGIC>MOL_PROPERTY
Pdih
SciTegic.value.DoubleValue
9.702

@<SCITEGIC>MOL_PROPERTY
Idih
SciTegic.value.DoubleValue
0.000

@<SCITEGIC>MOL_PROPERTY
Tether
SciTegic.value.DoubleValue
0.000

@<TRIPOS>MOLECULE
guest-4_confgen4.mol2 : confsearch ligand conformer 249
          16          16           1
SMALL
USER_CHARGES
 
@<TRIPOS>ATOM
       1    C1      19.149964   19.162264   21.063085 C.3        1 MOL1        -0.1689
       2    H1      18.169894   19.650177   20.970189 H          1 MOL1         0.0830
       3    H2      19.679666   19.294199   20.109666 H          1 MOL1         0.0830
       4    C2      18.962489   17.668311   21.406564 C.3        1 MOL1        -0.1689
       5    H3      17.891691   17.432958   21.478858 H          1 MOL1         0.0830
       6    H4      19.395038   17.018736   20.633289 H          1 MOL1         0.0830
       7    C3      19.651149   17.442802   22.769403 C.3        1 MOL1        -0.1765
       8    H5      20.658006   17.035336   22.608683 H          1 MOL1         0.0830
       9    H6      19.100624   16.733429   23.401634 H          1 MOL1         0.0830
      10    C4      19.771961   18.827864   23.419019 C.3        1 MOL1         0.1214
      11    H7      20.627702   18.878574   24.107581 H          1 MOL1         0.0787
      12    C5      19.945938   19.783142   22.230687 C.3        1 MOL1        -0.1765
      13    H8      19.613729   20.803319   22.464952 H          1 MOL1         0.0830
      14    H9      21.010146   19.831134   21.964643 H          1 MOL1         0.0830
      15    O1      18.560425   19.135620   24.093017 O.3        1 MOL1        -0.5512
      16    H10     17.863333   19.065898   23.408645 H          1 MOL1         0.3776
@<TRIPOS>BOND
    1     1     2    1
    2     1     3    1
    3     1     4    1
    4     4     5    1
    5     4     6    1
    6     4     7    1
    7     7     8    1
    8     7     9    1
    9     7    10    1
   10    10    11    1
   11     1    12    1
   12    10    12    1
   13    12    13    1
   14    12    14    1
   15    10    15    1
   16    15    16    1
@<TRIPOS>SUBSTRUCTURE
       1 MOL1            1 RESIDUE      1      MOL     
@<SCITEGIC>MOL_PROPERTY
VConf Rank
SciTegic.value.IntegerValue
249

@<SCITEGIC>MOL_PROPERTY
Conf_Id
SciTegic.value.IntegerValue
20

@<SCITEGIC>MOL_PROPERTY
Delta U+W
SciTegic.value.DoubleValue
-0.483

@<SCITEGIC>MOL_PROPERTY
U+W
SciTegic.value.DoubleValue
2.527

@<SCITEGIC>MOL_PROPERTY
Grad RMS
SciTegic.value.DoubleValue
0.000000

@<SCITEGIC>MOL_PROPERTY
U
SciTegic.value.DoubleValue
4.508

@<SCITEGIC>MOL_PROPERTY
W
SciTegic.value.DoubleValue
-1.981

@<SCITEGIC>MOL_PROPERTY
W(PB)
SciTegic.value.DoubleValue
-3.712

@<SCITEGIC>MOL_PROPERTY
W(SA)
SciTegic.value.DoubleValue
1.732

@<SCITEGIC>MOL_PROPERTY
Valence
SciTegic.value.DoubleValue
14.705

@<SCITEGIC>MOL_PROPERTY
Coulomb
SciTegic.value.DoubleValue
-10.687

@<SCITEGIC>MOL_PROPERTY
VdW
SciTegic.value.DoubleValue
0.490

@<SCITEGIC>MOL_PROPERTY
VdW6
SciTegic.value.DoubleValue
-3.745

@<SCITEGIC>MOL_PROPERTY
VdW12
SciTegic.value.DoubleValue
4.235

@<SCITEGIC>MOL_PROPERTY
Bond
SciTegic.value.DoubleValue
0.068

@<SCITEGIC>MOL_PROPERTY
Angle
SciTegic.value.DoubleValue
3.901

@<SCITEGIC>MOL_PROPERTY
Pdih
SciTegic.value.DoubleValue
10.737

@<SCITEGIC>MOL_PROPERTY
Idih
SciTegic.value.DoubleValue
0.000

@<SCITEGIC>MOL_PROPERTY
Tether
SciTegic.value.DoubleValue
0.000

@<TRIPOS>MOLECULE
guest-4_confgen4.mol2 : confsearch ligand conformer 250
          16          16           1
SMALL
USER_CHARGES
 
@<TRIPOS>ATOM
       1    C1      20.337690   19.613734   22.491015 C.3        1 MOL1        -0.1689
       2    H1      20.102460   20.351387   21.711135 H          1 MOL1         0.0830
       3    H2      21.162502   20.007982   23.100029 H          1 MOL1         0.0830
       4    C2      20.681976   18.267709   21.838781 C.3        1 MOL1        -0.1689
       5    H3      21.283660   18.386625   20.927412 H          1 MOL1         0.0830
       6    H4      21.249771   17.648271   22.546970 H          1 MOL1         0.0830
       7    C3      19.314975   17.617443   21.557678 C.3        1 MOL1        -0.1765
       8    H5      19.378861   16.521967   21.584095 H          1 MOL1         0.0830
       9    H6      18.971932   17.911378   20.556324 H          1 MOL1         0.0830
      10    C4      18.348035   18.155388   22.633467 C.3        1 MOL1         0.1214
      11    H7      18.135117   17.370917   23.374271 H          1 MOL1         0.0787
      12    C5      19.076213   19.325932   23.325867 C.3        1 MOL1        -0.1765
      13    H8      18.440299   20.216555   23.417658 H          1 MOL1         0.0830
      14    H9      19.366973   19.017757   24.338570 H          1 MOL1         0.0830
      15    O1      17.145908   18.615149   22.027332 O.3        1 MOL1        -0.5512
      16    H10     16.733197   17.837340   21.595805 H          1 MOL1         0.3776
@<TRIPOS>BOND
    1     1     2    1
    2     1     3    1
    3     1     4    1
    4     4     5    1
    5     4     6    1
    6     4     7    1
    7     7     8    1
    8     7     9    1
    9     7    10    1
   10    10    11    1
   11     1    12    1
   12    10    12    1
   13    12    13    1
   14    12    14    1
   15    10    15    1
   16    15    16    1
@<TRIPOS>SUBSTRUCTURE
       1 MOL1            1 RESIDUE      1      MOL     
@<SCITEGIC>MOL_PROPERTY
VConf Rank
SciTegic.value.IntegerValue
250

@<SCITEGIC>MOL_PROPERTY
Conf_Id
SciTegic.value.IntegerValue
59

@<SCITEGIC>MOL_PROPERTY
Delta U+W
SciTegic.value.DoubleValue
0.000

@<SCITEGIC>MOL_PROPERTY
U+W
SciTegic.value.DoubleValue
3.010

@<SCITEGIC>MOL_PROPERTY
Grad RMS
SciTegic.value.DoubleValue
0.000000

@<SCITEGIC>MOL_PROPERTY
U
SciTegic.value.DoubleValue
5.843

@<SCITEGIC>MOL_PROPERTY
W
SciTegic.value.DoubleValue
-2.833

@<SCITEGIC>MOL_PROPERTY
W(PB)
SciTegic.value.DoubleValue
-4.568

@<SCITEGIC>MOL_PROPERTY
W(SA)
SciTegic.value.DoubleValue
1.735

@<SCITEGIC>MOL_PROPERTY
Valence
SciTegic.value.DoubleValue
13.789

@<SCITEGIC>MOL_PROPERTY
Coulomb
SciTegic.value.DoubleValue
-8.574

@<SCITEGIC>MOL_PROPERTY
VdW
SciTegic.value.DoubleValue
0.628

@<SCITEGIC>MOL_PROPERTY
VdW6
SciTegic.value.DoubleValue
-3.284

@<SCITEGIC>MOL_PROPERTY
VdW12
SciTegic.value.DoubleValue
3.912

@<SCITEGIC>MOL_PROPERTY
Bond
SciTegic.value.DoubleValue
0.054

@<SCITEGIC>MOL_PROPERTY
Angle
SciTegic.value.DoubleValue
4.034

@<SCITEGIC>MOL_PROPERTY
Pdih
SciTegic.value.DoubleValue
9.702

@<SCITEGIC>MOL_PROPERTY
Idih
SciTegic.value.DoubleValue
0.000

@<SCITEGIC>MOL_PROPERTY
Tether
SciTegic.value.DoubleValue
0.000

@<TRIPOS>MOLECULE
guest-4_confgen4.mol2 : confsearch ligand conformer 251
          16          16           1
SMALL
USER_CHARGES
 
@<TRIPOS>ATOM
       1    C1      19.249497   18.006853   21.006694 C.3        1 MOL1        -0.1689
       2    H1      18.434977   17.578238   20.407024 H          1 MOL1         0.0830
       3    H2      20.143170   18.078271   20.371187 H          1 MOL1         0.0830
       4    C2      19.565836   17.163585   22.249495 C.3        1 MOL1        -0.1689
       5    H3      18.630269   16.792072   22.690372 H          1 MOL1         0.0830
       6    H4      20.204430   16.300006   22.019123 H          1 MOL1         0.0830
       7    C3      20.238764   18.149083   23.222654 C.3        1 MOL1        -0.1765
       8    H5      21.324316   18.144683   23.059424 H          1 MOL1         0.0830
       9    H6      20.057493   17.870925   24.269453 H          1 MOL1         0.0830
      10    C4      19.684905   19.548571   22.884321 C.3        1 MOL1         0.1214
      11    H7      20.522976   20.246581   22.743116 H          1 MOL1         0.0787
      12    C5      18.896029   19.396882   21.566596 C.3        1 MOL1        -0.1765
      13    H8      17.816066   19.446085   21.761638 H          1 MOL1         0.0830
      14    H9      19.146254   20.192286   20.852757 H          1 MOL1         0.0830
      15    O1      18.823624   19.999523   23.922943 O.3        1 MOL1        -0.5512
      16    H10     18.494011   20.882266   23.651561 H          1 MOL1         0.3776
@<TRIPOS>BOND
    1     1     2    1
    2     1     3    1
    3     1     4    1
    4     4     5    1
    5     4     6    1
    6     4     7    1
    7     7     8    1
    8     7     9    1
    9     7    10    1
   10    10    11    1
   11     1    12    1
   12    10    12    1
   13    12    13    1
   14    12    14    1
   15    10    15    1
   16    15    16    1
@<TRIPOS>SUBSTRUCTURE
       1 MOL1            1 RESIDUE      1      MOL     
@<SCITEGIC>MOL_PROPERTY
VConf Rank
SciTegic.value.IntegerValue
251

@<SCITEGIC>MOL_PROPERTY
Conf_Id
SciTegic.value.IntegerValue
33

@<SCITEGIC>MOL_PROPERTY
Delta U+W
SciTegic.value.DoubleValue
0.015

@<SCITEGIC>MOL_PROPERTY
U+W
SciTegic.value.DoubleValue
3.025

@<SCITEGIC>MOL_PROPERTY
Grad RMS
SciTegic.value.DoubleValue
0.000000

@<SCITEGIC>MOL_PROPERTY
U
SciTegic.value.DoubleValue
5.843

@<SCITEGIC>MOL_PROPERTY
W
SciTegic.value.DoubleValue
-2.819

@<SCITEGIC>MOL_PROPERTY
W(PB)
SciTegic.value.DoubleValue
-4.568

@<SCITEGIC>MOL_PROPERTY
W(SA)
SciTegic.value.DoubleValue
1.750

@<SCITEGIC>MOL_PROPERTY
Valence
SciTegic.value.DoubleValue
13.789

@<SCITEGIC>MOL_PROPERTY
Coulomb
SciTegic.value.DoubleValue
-8.574

@<SCITEGIC>MOL_PROPERTY
VdW
SciTegic.value.DoubleValue
0.628

@<SCITEGIC>MOL_PROPERTY
VdW6
SciTegic.value.DoubleValue
-3.284

@<SCITEGIC>MOL_PROPERTY
VdW12
SciTegic.value.DoubleValue
3.913

@<SCITEGIC>MOL_PROPERTY
Bond
SciTegic.value.DoubleValue
0.054

@<SCITEGIC>MOL_PROPERTY
Angle
SciTegic.value.DoubleValue
4.033

@<SCITEGIC>MOL_PROPERTY
Pdih
SciTegic.value.DoubleValue
9.702

@<SCITEGIC>MOL_PROPERTY
Idih
SciTegic.value.DoubleValue
0.000

@<SCITEGIC>MOL_PROPERTY
Tether
SciTegic.value.DoubleValue
0.000

@<TRIPOS>MOLECULE
guest-4_confgen4.mol2 : confsearch ligand conformer 252
          16          16           1
SMALL
USER_CHARGES
 
@<TRIPOS>ATOM
       1    C1      20.226228   18.292021   21.275980 C.3        1 MOL1        -0.1689
       2    H1      20.641043   19.156243   20.739067 H          1 MOL1         0.0830
       3    H2      20.664460   17.385229   20.837027 H          1 MOL1         0.0830
       4    C2      18.686203   18.291696   21.160468 C.3        1 MOL1        -0.1689
       5    H3      18.355761   19.155154   20.566772 H          1 MOL1         0.0830
       6    H4      18.318765   17.384226   20.661983 H          1 MOL1         0.0830
       7    C3      18.139302   18.393892   22.600223 C.3        1 MOL1        -0.1765
       8    H5      17.875342   17.392212   22.964342 H          1 MOL1         0.0830
       9    H6      17.238514   19.019211   22.659906 H          1 MOL1         0.0830
      10    C4      19.288647   18.947327   23.453282 C.3        1 MOL1         0.1214
      11    H7      19.210011   18.619425   24.499838 H          1 MOL1         0.0787
      12    C5      20.552085   18.393160   22.781286 C.3        1 MOL1        -0.1765
      13    H8      21.434378   19.017640   22.975163 H          1 MOL1         0.0830
      14    H9      20.757817   17.391097   23.180244 H          1 MOL1         0.0830
      15    O1      19.295660   20.364745   23.365624 O.3        1 MOL1        -0.5512
      16    H10     19.367535   20.560485   22.408710 H          1 MOL1         0.3776
@<TRIPOS>BOND
    1     1     2    1
    2     1     3    1
    3     1     4    1
    4     4     5    1
    5     4     6    1
    6     4     7    1
    7     7     8    1
    8     7     9    1
    9     7    10    1
   10    10    11    1
   11     1    12    1
   12    10    12    1
   13    12    13    1
   14    12    14    1
   15    10    15    1
   16    15    16    1
@<TRIPOS>SUBSTRUCTURE
       1 MOL1            1 RESIDUE      1      MOL     
@<SCITEGIC>MOL_PROPERTY
VConf Rank
SciTegic.value.IntegerValue
252

@<SCITEGIC>MOL_PROPERTY
Conf_Id
SciTegic.value.IntegerValue
20

@<SCITEGIC>MOL_PROPERTY
Delta U+W
SciTegic.value.DoubleValue
-0.483

@<SCITEGIC>MOL_PROPERTY
U+W
SciTegic.value.DoubleValue
2.527

@<SCITEGIC>MOL_PROPERTY
Grad RMS
SciTegic.value.DoubleValue
0.000000

@<SCITEGIC>MOL_PROPERTY
U
SciTegic.value.DoubleValue
4.508

@<SCITEGIC>MOL_PROPERTY
W
SciTegic.value.DoubleValue
-1.981

@<SCITEGIC>MOL_PROPERTY
W(PB)
SciTegic.value.DoubleValue
-3.712

@<SCITEGIC>MOL_PROPERTY
W(SA)
SciTegic.value.DoubleValue
1.732

@<SCITEGIC>MOL_PROPERTY
Valence
SciTegic.value.DoubleValue
14.705

@<SCITEGIC>MOL_PROPERTY
Coulomb
SciTegic.value.DoubleValue
-10.687

@<SCITEGIC>MOL_PROPERTY
VdW
SciTegic.value.DoubleValue
0.490

@<SCITEGIC>MOL_PROPERTY
VdW6
SciTegic.value.DoubleValue
-3.745

@<SCITEGIC>MOL_PROPERTY
VdW12
SciTegic.value.DoubleValue
4.235

@<SCITEGIC>MOL_PROPERTY
Bond
SciTegic.value.DoubleValue
0.068

@<SCITEGIC>MOL_PROPERTY
Angle
SciTegic.value.DoubleValue
3.901

@<SCITEGIC>MOL_PROPERTY
Pdih
SciTegic.value.DoubleValue
10.737

@<SCITEGIC>MOL_PROPERTY
Idih
SciTegic.value.DoubleValue
0.000

@<SCITEGIC>MOL_PROPERTY
Tether
SciTegic.value.DoubleValue
0.000

@<TRIPOS>MOLECULE
guest-4_confgen4.mol2 : confsearch ligand conformer 253
          16          16           1
SMALL
USER_CHARGES
 
@<TRIPOS>ATOM
       1    C1      20.066267   19.800655   22.555611 C.3        1 MOL1        -0.1689
       2    H1      19.278377   20.543538   22.742778 H          1 MOL1         0.0830
       3    H2      21.040199   20.292211   22.683957 H          1 MOL1         0.0830
       4    C2      19.889979   19.206621   21.151412 C.3        1 MOL1        -0.1689
       5    H3      19.593551   19.962881   20.411844 H          1 MOL1         0.0830
       6    H4      20.835008   18.754030   20.820191 H          1 MOL1         0.0830
       7    C3      18.822395   18.111653   21.329927 C.3        1 MOL1        -0.1765
       8    H5      18.955105   17.299763   20.603243 H          1 MOL1         0.0830
       9    H6      17.826062   18.546508   21.171797 H          1 MOL1         0.0830
      10    C4      18.959668   17.602769   22.780400 C.3        1 MOL1         0.1214
      11    H7      19.426656   16.607082   22.787317 H          1 MOL1         0.0787
      12    C5      19.882455   18.603404   23.506367 C.3        1 MOL1        -0.1765
      13    H8      19.475725   18.916803   24.477126 H          1 MOL1         0.0830
      14    H9      20.853862   18.126191   23.689985 H          1 MOL1         0.0830
      15    O1      17.684611   17.565269   23.410252 O.3        1 MOL1        -0.5512
      16    H10     17.139649   16.926157   22.904204 H          1 MOL1         0.3776
@<TRIPOS>BOND
    1     1     2    1
    2     1     3    1
    3     1     4    1
    4     4     5    1
    5     4     6    1
    6     4     7    1
    7     7     8    1
    8     7     9    1
    9     7    10    1
   10    10    11    1
   11     1    12    1
   12    10    12    1
   13    12    13    1
   14    12    14    1
   15    10    15    1
   16    15    16    1
@<TRIPOS>SUBSTRUCTURE
       1 MOL1            1 RESIDUE      1      MOL     
@<SCITEGIC>MOL_PROPERTY
VConf Rank
SciTegic.value.IntegerValue
253

@<SCITEGIC>MOL_PROPERTY
Conf_Id
SciTegic.value.IntegerValue
59

@<SCITEGIC>MOL_PROPERTY
Delta U+W
SciTegic.value.DoubleValue
0.000

@<SCITEGIC>MOL_PROPERTY
U+W
SciTegic.value.DoubleValue
3.010

@<SCITEGIC>MOL_PROPERTY
Grad RMS
SciTegic.value.DoubleValue
0.000000

@<SCITEGIC>MOL_PROPERTY
U
SciTegic.value.DoubleValue
5.843

@<SCITEGIC>MOL_PROPERTY
W
SciTegic.value.DoubleValue
-2.833

@<SCITEGIC>MOL_PROPERTY
W(PB)
SciTegic.value.DoubleValue
-4.568

@<SCITEGIC>MOL_PROPERTY
W(SA)
SciTegic.value.DoubleValue
1.735

@<SCITEGIC>MOL_PROPERTY
Valence
SciTegic.value.DoubleValue
13.789

@<SCITEGIC>MOL_PROPERTY
Coulomb
SciTegic.value.DoubleValue
-8.574

@<SCITEGIC>MOL_PROPERTY
VdW
SciTegic.value.DoubleValue
0.628

@<SCITEGIC>MOL_PROPERTY
VdW6
SciTegic.value.DoubleValue
-3.284

@<SCITEGIC>MOL_PROPERTY
VdW12
SciTegic.value.DoubleValue
3.912

@<SCITEGIC>MOL_PROPERTY
Bond
SciTegic.value.DoubleValue
0.054

@<SCITEGIC>MOL_PROPERTY
Angle
SciTegic.value.DoubleValue
4.034

@<SCITEGIC>MOL_PROPERTY
Pdih
SciTegic.value.DoubleValue
9.702

@<SCITEGIC>MOL_PROPERTY
Idih
SciTegic.value.DoubleValue
0.000

@<SCITEGIC>MOL_PROPERTY
Tether
SciTegic.value.DoubleValue
0.000

@<TRIPOS>MOLECULE
guest-4_confgen4.mol2 : confsearch ligand conformer 254
          16          16           1
SMALL
USER_CHARGES
 
@<TRIPOS>ATOM
       1    C1      18.336157   18.505921   23.189091 C.3        1 MOL1        -0.1689
       2    H1      17.240385   18.438363   23.150636 H          1 MOL1         0.0830
       3    H2      18.654921   18.332043   24.226287 H          1 MOL1         0.0830
       4    C2      18.854285   19.869420   22.711450 C.3        1 MOL1        -0.1689
       5    H3      18.264419   20.205389   21.847238 H          1 MOL1         0.0830
       6    H4      18.790229   20.639512   23.492154 H          1 MOL1         0.0830
       7    C3      20.304728   19.597800   22.271547 C.3        1 MOL1        -0.1765
       8    H5      20.981657   19.744692   23.123177 H          1 MOL1         0.0830
       9    H6      20.619882   20.282315   21.472713 H          1 MOL1         0.0830
      10    C4      20.361801   18.119977   21.832708 C.3        1 MOL1         0.1214
      11    H7      21.193238   17.619255   22.349920 H          1 MOL1         0.0787
      12    C5      19.018985   17.488507   22.256768 C.3        1 MOL1        -0.1765
      13    H8      18.383556   17.318545   21.376925 H          1 MOL1         0.0830
      14    H9      19.167440   16.522807   22.757000 H          1 MOL1         0.0830
      15    O1      20.521246   18.033074   20.421707 O.3        1 MOL1        -0.5512
      16    H10     20.539687   17.078292   20.199038 H          1 MOL1         0.3776
@<TRIPOS>BOND
    1     1     2    1
    2     1     3    1
    3     1     4    1
    4     4     5    1
    5     4     6    1
    6     4     7    1
    7     7     8    1
    8     7     9    1
    9     7    10    1
   10    10    11    1
   11     1    12    1
   12    10    12    1
   13    12    13    1
   14    12    14    1
   15    10    15    1
   16    15    16    1
@<TRIPOS>SUBSTRUCTURE
       1 MOL1            1 RESIDUE      1      MOL     
@<SCITEGIC>MOL_PROPERTY
VConf Rank
SciTegic.value.IntegerValue
254

@<SCITEGIC>MOL_PROPERTY
Conf_Id
SciTegic.value.IntegerValue
33

@<SCITEGIC>MOL_PROPERTY
Delta U+W
SciTegic.value.DoubleValue
0.015

@<SCITEGIC>MOL_PROPERTY
U+W
SciTegic.value.DoubleValue
3.025

@<SCITEGIC>MOL_PROPERTY
Grad RMS
SciTegic.value.DoubleValue
0.000000

@<SCITEGIC>MOL_PROPERTY
U
SciTegic.value.DoubleValue
5.843

@<SCITEGIC>MOL_PROPERTY
W
SciTegic.value.DoubleValue
-2.819

@<SCITEGIC>MOL_PROPERTY
W(PB)
SciTegic.value.DoubleValue
-4.568

@<SCITEGIC>MOL_PROPERTY
W(SA)
SciTegic.value.DoubleValue
1.750

@<SCITEGIC>MOL_PROPERTY
Valence
SciTegic.value.DoubleValue
13.789

@<SCITEGIC>MOL_PROPERTY
Coulomb
SciTegic.value.DoubleValue
-8.574

@<SCITEGIC>MOL_PROPERTY
VdW
SciTegic.value.DoubleValue
0.628

@<SCITEGIC>MOL_PROPERTY
VdW6
SciTegic.value.DoubleValue
-3.284

@<SCITEGIC>MOL_PROPERTY
VdW12
SciTegic.value.DoubleValue
3.913

@<SCITEGIC>MOL_PROPERTY
Bond
SciTegic.value.DoubleValue
0.054

@<SCITEGIC>MOL_PROPERTY
Angle
SciTegic.value.DoubleValue
4.033

@<SCITEGIC>MOL_PROPERTY
Pdih
SciTegic.value.DoubleValue
9.702

@<SCITEGIC>MOL_PROPERTY
Idih
SciTegic.value.DoubleValue
0.000

@<SCITEGIC>MOL_PROPERTY
Tether
SciTegic.value.DoubleValue
0.000

@<TRIPOS>MOLECULE
guest-4_confgen4.mol2 : confsearch ligand conformer 255
          16          16           1
SMALL
USER_CHARGES
 
@<TRIPOS>ATOM
       1    C1      20.501928   18.047949   21.804138 C.3        1 MOL1        -0.1689
       2    H1      21.134146   17.605551   22.586322 H          1 MOL1         0.0830
       3    H2      20.995636   17.873601   20.838295 H          1 MOL1         0.0830
       4    C2      20.305472   19.555147   22.077599 C.3        1 MOL1        -0.1689
       5    H3      20.843469   19.842404   22.991529 H          1 MOL1         0.0830
       6    H4      20.695511   20.169202   21.254310 H          1 MOL1         0.0830
       7    C3      18.788425   19.772520   22.261322 C.3        1 MOL1        -0.1765
       8    H5      18.352064   20.128672   21.318791 H          1 MOL1         0.0830
       9    H6      18.565613   20.518682   23.035662 H          1 MOL1         0.0830
      10    C4      18.198895   18.395375   22.594368 C.3        1 MOL1         0.1214
      11    H7      17.149519   18.316635   22.275634 H          1 MOL1         0.0787
      12    C5      19.096095   17.411368   21.831662 C.3        1 MOL1        -0.1765
      13    H8      19.100271   16.412580   22.288181 H          1 MOL1         0.0830
      14    H9      18.720021   17.308004   20.805258 H          1 MOL1         0.0830
      15    O1      18.323992   18.157904   23.988916 O.3        1 MOL1        -0.5512
      16    H10     19.280700   18.248168   24.177927 H          1 MOL1         0.3776
@<TRIPOS>BOND
    1     1     2    1
    2     1     3    1
    3     1     4    1
    4     4     5    1
    5     4     6    1
    6     4     7    1
    7     7     8    1
    8     7     9    1
    9     7    10    1
   10    10    11    1
   11     1    12    1
   12    10    12    1
   13    12    13    1
   14    12    14    1
   15    10    15    1
   16    15    16    1
@<TRIPOS>SUBSTRUCTURE
       1 MOL1            1 RESIDUE      1      MOL     
@<SCITEGIC>MOL_PROPERTY
VConf Rank
SciTegic.value.IntegerValue
255

@<SCITEGIC>MOL_PROPERTY
Conf_Id
SciTegic.value.IntegerValue
20

@<SCITEGIC>MOL_PROPERTY
Delta U+W
SciTegic.value.DoubleValue
-0.483

@<SCITEGIC>MOL_PROPERTY
U+W
SciTegic.value.DoubleValue
2.527

@<SCITEGIC>MOL_PROPERTY
Grad RMS
SciTegic.value.DoubleValue
0.000000

@<SCITEGIC>MOL_PROPERTY
U
SciTegic.value.DoubleValue
4.508

@<SCITEGIC>MOL_PROPERTY
W
SciTegic.value.DoubleValue
-1.981

@<SCITEGIC>MOL_PROPERTY
W(PB)
SciTegic.value.DoubleValue
-3.712

@<SCITEGIC>MOL_PROPERTY
W(SA)
SciTegic.value.DoubleValue
1.732

@<SCITEGIC>MOL_PROPERTY
Valence
SciTegic.value.DoubleValue
14.705

@<SCITEGIC>MOL_PROPERTY
Coulomb
SciTegic.value.DoubleValue
-10.687

@<SCITEGIC>MOL_PROPERTY
VdW
SciTegic.value.DoubleValue
0.490

@<SCITEGIC>MOL_PROPERTY
VdW6
SciTegic.value.DoubleValue
-3.745

@<SCITEGIC>MOL_PROPERTY
VdW12
SciTegic.value.DoubleValue
4.235

@<SCITEGIC>MOL_PROPERTY
Bond
SciTegic.value.DoubleValue
0.068

@<SCITEGIC>MOL_PROPERTY
Angle
SciTegic.value.DoubleValue
3.901

@<SCITEGIC>MOL_PROPERTY
Pdih
SciTegic.value.DoubleValue
10.737

@<SCITEGIC>MOL_PROPERTY
Idih
SciTegic.value.DoubleValue
0.000

@<SCITEGIC>MOL_PROPERTY
Tether
SciTegic.value.DoubleValue
0.000

@<TRIPOS>MOLECULE
guest-4_confgen4.mol2 : confsearch ligand conformer 256
          16          16           1
SMALL
USER_CHARGES
 
@<TRIPOS>ATOM
       1    C1      18.151567   17.899364   22.793030 C.3        1 MOL1        -0.1689
       2    H1      18.493712   17.213912   23.580919 H          1 MOL1         0.0830
       3    H2      17.055804   17.843273   22.740106 H          1 MOL1         0.0830
       4    C2      18.822365   17.529883   21.462902 C.3        1 MOL1        -0.1689
       5    H3      18.895757   16.443237   21.319466 H          1 MOL1         0.0830
       6    H4      18.243139   17.948318   20.628016 H          1 MOL1         0.0830
       7    C3      20.203681   18.206710   21.529458 C.3        1 MOL1        -0.1765
       8    H5      20.569896   18.470193   20.528804 H          1 MOL1         0.0830
       9    H6      20.926318   17.513780   21.981595 H          1 MOL1         0.0830
      10    C4      20.033143   19.456647   22.418420 C.3        1 MOL1         0.1214
      11    H7      20.047422   20.364568   21.797941 H          1 MOL1         0.0787
      12    C5      18.653175   19.323553   23.095035 C.3        1 MOL1        -0.1765
      13    H8      18.698379   19.515638   24.175350 H          1 MOL1         0.0830
      14    H9      17.966070   20.057428   22.654130 H          1 MOL1         0.0830
      15    O1      21.059585   19.503042   23.402368 O.3        1 MOL1        -0.5512
      16    H10     21.909551   19.575988   22.918871 H          1 MOL1         0.3776
@<TRIPOS>BOND
    1     1     2    1
    2     1     3    1
    3     1     4    1
    4     4     5    1
    5     4     6    1
    6     4     7    1
    7     7     8    1
    8     7     9    1
    9     7    10    1
   10    10    11    1
   11     1    12    1
   12    10    12    1
   13    12    13    1
   14    12    14    1
   15    10    15    1
   16    15    16    1
@<TRIPOS>SUBSTRUCTURE
       1 MOL1            1 RESIDUE      1      MOL     
@<SCITEGIC>MOL_PROPERTY
VConf Rank
SciTegic.value.IntegerValue
256

@<SCITEGIC>MOL_PROPERTY
Conf_Id
SciTegic.value.IntegerValue
59

@<SCITEGIC>MOL_PROPERTY
Delta U+W
SciTegic.value.DoubleValue
0.000

@<SCITEGIC>MOL_PROPERTY
U+W
SciTegic.value.DoubleValue
3.010

@<SCITEGIC>MOL_PROPERTY
Grad RMS
SciTegic.value.DoubleValue
0.000000

@<SCITEGIC>MOL_PROPERTY
U
SciTegic.value.DoubleValue
5.843

@<SCITEGIC>MOL_PROPERTY
W
SciTegic.value.DoubleValue
-2.833

@<SCITEGIC>MOL_PROPERTY
W(PB)
SciTegic.value.DoubleValue
-4.568

@<SCITEGIC>MOL_PROPERTY
W(SA)
SciTegic.value.DoubleValue
1.735

@<SCITEGIC>MOL_PROPERTY
Valence
SciTegic.value.DoubleValue
13.789

@<SCITEGIC>MOL_PROPERTY
Coulomb
SciTegic.value.DoubleValue
-8.574

@<SCITEGIC>MOL_PROPERTY
VdW
SciTegic.value.DoubleValue
0.628

@<SCITEGIC>MOL_PROPERTY
VdW6
SciTegic.value.DoubleValue
-3.284

@<SCITEGIC>MOL_PROPERTY
VdW12
SciTegic.value.DoubleValue
3.912

@<SCITEGIC>MOL_PROPERTY
Bond
SciTegic.value.DoubleValue
0.054

@<SCITEGIC>MOL_PROPERTY
Angle
SciTegic.value.DoubleValue
4.034

@<SCITEGIC>MOL_PROPERTY
Pdih
SciTegic.value.DoubleValue
9.702

@<SCITEGIC>MOL_PROPERTY
Idih
SciTegic.value.DoubleValue
0.000

@<SCITEGIC>MOL_PROPERTY
Tether
SciTegic.value.DoubleValue
0.000

@<TRIPOS>MOLECULE
guest-4_confgen4.mol2 : confsearch ligand conformer 257
          16          16           1
SMALL
USER_CHARGES
 
@<TRIPOS>ATOM
       1    C1      20.428099   18.896922   23.305718 C.3        1 MOL1        -0.1689
       2    H1      21.224257   19.624551   23.514156 H          1 MOL1         0.0830
       3    H2      20.285592   18.277365   24.202079 H          1 MOL1         0.0830
       4    C2      20.756937   17.999506   22.104786 C.3        1 MOL1        -0.1689
       5    H3      21.241158   18.597276   21.320006 H          1 MOL1         0.0830
       6    H4      21.428625   17.172046   22.370845 H          1 MOL1         0.0830
       7    C3      19.386261   17.506461   21.605558 C.3        1 MOL1        -0.1765
       8    H5      19.124271   16.569434   22.113914 H          1 MOL1         0.0830
       9    H6      19.396629   17.308599   20.525390 H          1 MOL1         0.0830
      10    C4      18.360818   18.592190   21.992155 C.3        1 MOL1         0.1214
      11    H7      17.521087   18.124872   22.526929 H          1 MOL1         0.0787
      12    C5      19.099452   19.575273   22.924735 C.3        1 MOL1        -0.1765
      13    H8      19.309837   20.515466   22.396950 H          1 MOL1         0.0830
      14    H9      18.501748   19.814238   23.813831 H          1 MOL1         0.0830
      15    O1      17.901963   19.270091   20.828626 O.3        1 MOL1        -0.5512
      16    H10     17.265884   19.951621   21.132682 H          1 MOL1         0.3776
@<TRIPOS>BOND
    1     1     2    1
    2     1     3    1
    3     1     4    1
    4     4     5    1
    5     4     6    1
    6     4     7    1
    7     7     8    1
    8     7     9    1
    9     7    10    1
   10    10    11    1
   11     1    12    1
   12    10    12    1
   13    12    13    1
   14    12    14    1
   15    10    15    1
   16    15    16    1
@<TRIPOS>SUBSTRUCTURE
       1 MOL1            1 RESIDUE      1      MOL     
@<SCITEGIC>MOL_PROPERTY
VConf Rank
SciTegic.value.IntegerValue
257

@<SCITEGIC>MOL_PROPERTY
Conf_Id
SciTegic.value.IntegerValue
33

@<SCITEGIC>MOL_PROPERTY
Delta U+W
SciTegic.value.DoubleValue
0.015

@<SCITEGIC>MOL_PROPERTY
U+W
SciTegic.value.DoubleValue
3.025

@<SCITEGIC>MOL_PROPERTY
Grad RMS
SciTegic.value.DoubleValue
0.000000

@<SCITEGIC>MOL_PROPERTY
U
SciTegic.value.DoubleValue
5.843

@<SCITEGIC>MOL_PROPERTY
W
SciTegic.value.DoubleValue
-2.819

@<SCITEGIC>MOL_PROPERTY
W(PB)
SciTegic.value.DoubleValue
-4.568

@<SCITEGIC>MOL_PROPERTY
W(SA)
SciTegic.value.DoubleValue
1.750

@<SCITEGIC>MOL_PROPERTY
Valence
SciTegic.value.DoubleValue
13.789

@<SCITEGIC>MOL_PROPERTY
Coulomb
SciTegic.value.DoubleValue
-8.574

@<SCITEGIC>MOL_PROPERTY
VdW
SciTegic.value.DoubleValue
0.628

@<SCITEGIC>MOL_PROPERTY
VdW6
SciTegic.value.DoubleValue
-3.284

@<SCITEGIC>MOL_PROPERTY
VdW12
SciTegic.value.DoubleValue
3.913

@<SCITEGIC>MOL_PROPERTY
Bond
SciTegic.value.DoubleValue
0.054

@<SCITEGIC>MOL_PROPERTY
Angle
SciTegic.value.DoubleValue
4.033

@<SCITEGIC>MOL_PROPERTY
Pdih
SciTegic.value.DoubleValue
9.702

@<SCITEGIC>MOL_PROPERTY
Idih
SciTegic.value.DoubleValue
0.000

@<SCITEGIC>MOL_PROPERTY
Tether
SciTegic.value.DoubleValue
0.000

@<TRIPOS>MOLECULE
guest-4_confgen4.mol2 : confsearch ligand conformer 258
          16          16           1
SMALL
USER_CHARGES
 
@<TRIPOS>ATOM
       1    C1      19.490716   17.854051   21.162453 C.3        1 MOL1        -0.1689
       2    H1      18.605352   17.866112   20.511906 H          1 MOL1         0.0830
       3    H2      20.243512   17.209043   20.688893 H          1 MOL1         0.0830
       4    C2      19.104041   17.339371   22.566236 C.3        1 MOL1        -0.1689
       5    H3      18.031775   17.101343   22.594773 H          1 MOL1         0.0830
       6    H4      19.655337   16.425667   22.827421 H          1 MOL1         0.0830
       7    C3      19.423156   18.481413   23.554337 C.3        1 MOL1        -0.1765
       8    H5      20.402132   18.302342   24.018191 H          1 MOL1         0.0830
       9    H6      18.680214   18.554743   24.359734 H          1 MOL1         0.0830
      10    C4      19.497155   19.762922   22.713355 C.3        1 MOL1         0.1214
      11    H7      20.162976   20.509017   23.170529 H          1 MOL1         0.0787
      12    C5      20.030118   19.287324   21.355153 C.3        1 MOL1        -0.1765
      13    H8      19.736140   19.956441   20.535480 H          1 MOL1         0.0830
      14    H9      21.127314   19.264684   21.390781 H          1 MOL1         0.0830
      15    O1      18.188391   20.287725   22.544457 O.3        1 MOL1        -0.5512
      16    H10     17.673425   19.561564   22.136215 H          1 MOL1         0.3776
@<TRIPOS>BOND
    1     1     2    1
    2     1     3    1
    3     1     4    1
    4     4     5    1
    5     4     6    1
    6     4     7    1
    7     7     8    1
    8     7     9    1
    9     7    10    1
   10    10    11    1
   11     1    12    1
   12    10    12    1
   13    12    13    1
   14    12    14    1
   15    10    15    1
   16    15    16    1
@<TRIPOS>SUBSTRUCTURE
       1 MOL1            1 RESIDUE      1      MOL     
@<SCITEGIC>MOL_PROPERTY
VConf Rank
SciTegic.value.IntegerValue
258

@<SCITEGIC>MOL_PROPERTY
Conf_Id
SciTegic.value.IntegerValue
20

@<SCITEGIC>MOL_PROPERTY
Delta U+W
SciTegic.value.DoubleValue
-0.483

@<SCITEGIC>MOL_PROPERTY
U+W
SciTegic.value.DoubleValue
2.527

@<SCITEGIC>MOL_PROPERTY
Grad RMS
SciTegic.value.DoubleValue
0.000000

@<SCITEGIC>MOL_PROPERTY
U
SciTegic.value.DoubleValue
4.508

@<SCITEGIC>MOL_PROPERTY
W
SciTegic.value.DoubleValue
-1.981

@<SCITEGIC>MOL_PROPERTY
W(PB)
SciTegic.value.DoubleValue
-3.712

@<SCITEGIC>MOL_PROPERTY
W(SA)
SciTegic.value.DoubleValue
1.732

@<SCITEGIC>MOL_PROPERTY
Valence
SciTegic.value.DoubleValue
14.705

@<SCITEGIC>MOL_PROPERTY
Coulomb
SciTegic.value.DoubleValue
-10.687

@<SCITEGIC>MOL_PROPERTY
VdW
SciTegic.value.DoubleValue
0.490

@<SCITEGIC>MOL_PROPERTY
VdW6
SciTegic.value.DoubleValue
-3.745

@<SCITEGIC>MOL_PROPERTY
VdW12
SciTegic.value.DoubleValue
4.235

@<SCITEGIC>MOL_PROPERTY
Bond
SciTegic.value.DoubleValue
0.068

@<SCITEGIC>MOL_PROPERTY
Angle
SciTegic.value.DoubleValue
3.901

@<SCITEGIC>MOL_PROPERTY
Pdih
SciTegic.value.DoubleValue
10.737

@<SCITEGIC>MOL_PROPERTY
Idih
SciTegic.value.DoubleValue
0.000

@<SCITEGIC>MOL_PROPERTY
Tether
SciTegic.value.DoubleValue
0.000

@<TRIPOS>MOLECULE
guest-4_confgen4.mol2 : confsearch ligand conformer 259
          16          16           1
SMALL
USER_CHARGES
 
@<TRIPOS>ATOM
       1    C1      20.100812   19.080149   23.447887 C.3        1 MOL1        -0.1689
       2    H1      20.721675   19.885830   23.031854 H          1 MOL1         0.0830
       3    H2      20.258125   19.050727   24.534640 H          1 MOL1         0.0830
       4    C2      20.458582   17.751631   22.767617 C.3        1 MOL1        -0.1689
       5    H3      21.538775   17.646764   22.597485 H          1 MOL1         0.0830
       6    H4      20.126758   16.913421   23.396046 H          1 MOL1         0.0830
       7    C3      19.657110   17.766318   21.453089 C.3        1 MOL1        -0.1765
       8    H5      19.400016   16.749708   21.128661 H          1 MOL1         0.0830
       9    H6      20.263743   18.229382   20.662929 H          1 MOL1         0.0830
      10    C4      18.394666   18.611972   21.722875 C.3        1 MOL1         0.1214
      11    H7      17.513647   17.958431   21.801673 H          1 MOL1         0.0787
      12    C5      18.626446   19.319833   23.073817 C.3        1 MOL1        -0.1765
      13    H8      18.389790   20.391282   23.028979 H          1 MOL1         0.0830
      14    H9      17.975412   18.865795   23.832161 H          1 MOL1         0.0830
      15    O1      18.217613   19.573323   20.689267 O.3        1 MOL1        -0.5512
      16    H10     18.086397   19.070969   19.857429 H          1 MOL1         0.3776
@<TRIPOS>BOND
    1     1     2    1
    2     1     3    1
    3     1     4    1
    4     4     5    1
    5     4     6    1
    6     4     7    1
    7     7     8    1
    8     7     9    1
    9     7    10    1
   10    10    11    1
   11     1    12    1
   12    10    12    1
   13    12    13    1
   14    12    14    1
   15    10    15    1
   16    15    16    1
@<TRIPOS>SUBSTRUCTURE
       1 MOL1            1 RESIDUE      1      MOL     
@<SCITEGIC>MOL_PROPERTY
VConf Rank
SciTegic.value.IntegerValue
259

@<SCITEGIC>MOL_PROPERTY
Conf_Id
SciTegic.value.IntegerValue
59

@<SCITEGIC>MOL_PROPERTY
Delta U+W
SciTegic.value.DoubleValue
0.000

@<SCITEGIC>MOL_PROPERTY
U+W
SciTegic.value.DoubleValue
3.010

@<SCITEGIC>MOL_PROPERTY
Grad RMS
SciTegic.value.DoubleValue
0.000000

@<SCITEGIC>MOL_PROPERTY
U
SciTegic.value.DoubleValue
5.843

@<SCITEGIC>MOL_PROPERTY
W
SciTegic.value.DoubleValue
-2.833

@<SCITEGIC>MOL_PROPERTY
W(PB)
SciTegic.value.DoubleValue
-4.568

@<SCITEGIC>MOL_PROPERTY
W(SA)
SciTegic.value.DoubleValue
1.735

@<SCITEGIC>MOL_PROPERTY
Valence
SciTegic.value.DoubleValue
13.789

@<SCITEGIC>MOL_PROPERTY
Coulomb
SciTegic.value.DoubleValue
-8.574

@<SCITEGIC>MOL_PROPERTY
VdW
SciTegic.value.DoubleValue
0.628

@<SCITEGIC>MOL_PROPERTY
VdW6
SciTegic.value.DoubleValue
-3.284

@<SCITEGIC>MOL_PROPERTY
VdW12
SciTegic.value.DoubleValue
3.912

@<SCITEGIC>MOL_PROPERTY
Bond
SciTegic.value.DoubleValue
0.054

@<SCITEGIC>MOL_PROPERTY
Angle
SciTegic.value.DoubleValue
4.034

@<SCITEGIC>MOL_PROPERTY
Pdih
SciTegic.value.DoubleValue
9.702

@<SCITEGIC>MOL_PROPERTY
Idih
SciTegic.value.DoubleValue
0.000

@<SCITEGIC>MOL_PROPERTY
Tether
SciTegic.value.DoubleValue
0.000

@<TRIPOS>MOLECULE
guest-4_confgen4.mol2 : confsearch ligand conformer 260
          16          16           1
SMALL
USER_CHARGES
 
@<TRIPOS>ATOM
       1    C1      18.203378   18.504542   22.992256 C.3        1 MOL1        -0.1689
       2    H1      17.142829   18.313647   22.778823 H          1 MOL1         0.0830
       3    H2      18.339736   18.504980   24.082682 H          1 MOL1         0.0830
       4    C2      18.684585   19.841184   22.411261 C.3        1 MOL1        -0.1689
       5    H3      18.237397   19.993798   21.419086 H          1 MOL1         0.0830
       6    H4      18.414183   20.696101   23.045802 H          1 MOL1         0.0830
       7    C3      20.208668   19.673294   22.269632 C.3        1 MOL1        -0.1765
       8    H5      20.703087   20.004225   23.192193 H          1 MOL1         0.0830
       9    H6      20.606773   20.276442   21.442743 H          1 MOL1         0.0830
      10    C4      20.468624   18.165508   22.072650 C.3        1 MOL1         0.1214
      11    H7      21.229882   17.831010   22.792452 H          1 MOL1         0.0787
      12    C5      19.128336   17.453258   22.352049 C.3        1 MOL1        -0.1765
      13    H8      18.681672   17.100385   21.412499 H          1 MOL1         0.0830
      14    H9      19.262623   16.584073   23.008806 H          1 MOL1         0.0830
      15    O1      20.891056   17.910785   20.738272 O.3        1 MOL1        -0.5512
      16    H10     21.029783   16.942681   20.667153 H          1 MOL1         0.3776
@<TRIPOS>BOND
    1     1     2    1
    2     1     3    1
    3     1     4    1
    4     4     5    1
    5     4     6    1
    6     4     7    1
    7     7     8    1
    8     7     9    1
    9     7    10    1
   10    10    11    1
   11     1    12    1
   12    10    12    1
   13    12    13    1
   14    12    14    1
   15    10    15    1
   16    15    16    1
@<TRIPOS>SUBSTRUCTURE
       1 MOL1            1 RESIDUE      1      MOL     
@<SCITEGIC>MOL_PROPERTY
VConf Rank
SciTegic.value.IntegerValue
260

@<SCITEGIC>MOL_PROPERTY
Conf_Id
SciTegic.value.IntegerValue
33

@<SCITEGIC>MOL_PROPERTY
Delta U+W
SciTegic.value.DoubleValue
0.015

@<SCITEGIC>MOL_PROPERTY
U+W
SciTegic.value.DoubleValue
3.025

@<SCITEGIC>MOL_PROPERTY
Grad RMS
SciTegic.value.DoubleValue
0.000000

@<SCITEGIC>MOL_PROPERTY
U
SciTegic.value.DoubleValue
5.843

@<SCITEGIC>MOL_PROPERTY
W
SciTegic.value.DoubleValue
-2.819

@<SCITEGIC>MOL_PROPERTY
W(PB)
SciTegic.value.DoubleValue
-4.568

@<SCITEGIC>MOL_PROPERTY
W(SA)
SciTegic.value.DoubleValue
1.750

@<SCITEGIC>MOL_PROPERTY
Valence
SciTegic.value.DoubleValue
13.789

@<SCITEGIC>MOL_PROPERTY
Coulomb
SciTegic.value.DoubleValue
-8.574

@<SCITEGIC>MOL_PROPERTY
VdW
SciTegic.value.DoubleValue
0.628

@<SCITEGIC>MOL_PROPERTY
VdW6
SciTegic.value.DoubleValue
-3.284

@<SCITEGIC>MOL_PROPERTY
VdW12
SciTegic.value.DoubleValue
3.913

@<SCITEGIC>MOL_PROPERTY
Bond
SciTegic.value.DoubleValue
0.054

@<SCITEGIC>MOL_PROPERTY
Angle
SciTegic.value.DoubleValue
4.033

@<SCITEGIC>MOL_PROPERTY
Pdih
SciTegic.value.DoubleValue
9.702

@<SCITEGIC>MOL_PROPERTY
Idih
SciTegic.value.DoubleValue
0.000

@<SCITEGIC>MOL_PROPERTY
Tether
SciTegic.value.DoubleValue
0.000

@<TRIPOS>MOLECULE
guest-4_confgen4.mol2 : confsearch ligand conformer 261
          16          16           1
SMALL
USER_CHARGES
 
@<TRIPOS>ATOM
       1    C1      19.410479   17.422944   22.869881 C.3        1 MOL1        -0.1689
       2    H1      18.638948   17.290461   23.640864 H          1 MOL1         0.0830
       3    H2      19.993013   16.492910   22.818030 H          1 MOL1         0.0830
       4    C2      20.302874   18.633076   23.222347 C.3        1 MOL1        -0.1689
       5    H3      19.963904   19.085611   24.164439 H          1 MOL1         0.0830
       6    H4      21.352433   18.336216   23.353876 H          1 MOL1         0.0830
       7    C3      20.152420   19.640369   22.062535 C.3        1 MOL1        -0.1765
       8    H5      20.992766   19.525184   21.365274 H          1 MOL1         0.0830
       9    H6      20.149234   20.681151   22.412916 H          1 MOL1         0.0830
      10    C4      18.851002   19.266122   21.340564 C.3        1 MOL1         0.1214
      11    H7      18.879435   19.554360   20.279860 H          1 MOL1         0.0787
      12    C5      18.755244   17.743896   21.509729 C.3        1 MOL1        -0.1765
      13    H8      17.719658   17.383160   21.451109 H          1 MOL1         0.0830
      14    H9      19.323899   17.259273   20.705120 H          1 MOL1         0.0830
      15    O1      17.755290   19.880187   22.003244 O.3        1 MOL1        -0.5512
      16    H10     17.811154   19.568844   22.930125 H          1 MOL1         0.3776
@<TRIPOS>BOND
    1     1     2    1
    2     1     3    1
    3     1     4    1
    4     4     5    1
    5     4     6    1
    6     4     7    1
    7     7     8    1
    8     7     9    1
    9     7    10    1
   10    10    11    1
   11     1    12    1
   12    10    12    1
   13    12    13    1
   14    12    14    1
   15    10    15    1
   16    15    16    1
@<TRIPOS>SUBSTRUCTURE
       1 MOL1            1 RESIDUE      1      MOL     
@<SCITEGIC>MOL_PROPERTY
VConf Rank
SciTegic.value.IntegerValue
261

@<SCITEGIC>MOL_PROPERTY
Conf_Id
SciTegic.value.IntegerValue
20

@<SCITEGIC>MOL_PROPERTY
Delta U+W
SciTegic.value.DoubleValue
-0.483

@<SCITEGIC>MOL_PROPERTY
U+W
SciTegic.value.DoubleValue
2.527

@<SCITEGIC>MOL_PROPERTY
Grad RMS
SciTegic.value.DoubleValue
0.000000

@<SCITEGIC>MOL_PROPERTY
U
SciTegic.value.DoubleValue
4.508

@<SCITEGIC>MOL_PROPERTY
W
SciTegic.value.DoubleValue
-1.981

@<SCITEGIC>MOL_PROPERTY
W(PB)
SciTegic.value.DoubleValue
-3.712

@<SCITEGIC>MOL_PROPERTY
W(SA)
SciTegic.value.DoubleValue
1.732

@<SCITEGIC>MOL_PROPERTY
Valence
SciTegic.value.DoubleValue
14.705

@<SCITEGIC>MOL_PROPERTY
Coulomb
SciTegic.value.DoubleValue
-10.687

@<SCITEGIC>MOL_PROPERTY
VdW
SciTegic.value.DoubleValue
0.490

@<SCITEGIC>MOL_PROPERTY
VdW6
SciTegic.value.DoubleValue
-3.745

@<SCITEGIC>MOL_PROPERTY
VdW12
SciTegic.value.DoubleValue
4.235

@<SCITEGIC>MOL_PROPERTY
Bond
SciTegic.value.DoubleValue
0.068

@<SCITEGIC>MOL_PROPERTY
Angle
SciTegic.value.DoubleValue
3.901

@<SCITEGIC>MOL_PROPERTY
Pdih
SciTegic.value.DoubleValue
10.737

@<SCITEGIC>MOL_PROPERTY
Idih
SciTegic.value.DoubleValue
0.000

@<SCITEGIC>MOL_PROPERTY
Tether
SciTegic.value.DoubleValue
0.000

@<TRIPOS>MOLECULE
guest-4_confgen4.mol2 : confsearch ligand conformer 262
          16          16           1
SMALL
USER_CHARGES
 
@<TRIPOS>ATOM
       1    C1      20.650554   18.202992   22.879833 C.3        1 MOL1        -0.1689
       2    H1      20.869033   17.199606   22.488475 H          1 MOL1         0.0830
       3    H2      21.511196   18.534552   23.476498 H          1 MOL1         0.0830
       4    C2      19.351207   18.165083   23.695913 C.3        1 MOL1        -0.1689
       5    H3      19.266288   17.254495   24.304500 H          1 MOL1         0.0830
       6    H4      19.311869   19.032996   24.368820 H          1 MOL1         0.0830
       7    C3      18.233737   18.271860   22.642151 C.3        1 MOL1        -0.1765
       8    H5      17.339486   18.757529   23.053596 H          1 MOL1         0.0830
       9    H6      17.948416   17.263764   22.311818 H          1 MOL1         0.0830
      10    C4      18.823189   19.074142   21.462927 C.3        1 MOL1         0.1214
      11    H7      18.401367   20.089735   21.450480 H          1 MOL1         0.0787
      12    C5      20.343587   19.156904   21.710665 C.3        1 MOL1        -0.1765
      13    H8      20.926278   18.900289   20.815879 H          1 MOL1         0.0830
      14    H9      20.604451   20.184522   21.995327 H          1 MOL1         0.0830
      15    O1      18.561894   18.405324   20.234799 O.3        1 MOL1        -0.5512
      16    H10     17.587015   18.371742   20.134730 H          1 MOL1         0.3776
@<TRIPOS>BOND
    1     1     2    1
    2     1     3    1
    3     1     4    1
    4     4     5    1
    5     4     6    1
    6     4     7    1
    7     7     8    1
    8     7     9    1
    9     7    10    1
   10    10    11    1
   11     1    12    1
   12    10    12    1
   13    12    13    1
   14    12    14    1
   15    10    15    1
   16    15    16    1
@<TRIPOS>SUBSTRUCTURE
       1 MOL1            1 RESIDUE      1      MOL     
@<SCITEGIC>MOL_PROPERTY
VConf Rank
SciTegic.value.IntegerValue
262

@<SCITEGIC>MOL_PROPERTY
Conf_Id
SciTegic.value.IntegerValue
59

@<SCITEGIC>MOL_PROPERTY
Delta U+W
SciTegic.value.DoubleValue
0.000

@<SCITEGIC>MOL_PROPERTY
U+W
SciTegic.value.DoubleValue
3.010

@<SCITEGIC>MOL_PROPERTY
Grad RMS
SciTegic.value.DoubleValue
0.000000

@<SCITEGIC>MOL_PROPERTY
U
SciTegic.value.DoubleValue
5.843

@<SCITEGIC>MOL_PROPERTY
W
SciTegic.value.DoubleValue
-2.833

@<SCITEGIC>MOL_PROPERTY
W(PB)
SciTegic.value.DoubleValue
-4.568

@<SCITEGIC>MOL_PROPERTY
W(SA)
SciTegic.value.DoubleValue
1.735

@<SCITEGIC>MOL_PROPERTY
Valence
SciTegic.value.DoubleValue
13.789

@<SCITEGIC>MOL_PROPERTY
Coulomb
SciTegic.value.DoubleValue
-8.574

@<SCITEGIC>MOL_PROPERTY
VdW
SciTegic.value.DoubleValue
0.628

@<SCITEGIC>MOL_PROPERTY
VdW6
SciTegic.value.DoubleValue
-3.284

@<SCITEGIC>MOL_PROPERTY
VdW12
SciTegic.value.DoubleValue
3.912

@<SCITEGIC>MOL_PROPERTY
Bond
SciTegic.value.DoubleValue
0.054

@<SCITEGIC>MOL_PROPERTY
Angle
SciTegic.value.DoubleValue
4.034

@<SCITEGIC>MOL_PROPERTY
Pdih
SciTegic.value.DoubleValue
9.702

@<SCITEGIC>MOL_PROPERTY
Idih
SciTegic.value.DoubleValue
0.000

@<SCITEGIC>MOL_PROPERTY
Tether
SciTegic.value.DoubleValue
0.000

@<TRIPOS>MOLECULE
guest-4_confgen4.mol2 : confsearch ligand conformer 263
          16          16           1
SMALL
USER_CHARGES
 
@<TRIPOS>ATOM
       1    C1      20.292400   17.613101   21.695691 C.3        1 MOL1        -0.1689
       2    H1      20.387233   17.060590   20.750970 H          1 MOL1         0.0830
       3    H2      21.176949   17.396437   22.310712 H          1 MOL1         0.0830
       4    C2      19.021233   17.234972   22.468269 C.3        1 MOL1        -0.1689
       5    H3      18.187096   17.106280   21.764470 H          1 MOL1         0.0830
       6    H4      19.137993   16.302879   23.037666 H          1 MOL1         0.0830
       7    C3      18.747199   18.447942   23.376390 C.3        1 MOL1        -0.1765
       8    H5      19.258801   18.311301   24.337992 H          1 MOL1         0.0830
       9    H6      17.674851   18.564691   23.582445 H          1 MOL1         0.0830
      10    C4      19.343024   19.677324   22.659862 C.3        1 MOL1         0.1214
      11    H7      19.996762   20.222323   23.356369 H          1 MOL1         0.0787
      12    C5      20.169872   19.132135   21.476297 C.3        1 MOL1        -0.1765
      13    H8      19.648115   19.321341   20.528272 H          1 MOL1         0.0830
      14    H9      21.156406   19.609999   21.419347 H          1 MOL1         0.0830
      15    O1      18.300774   20.520347   22.183495 O.3        1 MOL1        -0.5512
      16    H10     18.733908   21.274248   21.730110 H          1 MOL1         0.3776
@<TRIPOS>BOND
    1     1     2    1
    2     1     3    1
    3     1     4    1
    4     4     5    1
    5     4     6    1
    6     4     7    1
    7     7     8    1
    8     7     9    1
    9     7    10    1
   10    10    11    1
   11     1    12    1
   12    10    12    1
   13    12    13    1
   14    12    14    1
   15    10    15    1
   16    15    16    1
@<TRIPOS>SUBSTRUCTURE
       1 MOL1            1 RESIDUE      1      MOL     
@<SCITEGIC>MOL_PROPERTY
VConf Rank
SciTegic.value.IntegerValue
263

@<SCITEGIC>MOL_PROPERTY
Conf_Id
SciTegic.value.IntegerValue
33

@<SCITEGIC>MOL_PROPERTY
Delta U+W
SciTegic.value.DoubleValue
0.015

@<SCITEGIC>MOL_PROPERTY
U+W
SciTegic.value.DoubleValue
3.025

@<SCITEGIC>MOL_PROPERTY
Grad RMS
SciTegic.value.DoubleValue
0.000000

@<SCITEGIC>MOL_PROPERTY
U
SciTegic.value.DoubleValue
5.843

@<SCITEGIC>MOL_PROPERTY
W
SciTegic.value.DoubleValue
-2.819

@<SCITEGIC>MOL_PROPERTY
W(PB)
SciTegic.value.DoubleValue
-4.568

@<SCITEGIC>MOL_PROPERTY
W(SA)
SciTegic.value.DoubleValue
1.750

@<SCITEGIC>MOL_PROPERTY
Valence
SciTegic.value.DoubleValue
13.789

@<SCITEGIC>MOL_PROPERTY
Coulomb
SciTegic.value.DoubleValue
-8.574

@<SCITEGIC>MOL_PROPERTY
VdW
SciTegic.value.DoubleValue
0.628

@<SCITEGIC>MOL_PROPERTY
VdW6
SciTegic.value.DoubleValue
-3.284

@<SCITEGIC>MOL_PROPERTY
VdW12
SciTegic.value.DoubleValue
3.913

@<SCITEGIC>MOL_PROPERTY
Bond
SciTegic.value.DoubleValue
0.054

@<SCITEGIC>MOL_PROPERTY
Angle
SciTegic.value.DoubleValue
4.033

@<SCITEGIC>MOL_PROPERTY
Pdih
SciTegic.value.DoubleValue
9.702

@<SCITEGIC>MOL_PROPERTY
Idih
SciTegic.value.DoubleValue
0.000

@<SCITEGIC>MOL_PROPERTY
Tether
SciTegic.value.DoubleValue
0.000

@<TRIPOS>MOLECULE
guest-4_confgen4.mol2 : confsearch ligand conformer 264
          16          16           1
SMALL
USER_CHARGES
 
@<TRIPOS>ATOM
       1    C1      19.901467   19.554818   23.044849 C.3        1 MOL1        -0.1689
       2    H1      20.312256   20.417969   22.503139 H          1 MOL1         0.0830
       3    H2      20.034119   19.741747   24.119306 H          1 MOL1         0.0830
       4    C2      20.622585   18.263722   22.599784 C.3        1 MOL1        -0.1689
       5    H3      21.383084   18.502152   21.843464 H          1 MOL1         0.0830
       6    H4      21.131623   17.774717   23.441659 H          1 MOL1         0.0830
       7    C3      19.540184   17.343809   21.995960 C.3        1 MOL1        -0.1765
       8    H5      19.212527   16.617761   22.751683 H          1 MOL1         0.0830
       9    H6      19.909478   16.779983   21.128938 H          1 MOL1         0.0830
      10    C4      18.359548   18.255787   21.636257 C.3        1 MOL1         0.1214
      11    H7      17.404434   17.711856   21.665913 H          1 MOL1         0.0787
      12    C5      18.410190   19.366093   22.694374 C.3        1 MOL1        -0.1765
      13    H8      17.944021   20.296523   22.343673 H          1 MOL1         0.0830
      14    H9      17.862906   19.033768   23.586373 H          1 MOL1         0.0830
      15    O1      18.580284   18.822362   20.352873 O.3        1 MOL1        -0.5512
      16    H10     19.443046   19.280696   20.421670 H          1 MOL1         0.3776
@<TRIPOS>BOND
    1     1     2    1
    2     1     3    1
    3     1     4    1
    4     4     5    1
    5     4     6    1
    6     4     7    1
    7     7     8    1
    8     7     9    1
    9     7    10    1
   10    10    11    1
   11     1    12    1
   12    10    12    1
   13    12    13    1
   14    12    14    1
   15    10    15    1
   16    15    16    1
@<TRIPOS>SUBSTRUCTURE
       1 MOL1            1 RESIDUE      1      MOL     
@<SCITEGIC>MOL_PROPERTY
VConf Rank
SciTegic.value.IntegerValue
264

@<SCITEGIC>MOL_PROPERTY
Conf_Id
SciTegic.value.IntegerValue
20

@<SCITEGIC>MOL_PROPERTY
Delta U+W
SciTegic.value.DoubleValue
-0.483

@<SCITEGIC>MOL_PROPERTY
U+W
SciTegic.value.DoubleValue
2.527

@<SCITEGIC>MOL_PROPERTY
Grad RMS
SciTegic.value.DoubleValue
0.000000

@<SCITEGIC>MOL_PROPERTY
U
SciTegic.value.DoubleValue
4.508

@<SCITEGIC>MOL_PROPERTY
W
SciTegic.value.DoubleValue
-1.981

@<SCITEGIC>MOL_PROPERTY
W(PB)
SciTegic.value.DoubleValue
-3.712

@<SCITEGIC>MOL_PROPERTY
W(SA)
SciTegic.value.DoubleValue
1.732

@<SCITEGIC>MOL_PROPERTY
Valence
SciTegic.value.DoubleValue
14.705

@<SCITEGIC>MOL_PROPERTY
Coulomb
SciTegic.value.DoubleValue
-10.687

@<SCITEGIC>MOL_PROPERTY
VdW
SciTegic.value.DoubleValue
0.490

@<SCITEGIC>MOL_PROPERTY
VdW6
SciTegic.value.DoubleValue
-3.745

@<SCITEGIC>MOL_PROPERTY
VdW12
SciTegic.value.DoubleValue
4.235

@<SCITEGIC>MOL_PROPERTY
Bond
SciTegic.value.DoubleValue
0.068

@<SCITEGIC>MOL_PROPERTY
Angle
SciTegic.value.DoubleValue
3.901

@<SCITEGIC>MOL_PROPERTY
Pdih
SciTegic.value.DoubleValue
10.737

@<SCITEGIC>MOL_PROPERTY
Idih
SciTegic.value.DoubleValue
0.000

@<SCITEGIC>MOL_PROPERTY
Tether
SciTegic.value.DoubleValue
0.000

@<TRIPOS>MOLECULE
guest-4_confgen4.mol2 : confsearch ligand conformer 265
          16          16           1
SMALL
USER_CHARGES
 
@<TRIPOS>ATOM
       1    C1      18.388050   19.593683   22.010867 C.3        1 MOL1        -0.1689
       2    H1      18.604688   19.891295   20.975409 H          1 MOL1         0.0830
       3    H2      17.509530   20.156739   22.354108 H          1 MOL1         0.0830
       4    C2      19.623316   19.843367   22.886939 C.3        1 MOL1        -0.1689
       5    H3      20.136289   20.779893   22.628993 H          1 MOL1         0.0830
       6    H4      19.323235   19.895518   23.942807 H          1 MOL1         0.0830
       7    C3      20.511461   18.606650   22.658274 C.3        1 MOL1        -0.1765
       8    H5      21.128529   18.387532   23.539217 H          1 MOL1         0.0830
       9    H6      21.186198   18.795415   21.812176 H          1 MOL1         0.0830
      10    C4      19.556150   17.439794   22.330390 C.3        1 MOL1         0.1214
      11    H7      19.490584   16.754664   23.188188 H          1 MOL1         0.0787
      12    C5      18.171639   18.070469   22.075026 C.3        1 MOL1        -0.1765
      13    H8      17.702966   17.689743   21.157740 H          1 MOL1         0.0830
      14    H9      17.507378   17.827731   22.914620 H          1 MOL1         0.0830
      15    O1      20.003256   16.750862   21.168771 O.3        1 MOL1        -0.5512
      16    H10     20.886296   16.382179   21.382886 H          1 MOL1         0.3776
@<TRIPOS>BOND
    1     1     2    1
    2     1     3    1
    3     1     4    1
    4     4     5    1
    5     4     6    1
    6     4     7    1
    7     7     8    1
    8     7     9    1
    9     7    10    1
   10    10    11    1
   11     1    12    1
   12    10    12    1
   13    12    13    1
   14    12    14    1
   15    10    15    1
   16    15    16    1
@<TRIPOS>SUBSTRUCTURE
       1 MOL1            1 RESIDUE      1      MOL     
@<SCITEGIC>MOL_PROPERTY
VConf Rank
SciTegic.value.IntegerValue
265

@<SCITEGIC>MOL_PROPERTY
Conf_Id
SciTegic.value.IntegerValue
59

@<SCITEGIC>MOL_PROPERTY
Delta U+W
SciTegic.value.DoubleValue
0.000

@<SCITEGIC>MOL_PROPERTY
U+W
SciTegic.value.DoubleValue
3.010

@<SCITEGIC>MOL_PROPERTY
Grad RMS
SciTegic.value.DoubleValue
0.000000

@<SCITEGIC>MOL_PROPERTY
U
SciTegic.value.DoubleValue
5.843

@<SCITEGIC>MOL_PROPERTY
W
SciTegic.value.DoubleValue
-2.833

@<SCITEGIC>MOL_PROPERTY
W(PB)
SciTegic.value.DoubleValue
-4.568

@<SCITEGIC>MOL_PROPERTY
W(SA)
SciTegic.value.DoubleValue
1.735

@<SCITEGIC>MOL_PROPERTY
Valence
SciTegic.value.DoubleValue
13.789

@<SCITEGIC>MOL_PROPERTY
Coulomb
SciTegic.value.DoubleValue
-8.574

@<SCITEGIC>MOL_PROPERTY
VdW
SciTegic.value.DoubleValue
0.628

@<SCITEGIC>MOL_PROPERTY
VdW6
SciTegic.value.DoubleValue
-3.284

@<SCITEGIC>MOL_PROPERTY
VdW12
SciTegic.value.DoubleValue
3.912

@<SCITEGIC>MOL_PROPERTY
Bond
SciTegic.value.DoubleValue
0.054

@<SCITEGIC>MOL_PROPERTY
Angle
SciTegic.value.DoubleValue
4.034

@<SCITEGIC>MOL_PROPERTY
Pdih
SciTegic.value.DoubleValue
9.702

@<SCITEGIC>MOL_PROPERTY
Idih
SciTegic.value.DoubleValue
0.000

@<SCITEGIC>MOL_PROPERTY
Tether
SciTegic.value.DoubleValue
0.000

@<TRIPOS>MOLECULE
guest-4_confgen4.mol2 : confsearch ligand conformer 266
          16          16           1
SMALL
USER_CHARGES
 
@<TRIPOS>ATOM
       1    C1      19.516871   19.783359   23.119949 C.3        1 MOL1        -0.1689
       2    H1      19.812621   20.838852   23.047658 H          1 MOL1         0.0830
       3    H2      19.031090   19.628563   24.093436 H          1 MOL1         0.0830
       4    C2      20.712709   18.831098   22.982483 C.3        1 MOL1        -0.1689
       5    H3      21.397333   19.208731   22.210239 H          1 MOL1         0.0830
       6    H4      21.275553   18.726363   23.919969 H          1 MOL1         0.0830
       7    C3      20.093835   17.500230   22.516797 C.3        1 MOL1        -0.1765
       8    H5      19.829732   16.890909   23.390903 H          1 MOL1         0.0830
       9    H6      20.797107   16.919394   21.905196 H          1 MOL1         0.0830
      10    C4      18.806411   17.859543   21.746582 C.3        1 MOL1         0.1214
      11    H7      17.967422   17.272111   22.147256 H          1 MOL1         0.0787
      12    C5      18.560934   19.363902   21.988202 C.3        1 MOL1        -0.1765
      13    H8      18.796580   19.938420   21.082011 H          1 MOL1         0.0830
      14    H9      17.514536   19.564639   22.252025 H          1 MOL1         0.0830
      15    O1      18.979443   17.607340   20.357211 O.3        1 MOL1        -0.5512
      16    H10     18.140440   17.862458   19.918441 H          1 MOL1         0.3776
@<TRIPOS>BOND
    1     1     2    1
    2     1     3    1
    3     1     4    1
    4     4     5    1
    5     4     6    1
    6     4     7    1
    7     7     8    1
    8     7     9    1
    9     7    10    1
   10    10    11    1
   11     1    12    1
   12    10    12    1
   13    12    13    1
   14    12    14    1
   15    10    15    1
   16    15    16    1
@<TRIPOS>SUBSTRUCTURE
       1 MOL1            1 RESIDUE      1      MOL     
@<SCITEGIC>MOL_PROPERTY
VConf Rank
SciTegic.value.IntegerValue
266

@<SCITEGIC>MOL_PROPERTY
Conf_Id
SciTegic.value.IntegerValue
33

@<SCITEGIC>MOL_PROPERTY
Delta U+W
SciTegic.value.DoubleValue
0.015

@<SCITEGIC>MOL_PROPERTY
U+W
SciTegic.value.DoubleValue
3.025

@<SCITEGIC>MOL_PROPERTY
Grad RMS
SciTegic.value.DoubleValue
0.000000

@<SCITEGIC>MOL_PROPERTY
U
SciTegic.value.DoubleValue
5.843

@<SCITEGIC>MOL_PROPERTY
W
SciTegic.value.DoubleValue
-2.819

@<SCITEGIC>MOL_PROPERTY
W(PB)
SciTegic.value.DoubleValue
-4.568

@<SCITEGIC>MOL_PROPERTY
W(SA)
SciTegic.value.DoubleValue
1.750

@<SCITEGIC>MOL_PROPERTY
Valence
SciTegic.value.DoubleValue
13.789

@<SCITEGIC>MOL_PROPERTY
Coulomb
SciTegic.value.DoubleValue
-8.574

@<SCITEGIC>MOL_PROPERTY
VdW
SciTegic.value.DoubleValue
0.628

@<SCITEGIC>MOL_PROPERTY
VdW6
SciTegic.value.DoubleValue
-3.284

@<SCITEGIC>MOL_PROPERTY
VdW12
SciTegic.value.DoubleValue
3.913

@<SCITEGIC>MOL_PROPERTY
Bond
SciTegic.value.DoubleValue
0.054

@<SCITEGIC>MOL_PROPERTY
Angle
SciTegic.value.DoubleValue
4.033

@<SCITEGIC>MOL_PROPERTY
Pdih
SciTegic.value.DoubleValue
9.702

@<SCITEGIC>MOL_PROPERTY
Idih
SciTegic.value.DoubleValue
0.000

@<SCITEGIC>MOL_PROPERTY
Tether
SciTegic.value.DoubleValue
0.000

@<TRIPOS>MOLECULE
guest-4_confgen4.mol2 : confsearch ligand conformer 267
          16          16           1
SMALL
USER_CHARGES
 
@<TRIPOS>ATOM
       1    C1      20.322358   18.054022   21.493783 C.3        1 MOL1        -0.1689
       2    H1      20.462494   18.543686   20.520223 H          1 MOL1         0.0830
       3    H2      21.043315   17.227528   21.558014 H          1 MOL1         0.0830
       4    C2      18.868203   17.550534   21.623994 C.3        1 MOL1        -0.1689
       5    H3      18.304866   17.795580   20.713044 H          1 MOL1         0.0830
       6    H4      18.828539   16.460746   21.757363 H          1 MOL1         0.0830
       7    C3      18.259443   18.280772   22.839971 C.3        1 MOL1        -0.1765
       8    H5      18.312869   17.630346   23.722984 H          1 MOL1         0.0830
       9    H6      17.205033   18.544144   22.682295 H          1 MOL1         0.0830
      10    C4      19.137972   19.516418   23.077373 C.3        1 MOL1         0.1214
      11    H7      19.125340   19.825169   24.132597 H          1 MOL1         0.0787
      12    C5      20.538082   19.068679   22.636714 C.3        1 MOL1        -0.1765
      13    H8      21.167697   19.914309   22.329309 H          1 MOL1         0.0830
      14    H9      21.035178   18.571218   23.479952 H          1 MOL1         0.0830
      15    O1      18.697889   20.571944   22.235353 O.3        1 MOL1        -0.5512
      16    H10     18.742477   20.208669   21.326945 H          1 MOL1         0.3776
@<TRIPOS>BOND
    1     1     2    1
    2     1     3    1
    3     1     4    1
    4     4     5    1
    5     4     6    1
    6     4     7    1
    7     7     8    1
    8     7     9    1
    9     7    10    1
   10    10    11    1
   11     1    12    1
   12    10    12    1
   13    12    13    1
   14    12    14    1
   15    10    15    1
   16    15    16    1
@<TRIPOS>SUBSTRUCTURE
       1 MOL1            1 RESIDUE      1      MOL     
@<SCITEGIC>MOL_PROPERTY
VConf Rank
SciTegic.value.IntegerValue
267

@<SCITEGIC>MOL_PROPERTY
Conf_Id
SciTegic.value.IntegerValue
20

@<SCITEGIC>MOL_PROPERTY
Delta U+W
SciTegic.value.DoubleValue
-0.483

@<SCITEGIC>MOL_PROPERTY
U+W
SciTegic.value.DoubleValue
2.527

@<SCITEGIC>MOL_PROPERTY
Grad RMS
SciTegic.value.DoubleValue
0.000000

@<SCITEGIC>MOL_PROPERTY
U
SciTegic.value.DoubleValue
4.508

@<SCITEGIC>MOL_PROPERTY
W
SciTegic.value.DoubleValue
-1.981

@<SCITEGIC>MOL_PROPERTY
W(PB)
SciTegic.value.DoubleValue
-3.712

@<SCITEGIC>MOL_PROPERTY
W(SA)
SciTegic.value.DoubleValue
1.732

@<SCITEGIC>MOL_PROPERTY
Valence
SciTegic.value.DoubleValue
14.705

@<SCITEGIC>MOL_PROPERTY
Coulomb
SciTegic.value.DoubleValue
-10.687

@<SCITEGIC>MOL_PROPERTY
VdW
SciTegic.value.DoubleValue
0.490

@<SCITEGIC>MOL_PROPERTY
VdW6
SciTegic.value.DoubleValue
-3.745

@<SCITEGIC>MOL_PROPERTY
VdW12
SciTegic.value.DoubleValue
4.235

@<SCITEGIC>MOL_PROPERTY
Bond
SciTegic.value.DoubleValue
0.068

@<SCITEGIC>MOL_PROPERTY
Angle
SciTegic.value.DoubleValue
3.901

@<SCITEGIC>MOL_PROPERTY
Pdih
SciTegic.value.DoubleValue
10.737

@<SCITEGIC>MOL_PROPERTY
Idih
SciTegic.value.DoubleValue
0.000

@<SCITEGIC>MOL_PROPERTY
Tether
SciTegic.value.DoubleValue
0.000

@<TRIPOS>MOLECULE
guest-4_confgen4.mol2 : confsearch ligand conformer 268
          16          16           1
SMALL
USER_CHARGES
 
@<TRIPOS>ATOM
       1    C1      20.048783   17.385883   21.792664 C.3        1 MOL1        -0.1689
       2    H1      20.564553   17.740304   20.889312 H          1 MOL1         0.0830
       3    H2      20.314179   16.331499   21.949135 H          1 MOL1         0.0830
       4    C2      18.536039   17.592529   21.635730 C.3        1 MOL1        -0.1689
       5    H3      18.186301   17.364959   20.619534 H          1 MOL1         0.0830
       6    H4      17.998978   16.939981   22.338134 H          1 MOL1         0.0830
       7    C3      18.309202   19.066886   22.017010 C.3        1 MOL1        -0.1765
       8    H5      17.308586   19.222270   22.440647 H          1 MOL1         0.0830
       9    H6      18.395752   19.692069   21.117876 H          1 MOL1         0.0830
      10    C4      19.416318   19.429638   23.029129 C.3        1 MOL1         0.1214
      11    H7      18.991489   19.504825   24.040754 H          1 MOL1         0.0787
      12    C5      20.436812   18.273407   22.989688 C.3        1 MOL1        -0.1765
      13    H8      21.471209   18.633037   22.907772 H          1 MOL1         0.0830
      14    H9      20.357547   17.694180   23.918824 H          1 MOL1         0.0830
      15    O1      20.043305   20.650414   22.654321 O.3        1 MOL1        -0.5512
      16    H10     19.350516   21.343652   22.685880 H          1 MOL1         0.3776
@<TRIPOS>BOND
    1     1     2    1
    2     1     3    1
    3     1     4    1
    4     4     5    1
    5     4     6    1
    6     4     7    1
    7     7     8    1
    8     7     9    1
    9     7    10    1
   10    10    11    1
   11     1    12    1
   12    10    12    1
   13    12    13    1
   14    12    14    1
   15    10    15    1
   16    15    16    1
@<TRIPOS>SUBSTRUCTURE
       1 MOL1            1 RESIDUE      1      MOL     
@<SCITEGIC>MOL_PROPERTY
VConf Rank
SciTegic.value.IntegerValue
268

@<SCITEGIC>MOL_PROPERTY
Conf_Id
SciTegic.value.IntegerValue
59

@<SCITEGIC>MOL_PROPERTY
Delta U+W
SciTegic.value.DoubleValue
0.000

@<SCITEGIC>MOL_PROPERTY
U+W
SciTegic.value.DoubleValue
3.010

@<SCITEGIC>MOL_PROPERTY
Grad RMS
SciTegic.value.DoubleValue
0.000000

@<SCITEGIC>MOL_PROPERTY
U
SciTegic.value.DoubleValue
5.843

@<SCITEGIC>MOL_PROPERTY
W
SciTegic.value.DoubleValue
-2.833

@<SCITEGIC>MOL_PROPERTY
W(PB)
SciTegic.value.DoubleValue
-4.568

@<SCITEGIC>MOL_PROPERTY
W(SA)
SciTegic.value.DoubleValue
1.735

@<SCITEGIC>MOL_PROPERTY
Valence
SciTegic.value.DoubleValue
13.789

@<SCITEGIC>MOL_PROPERTY
Coulomb
SciTegic.value.DoubleValue
-8.574

@<SCITEGIC>MOL_PROPERTY
VdW
SciTegic.value.DoubleValue
0.628

@<SCITEGIC>MOL_PROPERTY
VdW6
SciTegic.value.DoubleValue
-3.284

@<SCITEGIC>MOL_PROPERTY
VdW12
SciTegic.value.DoubleValue
3.912

@<SCITEGIC>MOL_PROPERTY
Bond
SciTegic.value.DoubleValue
0.054

@<SCITEGIC>MOL_PROPERTY
Angle
SciTegic.value.DoubleValue
4.034

@<SCITEGIC>MOL_PROPERTY
Pdih
SciTegic.value.DoubleValue
9.702

@<SCITEGIC>MOL_PROPERTY
Idih
SciTegic.value.DoubleValue
0.000

@<SCITEGIC>MOL_PROPERTY
Tether
SciTegic.value.DoubleValue
0.000

@<TRIPOS>MOLECULE
guest-4_confgen4.mol2 : confsearch ligand conformer 269
          16          16           1
SMALL
USER_CHARGES
 
@<TRIPOS>ATOM
       1    C1      20.786329   19.073386   22.552344 C.3        1 MOL1        -0.1689
       2    H1      21.337803   20.019148   22.642729 H          1 MOL1         0.0830
       3    H2      21.452969   18.256097   22.860972 H          1 MOL1         0.0830
       4    C2      20.288919   18.821806   21.122303 C.3        1 MOL1        -0.1689
       5    H3      19.933909   19.765214   20.684548 H          1 MOL1         0.0830
       6    H4      21.073673   18.413941   20.470806 H          1 MOL1         0.0830
       7    C3      19.103573   17.853603   21.291464 C.3        1 MOL1        -0.1765
       8    H5      19.464652   16.817867   21.247210 H          1 MOL1         0.0830
       9    H6      18.359576   17.982085   20.493981 H          1 MOL1         0.0830
      10    C4      18.513463   18.121184   22.691452 C.3        1 MOL1         0.1214
      11    H7      18.427859   17.170345   23.237434 H          1 MOL1         0.0787
      12    C5      19.508539   19.055842   23.411155 C.3        1 MOL1        -0.1765
      13    H8      19.098546   20.073111   23.473209 H          1 MOL1         0.0830
      14    H9      19.716783   18.713398   24.433023 H          1 MOL1         0.0830
      15    O1      17.243375   18.751640   22.576122 O.3        1 MOL1        -0.5512
      16    H10     16.922650   18.907245   23.489605 H          1 MOL1         0.3776
@<TRIPOS>BOND
    1     1     2    1
    2     1     3    1
    3     1     4    1
    4     4     5    1
    5     4     6    1
    6     4     7    1
    7     7     8    1
    8     7     9    1
    9     7    10    1
   10    10    11    1
   11     1    12    1
   12    10    12    1
   13    12    13    1
   14    12    14    1
   15    10    15    1
   16    15    16    1
@<TRIPOS>SUBSTRUCTURE
       1 MOL1            1 RESIDUE      1      MOL     
@<SCITEGIC>MOL_PROPERTY
VConf Rank
SciTegic.value.IntegerValue
269

@<SCITEGIC>MOL_PROPERTY
Conf_Id
SciTegic.value.IntegerValue
33

@<SCITEGIC>MOL_PROPERTY
Delta U+W
SciTegic.value.DoubleValue
0.015

@<SCITEGIC>MOL_PROPERTY
U+W
SciTegic.value.DoubleValue
3.025

@<SCITEGIC>MOL_PROPERTY
Grad RMS
SciTegic.value.DoubleValue
0.000000

@<SCITEGIC>MOL_PROPERTY
U
SciTegic.value.DoubleValue
5.843

@<SCITEGIC>MOL_PROPERTY
W
SciTegic.value.DoubleValue
-2.819

@<SCITEGIC>MOL_PROPERTY
W(PB)
SciTegic.value.DoubleValue
-4.568

@<SCITEGIC>MOL_PROPERTY
W(SA)
SciTegic.value.DoubleValue
1.750

@<SCITEGIC>MOL_PROPERTY
Valence
SciTegic.value.DoubleValue
13.789

@<SCITEGIC>MOL_PROPERTY
Coulomb
SciTegic.value.DoubleValue
-8.574

@<SCITEGIC>MOL_PROPERTY
VdW
SciTegic.value.DoubleValue
0.628

@<SCITEGIC>MOL_PROPERTY
VdW6
SciTegic.value.DoubleValue
-3.284

@<SCITEGIC>MOL_PROPERTY
VdW12
SciTegic.value.DoubleValue
3.913

@<SCITEGIC>MOL_PROPERTY
Bond
SciTegic.value.DoubleValue
0.054

@<SCITEGIC>MOL_PROPERTY
Angle
SciTegic.value.DoubleValue
4.033

@<SCITEGIC>MOL_PROPERTY
Pdih
SciTegic.value.DoubleValue
9.702

@<SCITEGIC>MOL_PROPERTY
Idih
SciTegic.value.DoubleValue
0.000

@<SCITEGIC>MOL_PROPERTY
Tether
SciTegic.value.DoubleValue
0.000

@<TRIPOS>MOLECULE
guest-4_confgen4.mol2 : confsearch ligand conformer 270
          16          16           1
SMALL
USER_CHARGES
 
@<TRIPOS>ATOM
       1    C1      20.070756   17.467828   22.274627 C.3        1 MOL1        -0.1689
       2    H1      20.866005   17.410206   21.518660 H          1 MOL1         0.0830
       3    H2      20.094243   16.535199   22.854842 H          1 MOL1         0.0830
       4    C2      18.704334   17.673287   21.584918 C.3        1 MOL1        -0.1689
       5    H3      18.838137   17.714040   20.495119 H          1 MOL1         0.0830
       6    H4      18.012677   16.848609   21.805182 H          1 MOL1         0.0830
       7    C3      18.149375   19.016579   22.104558 C.3        1 MOL1        -0.1765
       8    H5      17.441335   18.829144   22.922585 H          1 MOL1         0.0830
       9    H6      17.617521   19.577029   21.324153 H          1 MOL1         0.0830
      10    C4      19.354791   19.789665   22.656195 C.3        1 MOL1         0.1214
      11    H7      19.057893   20.487955   23.451950 H          1 MOL1         0.0787
      12    C5      20.289613   18.694089   23.186078 C.3        1 MOL1        -0.1765
      13    H8      21.339264   19.016372   23.205364 H          1 MOL1         0.0830
      14    H9      19.998135   18.443413   24.214584 H          1 MOL1         0.0830
      15    O1      19.996183   20.477348   21.591998 O.3        1 MOL1        -0.5512
      16    H10     20.221492   19.782997   20.939101 H          1 MOL1         0.3776
@<TRIPOS>BOND
    1     1     2    1
    2     1     3    1
    3     1     4    1
    4     4     5    1
    5     4     6    1
    6     4     7    1
    7     7     8    1
    8     7     9    1
    9     7    10    1
   10    10    11    1
   11     1    12    1
   12    10    12    1
   13    12    13    1
   14    12    14    1
   15    10    15    1
   16    15    16    1
@<TRIPOS>SUBSTRUCTURE
       1 MOL1            1 RESIDUE      1      MOL     
@<SCITEGIC>MOL_PROPERTY
VConf Rank
SciTegic.value.IntegerValue
270

@<SCITEGIC>MOL_PROPERTY
Conf_Id
SciTegic.value.IntegerValue
20

@<SCITEGIC>MOL_PROPERTY
Delta U+W
SciTegic.value.DoubleValue
-0.483

@<SCITEGIC>MOL_PROPERTY
U+W
SciTegic.value.DoubleValue
2.527

@<SCITEGIC>MOL_PROPERTY
Grad RMS
SciTegic.value.DoubleValue
0.000000

@<SCITEGIC>MOL_PROPERTY
U
SciTegic.value.DoubleValue
4.508

@<SCITEGIC>MOL_PROPERTY
W
SciTegic.value.DoubleValue
-1.981

@<SCITEGIC>MOL_PROPERTY
W(PB)
SciTegic.value.DoubleValue
-3.712

@<SCITEGIC>MOL_PROPERTY
W(SA)
SciTegic.value.DoubleValue
1.732

@<SCITEGIC>MOL_PROPERTY
Valence
SciTegic.value.DoubleValue
14.705

@<SCITEGIC>MOL_PROPERTY
Coulomb
SciTegic.value.DoubleValue
-10.687

@<SCITEGIC>MOL_PROPERTY
VdW
SciTegic.value.DoubleValue
0.490

@<SCITEGIC>MOL_PROPERTY
VdW6
SciTegic.value.DoubleValue
-3.745

@<SCITEGIC>MOL_PROPERTY
VdW12
SciTegic.value.DoubleValue
4.235

@<SCITEGIC>MOL_PROPERTY
Bond
SciTegic.value.DoubleValue
0.068

@<SCITEGIC>MOL_PROPERTY
Angle
SciTegic.value.DoubleValue
3.901

@<SCITEGIC>MOL_PROPERTY
Pdih
SciTegic.value.DoubleValue
10.737

@<SCITEGIC>MOL_PROPERTY
Idih
SciTegic.value.DoubleValue
0.000

@<SCITEGIC>MOL_PROPERTY
Tether
SciTegic.value.DoubleValue
0.000

@<TRIPOS>MOLECULE
guest-4_confgen4.mol2 : confsearch ligand conformer 271
          16          16           1
SMALL
USER_CHARGES
 
@<TRIPOS>ATOM
       1    C1      19.850999   19.585164   21.415450 C.3        1 MOL1        -0.1689
       2    H1      18.983589   19.865834   20.801854 H          1 MOL1         0.0830
       3    H2      20.694404   20.230509   21.134665 H          1 MOL1         0.0830
       4    C2      20.161302   18.095253   21.216438 C.3        1 MOL1        -0.1689
       5    H3      20.041051   17.779247   20.171240 H          1 MOL1         0.0830
       6    H4      21.197062   17.889544   21.520595 H          1 MOL1         0.0830
       7    C3      19.186759   17.371170   22.163289 C.3        1 MOL1        -0.1765
       8    H5      19.602533   16.417965   22.514541 H          1 MOL1         0.0830
       9    H6      18.252722   17.154719   21.627090 H          1 MOL1         0.0830
      10    C4      18.918741   18.339231   23.334913 C.3        1 MOL1         0.1214
      11    H7      19.444025   17.992933   24.236951 H          1 MOL1         0.0787
      12    C5      19.488671   19.707425   22.907060 C.3        1 MOL1        -0.1765
      13    H8      18.780842   20.527953   23.085200 H          1 MOL1         0.0830
      14    H9      20.394888   19.915961   23.490467 H          1 MOL1         0.0830
      15    O1      17.520475   18.443693   23.575392 O.3        1 MOL1        -0.5512
      16    H10     17.211503   17.548933   23.831267 H          1 MOL1         0.3776
@<TRIPOS>BOND
    1     1     2    1
    2     1     3    1
    3     1     4    1
    4     4     5    1
    5     4     6    1
    6     4     7    1
    7     7     8    1
    8     7     9    1
    9     7    10    1
   10    10    11    1
   11     1    12    1
   12    10    12    1
   13    12    13    1
   14    12    14    1
   15    10    15    1
   16    15    16    1
@<TRIPOS>SUBSTRUCTURE
       1 MOL1            1 RESIDUE      1      MOL     
@<SCITEGIC>MOL_PROPERTY
VConf Rank
SciTegic.value.IntegerValue
271

@<SCITEGIC>MOL_PROPERTY
Conf_Id
SciTegic.value.IntegerValue
59

@<SCITEGIC>MOL_PROPERTY
Delta U+W
SciTegic.value.DoubleValue
0.000

@<SCITEGIC>MOL_PROPERTY
U+W
SciTegic.value.DoubleValue
3.010

@<SCITEGIC>MOL_PROPERTY
Grad RMS
SciTegic.value.DoubleValue
0.000000

@<SCITEGIC>MOL_PROPERTY
U
SciTegic.value.DoubleValue
5.843

@<SCITEGIC>MOL_PROPERTY
W
SciTegic.value.DoubleValue
-2.833

@<SCITEGIC>MOL_PROPERTY
W(PB)
SciTegic.value.DoubleValue
-4.568

@<SCITEGIC>MOL_PROPERTY
W(SA)
SciTegic.value.DoubleValue
1.735

@<SCITEGIC>MOL_PROPERTY
Valence
SciTegic.value.DoubleValue
13.789

@<SCITEGIC>MOL_PROPERTY
Coulomb
SciTegic.value.DoubleValue
-8.574

@<SCITEGIC>MOL_PROPERTY
VdW
SciTegic.value.DoubleValue
0.628

@<SCITEGIC>MOL_PROPERTY
VdW6
SciTegic.value.DoubleValue
-3.284

@<SCITEGIC>MOL_PROPERTY
VdW12
SciTegic.value.DoubleValue
3.912

@<SCITEGIC>MOL_PROPERTY
Bond
SciTegic.value.DoubleValue
0.054

@<SCITEGIC>MOL_PROPERTY
Angle
SciTegic.value.DoubleValue
4.034

@<SCITEGIC>MOL_PROPERTY
Pdih
SciTegic.value.DoubleValue
9.702

@<SCITEGIC>MOL_PROPERTY
Idih
SciTegic.value.DoubleValue
0.000

@<SCITEGIC>MOL_PROPERTY
Tether
SciTegic.value.DoubleValue
0.000

@<TRIPOS>MOLECULE
guest-4_confgen4.mol2 : confsearch ligand conformer 272
          16          16           1
SMALL
USER_CHARGES
 
@<TRIPOS>ATOM
       1    C1      18.672287   19.742123   22.711823 C.3        1 MOL1        -0.1689
       2    H1      18.235692   20.656430   22.287339 H          1 MOL1         0.0830
       3    H2      18.298212   19.627451   23.738731 H          1 MOL1         0.0830
       4    C2      20.206668   19.778057   22.722304 C.3        1 MOL1        -0.1689
       5    H3      20.570606   20.239090   21.793500 H          1 MOL1         0.0830
       6    H4      20.607150   20.350025   23.570307 H          1 MOL1         0.0830
       7    C3      20.626435   18.297072   22.761752 C.3        1 MOL1        -0.1765
       8    H5      20.721013   17.968600   23.804942 H          1 MOL1         0.0830
       9    H6      21.596858   18.138706   22.272652 H          1 MOL1         0.0830
      10    C4      19.492362   17.500305   22.084376 C.3        1 MOL1         0.1214
      11    H7      19.181920   16.677406   22.744667 H          1 MOL1         0.0787
      12    C5      18.323956   18.489162   21.887587 C.3        1 MOL1        -0.1765
      13    H8      18.233018   18.764975   20.828135 H          1 MOL1         0.0830
      14    H9      17.368264   18.052831   22.205571 H          1 MOL1         0.0830
      15    O1      19.928540   16.999215   20.826380 O.3        1 MOL1        -0.5512
      16    H10     19.169637   16.514464   20.438292 H          1 MOL1         0.3776
@<TRIPOS>BOND
    1     1     2    1
    2     1     3    1
    3     1     4    1
    4     4     5    1
    5     4     6    1
    6     4     7    1
    7     7     8    1
    8     7     9    1
    9     7    10    1
   10    10    11    1
   11     1    12    1
   12    10    12    1
   13    12    13    1
   14    12    14    1
   15    10    15    1
   16    15    16    1
@<TRIPOS>SUBSTRUCTURE
       1 MOL1            1 RESIDUE      1      MOL     
@<SCITEGIC>MOL_PROPERTY
VConf Rank
SciTegic.value.IntegerValue
272

@<SCITEGIC>MOL_PROPERTY
Conf_Id
SciTegic.value.IntegerValue
33

@<SCITEGIC>MOL_PROPERTY
Delta U+W
SciTegic.value.DoubleValue
0.015

@<SCITEGIC>MOL_PROPERTY
U+W
SciTegic.value.DoubleValue
3.025

@<SCITEGIC>MOL_PROPERTY
Grad RMS
SciTegic.value.DoubleValue
0.000000

@<SCITEGIC>MOL_PROPERTY
U
SciTegic.value.DoubleValue
5.843

@<SCITEGIC>MOL_PROPERTY
W
SciTegic.value.DoubleValue
-2.819

@<SCITEGIC>MOL_PROPERTY
W(PB)
SciTegic.value.DoubleValue
-4.568

@<SCITEGIC>MOL_PROPERTY
W(SA)
SciTegic.value.DoubleValue
1.750

@<SCITEGIC>MOL_PROPERTY
Valence
SciTegic.value.DoubleValue
13.789

@<SCITEGIC>MOL_PROPERTY
Coulomb
SciTegic.value.DoubleValue
-8.574

@<SCITEGIC>MOL_PROPERTY
VdW
SciTegic.value.DoubleValue
0.628

@<SCITEGIC>MOL_PROPERTY
VdW6
SciTegic.value.DoubleValue
-3.284

@<SCITEGIC>MOL_PROPERTY
VdW12
SciTegic.value.DoubleValue
3.913

@<SCITEGIC>MOL_PROPERTY
Bond
SciTegic.value.DoubleValue
0.054

@<SCITEGIC>MOL_PROPERTY
Angle
SciTegic.value.DoubleValue
4.033

@<SCITEGIC>MOL_PROPERTY
Pdih
SciTegic.value.DoubleValue
9.702

@<SCITEGIC>MOL_PROPERTY
Idih
SciTegic.value.DoubleValue
0.000

@<SCITEGIC>MOL_PROPERTY
Tether
SciTegic.value.DoubleValue
0.000

@<TRIPOS>MOLECULE
guest-4_confgen4.mol2 : confsearch ligand conformer 273
          16          16           1
SMALL
USER_CHARGES
 
@<TRIPOS>ATOM
       1    C1      20.243683   17.817826   21.619341 C.3        1 MOL1        -0.1689
       2    H1      21.200249   17.679074   22.141793 H          1 MOL1         0.0830
       3    H2      20.279333   17.224309   20.695510 H          1 MOL1         0.0830
       4    C2      20.019687   19.316832   21.322987 C.3        1 MOL1        -0.1689
       5    H3      20.868324   19.903435   21.701062 H          1 MOL1         0.0830
       6    H4      19.937145   19.507312   20.244144 H          1 MOL1         0.0830
       7    C3      18.723586   19.719401   22.058172 C.3        1 MOL1        -0.1765
       8    H5      17.880891   19.697722   21.354599 H          1 MOL1         0.0830
       9    H6      18.781275   20.731982   22.479309 H          1 MOL1         0.0830
      10    C4      18.498589   18.652646   23.138174 C.3        1 MOL1         0.1214
      11    H7      17.432003   18.541510   23.381126 H          1 MOL1         0.0787
      12    C5      19.073857   17.370577   22.521469 C.3        1 MOL1        -0.1765
      13    H8      19.389931   16.647234   23.284932 H          1 MOL1         0.0830
      14    H9      18.299584   16.891643   21.907674 H          1 MOL1         0.0830
      15    O1      19.248941   18.992708   24.294952 O.3        1 MOL1        -0.5512
      16    H10     20.174675   19.069551   23.984670 H          1 MOL1         0.3776
@<TRIPOS>BOND
    1     1     2    1
    2     1     3    1
    3     1     4    1
    4     4     5    1
    5     4     6    1
    6     4     7    1
    7     7     8    1
    8     7     9    1
    9     7    10    1
   10    10    11    1
   11     1    12    1
   12    10    12    1
   13    12    13    1
   14    12    14    1
   15    10    15    1
   16    15    16    1
@<TRIPOS>SUBSTRUCTURE
       1 MOL1            1 RESIDUE      1      MOL     
@<SCITEGIC>MOL_PROPERTY
VConf Rank
SciTegic.value.IntegerValue
273

@<SCITEGIC>MOL_PROPERTY
Conf_Id
SciTegic.value.IntegerValue
20

@<SCITEGIC>MOL_PROPERTY
Delta U+W
SciTegic.value.DoubleValue
-0.483

@<SCITEGIC>MOL_PROPERTY
U+W
SciTegic.value.DoubleValue
2.527

@<SCITEGIC>MOL_PROPERTY
Grad RMS
SciTegic.value.DoubleValue
0.000000

@<SCITEGIC>MOL_PROPERTY
U
SciTegic.value.DoubleValue
4.508

@<SCITEGIC>MOL_PROPERTY
W
SciTegic.value.DoubleValue
-1.981

@<SCITEGIC>MOL_PROPERTY
W(PB)
SciTegic.value.DoubleValue
-3.712

@<SCITEGIC>MOL_PROPERTY
W(SA)
SciTegic.value.DoubleValue
1.732

@<SCITEGIC>MOL_PROPERTY
Valence
SciTegic.value.DoubleValue
14.705

@<SCITEGIC>MOL_PROPERTY
Coulomb
SciTegic.value.DoubleValue
-10.687

@<SCITEGIC>MOL_PROPERTY
VdW
SciTegic.value.DoubleValue
0.490

@<SCITEGIC>MOL_PROPERTY
VdW6
SciTegic.value.DoubleValue
-3.745

@<SCITEGIC>MOL_PROPERTY
VdW12
SciTegic.value.DoubleValue
4.235

@<SCITEGIC>MOL_PROPERTY
Bond
SciTegic.value.DoubleValue
0.068

@<SCITEGIC>MOL_PROPERTY
Angle
SciTegic.value.DoubleValue
3.901

@<SCITEGIC>MOL_PROPERTY
Pdih
SciTegic.value.DoubleValue
10.737

@<SCITEGIC>MOL_PROPERTY
Idih
SciTegic.value.DoubleValue
0.000

@<SCITEGIC>MOL_PROPERTY
Tether
SciTegic.value.DoubleValue
0.000

@<TRIPOS>MOLECULE
guest-4_confgen4.mol2 : confsearch ligand conformer 274
          16          16           1
SMALL
USER_CHARGES
 
@<TRIPOS>ATOM
       1    C1      19.701702   19.239965   23.549154 C.3        1 MOL1        -0.1689
       2    H1      19.413481   20.287242   23.382370 H          1 MOL1         0.0830
       3    H2      20.068286   19.143962   24.580194 H          1 MOL1         0.0830
       4    C2      20.753938   18.824647   22.511832 C.3        1 MOL1        -0.1689
       5    H3      21.484016   19.621502   22.314932 H          1 MOL1         0.0830
       6    H4      21.298775   17.940662   22.871484 H          1 MOL1         0.0830
       7    C3      19.934753   18.458310   21.260717 C.3        1 MOL1        -0.1765
       8    H5      20.444309   17.696690   20.656454 H          1 MOL1         0.0830
       9    H6      19.805083   19.352999   20.636616 H          1 MOL1         0.0830
      10    C4      18.566113   17.957459   21.768310 C.3        1 MOL1         0.1214
      11    H7      18.500247   16.865278   21.657314 H          1 MOL1         0.0787
      12    C5      18.497980   18.322471   23.265627 C.3        1 MOL1        -0.1765
      13    H8      17.549147   18.805882   23.534050 H          1 MOL1         0.0830
      14    H9      18.585452   17.405021   23.862045 H          1 MOL1         0.0830
      15    O1      17.514057   18.600067   21.058295 O.3        1 MOL1        -0.5512
      16    H10     17.612227   18.343376   20.117017 H          1 MOL1         0.3776
@<TRIPOS>BOND
    1     1     2    1
    2     1     3    1
    3     1     4    1
    4     4     5    1
    5     4     6    1
    6     4     7    1
    7     7     8    1
    8     7     9    1
    9     7    10    1
   10    10    11    1
   11     1    12    1
   12    10    12    1
   13    12    13    1
   14    12    14    1
   15    10    15    1
   16    15    16    1
@<TRIPOS>SUBSTRUCTURE
       1 MOL1            1 RESIDUE      1      MOL     
@<SCITEGIC>MOL_PROPERTY
VConf Rank
SciTegic.value.IntegerValue
274

@<SCITEGIC>MOL_PROPERTY
Conf_Id
SciTegic.value.IntegerValue
59

@<SCITEGIC>MOL_PROPERTY
Delta U+W
SciTegic.value.DoubleValue
0.000

@<SCITEGIC>MOL_PROPERTY
U+W
SciTegic.value.DoubleValue
3.010

@<SCITEGIC>MOL_PROPERTY
Grad RMS
SciTegic.value.DoubleValue
0.000000

@<SCITEGIC>MOL_PROPERTY
U
SciTegic.value.DoubleValue
5.843

@<SCITEGIC>MOL_PROPERTY
W
SciTegic.value.DoubleValue
-2.833

@<SCITEGIC>MOL_PROPERTY
W(PB)
SciTegic.value.DoubleValue
-4.568

@<SCITEGIC>MOL_PROPERTY
W(SA)
SciTegic.value.DoubleValue
1.735

@<SCITEGIC>MOL_PROPERTY
Valence
SciTegic.value.DoubleValue
13.789

@<SCITEGIC>MOL_PROPERTY
Coulomb
SciTegic.value.DoubleValue
-8.574

@<SCITEGIC>MOL_PROPERTY
VdW
SciTegic.value.DoubleValue
0.628

@<SCITEGIC>MOL_PROPERTY
VdW6
SciTegic.value.DoubleValue
-3.284

@<SCITEGIC>MOL_PROPERTY
VdW12
SciTegic.value.DoubleValue
3.912

@<SCITEGIC>MOL_PROPERTY
Bond
SciTegic.value.DoubleValue
0.054

@<SCITEGIC>MOL_PROPERTY
Angle
SciTegic.value.DoubleValue
4.034

@<SCITEGIC>MOL_PROPERTY
Pdih
SciTegic.value.DoubleValue
9.702

@<SCITEGIC>MOL_PROPERTY
Idih
SciTegic.value.DoubleValue
0.000

@<SCITEGIC>MOL_PROPERTY
Tether
SciTegic.value.DoubleValue
0.000

@<TRIPOS>MOLECULE
guest-4_confgen4.mol2 : confsearch ligand conformer 275
          16          16           1
SMALL
USER_CHARGES
 
@<TRIPOS>ATOM
       1    C1      20.461148   17.620293   22.050972 C.3        1 MOL1        -0.1689
       2    H1      20.690308   16.823726   21.330053 H          1 MOL1         0.0830
       3    H2      21.329532   17.744984   22.712774 H          1 MOL1         0.0830
       4    C2      19.213850   17.308198   22.889168 C.3        1 MOL1        -0.1689
       5    H3      18.450144   16.839860   22.252700 H          1 MOL1         0.0830
       6    H4      19.429251   16.628668   23.724921 H          1 MOL1         0.0830
       7    C3      18.714974   18.685107   23.364899 C.3        1 MOL1        -0.1765
       8    H5      19.182862   18.934542   24.326121 H          1 MOL1         0.0830
       9    H6      17.626649   18.692276   23.511589 H          1 MOL1         0.0830
      10    C4      19.169534   19.708316   22.303666 C.3        1 MOL1         0.1214
      11    H7      19.695670   20.536899   22.799802 H          1 MOL1         0.0787
      12    C5      20.134950   18.958017   21.361987 C.3        1 MOL1        -0.1765
      13    H8      19.648674   18.760523   20.396942 H          1 MOL1         0.0830
      14    H9      21.044237   19.541511   21.168135 H          1 MOL1         0.0830
      15    O1      18.047160   20.189677   21.573964 O.3        1 MOL1        -0.5512
      16    H10     18.393673   20.823312   20.910665 H          1 MOL1         0.3776
@<TRIPOS>BOND
    1     1     2    1
    2     1     3    1
    3     1     4    1
    4     4     5    1
    5     4     6    1
    6     4     7    1
    7     7     8    1
    8     7     9    1
    9     7    10    1
   10    10    11    1
   11     1    12    1
   12    10    12    1
   13    12    13    1
   14    12    14    1
   15    10    15    1
   16    15    16    1
@<TRIPOS>SUBSTRUCTURE
       1 MOL1            1 RESIDUE      1      MOL     
@<SCITEGIC>MOL_PROPERTY
VConf Rank
SciTegic.value.IntegerValue
275

@<SCITEGIC>MOL_PROPERTY
Conf_Id
SciTegic.value.IntegerValue
33

@<SCITEGIC>MOL_PROPERTY
Delta U+W
SciTegic.value.DoubleValue
0.015

@<SCITEGIC>MOL_PROPERTY
U+W
SciTegic.value.DoubleValue
3.025

@<SCITEGIC>MOL_PROPERTY
Grad RMS
SciTegic.value.DoubleValue
0.000000

@<SCITEGIC>MOL_PROPERTY
U
SciTegic.value.DoubleValue
5.843

@<SCITEGIC>MOL_PROPERTY
W
SciTegic.value.DoubleValue
-2.819

@<SCITEGIC>MOL_PROPERTY
W(PB)
SciTegic.value.DoubleValue
-4.568

@<SCITEGIC>MOL_PROPERTY
W(SA)
SciTegic.value.DoubleValue
1.750

@<SCITEGIC>MOL_PROPERTY
Valence
SciTegic.value.DoubleValue
13.789

@<SCITEGIC>MOL_PROPERTY
Coulomb
SciTegic.value.DoubleValue
-8.574

@<SCITEGIC>MOL_PROPERTY
VdW
SciTegic.value.DoubleValue
0.628

@<SCITEGIC>MOL_PROPERTY
VdW6
SciTegic.value.DoubleValue
-3.284

@<SCITEGIC>MOL_PROPERTY
VdW12
SciTegic.value.DoubleValue
3.913

@<SCITEGIC>MOL_PROPERTY
Bond
SciTegic.value.DoubleValue
0.054

@<SCITEGIC>MOL_PROPERTY
Angle
SciTegic.value.DoubleValue
4.033

@<SCITEGIC>MOL_PROPERTY
Pdih
SciTegic.value.DoubleValue
9.702

@<SCITEGIC>MOL_PROPERTY
Idih
SciTegic.value.DoubleValue
0.000

@<SCITEGIC>MOL_PROPERTY
Tether
SciTegic.value.DoubleValue
0.000

@<TRIPOS>MOLECULE
guest-4_confgen4.mol2 : confsearch ligand conformer 276
          16          16           1
SMALL
USER_CHARGES
 
@<TRIPOS>ATOM
       1    C1      20.235452   19.058291   21.336504 C.3        1 MOL1        -0.1689
       2    H1      19.806198   19.157343   20.329947 H          1 MOL1         0.0830
       3    H2      21.282394   19.387509   21.286244 H          1 MOL1         0.0830
       4    C2      20.122956   17.593826   21.813692 C.3        1 MOL1        -0.1689
       5    H3      19.640225   16.983917   21.037671 H          1 MOL1         0.0830
       6    H4      21.111034   17.157288   22.014033 H          1 MOL1         0.0830
       7    C3      19.256517   17.615024   23.090904 C.3        1 MOL1        -0.1765
       8    H5      19.906809   17.604251   23.975566 H          1 MOL1         0.0830
       9    H6      18.589528   16.745020   23.155900 H          1 MOL1         0.0830
      10    C4      18.482453   18.939677   23.057565 C.3        1 MOL1         0.1214
      11    H7      18.233667   19.288527   24.070182 H          1 MOL1         0.0787
      12    C5      19.433790   19.909578   22.343978 C.3        1 MOL1        -0.1765
      13    H8      18.897872   20.735455   21.857435 H          1 MOL1         0.0830
      14    H9      20.119000   20.345353   23.083037 H          1 MOL1         0.0830
      15    O1      17.308457   18.775792   22.275465 O.3        1 MOL1        -0.5512
      16    H10     17.625401   18.466913   21.401792 H          1 MOL1         0.3776
@<TRIPOS>BOND
    1     1     2    1
    2     1     3    1
    3     1     4    1
    4     4     5    1
    5     4     6    1
    6     4     7    1
    7     7     8    1
    8     7     9    1
    9     7    10    1
   10    10    11    1
   11     1    12    1
   12    10    12    1
   13    12    13    1
   14    12    14    1
   15    10    15    1
   16    15    16    1
@<TRIPOS>SUBSTRUCTURE
       1 MOL1            1 RESIDUE      1      MOL     
@<SCITEGIC>MOL_PROPERTY
VConf Rank
SciTegic.value.IntegerValue
276

@<SCITEGIC>MOL_PROPERTY
Conf_Id
SciTegic.value.IntegerValue
20

@<SCITEGIC>MOL_PROPERTY
Delta U+W
SciTegic.value.DoubleValue
-0.483

@<SCITEGIC>MOL_PROPERTY
U+W
SciTegic.value.DoubleValue
2.527

@<SCITEGIC>MOL_PROPERTY
Grad RMS
SciTegic.value.DoubleValue
0.000000

@<SCITEGIC>MOL_PROPERTY
U
SciTegic.value.DoubleValue
4.508

@<SCITEGIC>MOL_PROPERTY
W
SciTegic.value.DoubleValue
-1.981

@<SCITEGIC>MOL_PROPERTY
W(PB)
SciTegic.value.DoubleValue
-3.712

@<SCITEGIC>MOL_PROPERTY
W(SA)
SciTegic.value.DoubleValue
1.732

@<SCITEGIC>MOL_PROPERTY
Valence
SciTegic.value.DoubleValue
14.705

@<SCITEGIC>MOL_PROPERTY
Coulomb
SciTegic.value.DoubleValue
-10.687

@<SCITEGIC>MOL_PROPERTY
VdW
SciTegic.value.DoubleValue
0.490

@<SCITEGIC>MOL_PROPERTY
VdW6
SciTegic.value.DoubleValue
-3.745

@<SCITEGIC>MOL_PROPERTY
VdW12
SciTegic.value.DoubleValue
4.235

@<SCITEGIC>MOL_PROPERTY
Bond
SciTegic.value.DoubleValue
0.068

@<SCITEGIC>MOL_PROPERTY
Angle
SciTegic.value.DoubleValue
3.901

@<SCITEGIC>MOL_PROPERTY
Pdih
SciTegic.value.DoubleValue
10.737

@<SCITEGIC>MOL_PROPERTY
Idih
SciTegic.value.DoubleValue
0.000

@<SCITEGIC>MOL_PROPERTY
Tether
SciTegic.value.DoubleValue
0.000

@<TRIPOS>MOLECULE
guest-4_confgen4.mol2 : confsearch ligand conformer 277
          16          16           1
SMALL
USER_CHARGES
 
@<TRIPOS>ATOM
       1    C1      18.091039   18.820777   21.652971 C.3        1 MOL1        -0.1689
       2    H1      18.100272   19.899913   21.445471 H          1 MOL1         0.0830
       3    H2      17.170176   18.396882   21.229925 H          1 MOL1         0.0830
       4    C2      18.202962   18.586931   23.165755 C.3        1 MOL1        -0.1689
       5    H3      17.615739   19.312173   23.745370 H          1 MOL1         0.0830
       6    H4      17.842619   17.578285   23.411541 H          1 MOL1         0.0830
       7    C3      19.711267   18.686912   23.458293 C.3        1 MOL1        -0.1765
       8    H5      19.994693   18.068256   24.319560 H          1 MOL1         0.0830
       9    H6      19.967550   19.729131   23.692565 H          1 MOL1         0.0830
      10    C4      20.434612   18.234479   22.172309 C.3        1 MOL1         0.1214
      11    H7      20.866280   17.233174   22.315733 H          1 MOL1         0.0787
      12    C5      19.359272   18.172346   21.067946 C.3        1 MOL1        -0.1765
      13    H8      19.680371   18.673177   20.144862 H          1 MOL1         0.0830
      14    H9      19.156820   17.121306   20.824207 H          1 MOL1         0.0830
      15    O1      21.444764   19.172698   21.821271 O.3        1 MOL1        -0.5512
      16    H10     22.091131   19.179096   22.558632 H          1 MOL1         0.3776
@<TRIPOS>BOND
    1     1     2    1
    2     1     3    1
    3     1     4    1
    4     4     5    1
    5     4     6    1
    6     4     7    1
    7     7     8    1
    8     7     9    1
    9     7    10    1
   10    10    11    1
   11     1    12    1
   12    10    12    1
   13    12    13    1
   14    12    14    1
   15    10    15    1
   16    15    16    1
@<TRIPOS>SUBSTRUCTURE
       1 MOL1            1 RESIDUE      1      MOL     
@<SCITEGIC>MOL_PROPERTY
VConf Rank
SciTegic.value.IntegerValue
277

@<SCITEGIC>MOL_PROPERTY
Conf_Id
SciTegic.value.IntegerValue
59

@<SCITEGIC>MOL_PROPERTY
Delta U+W
SciTegic.value.DoubleValue
0.000

@<SCITEGIC>MOL_PROPERTY
U+W
SciTegic.value.DoubleValue
3.010

@<SCITEGIC>MOL_PROPERTY
Grad RMS
SciTegic.value.DoubleValue
0.000000

@<SCITEGIC>MOL_PROPERTY
U
SciTegic.value.DoubleValue
5.843

@<SCITEGIC>MOL_PROPERTY
W
SciTegic.value.DoubleValue
-2.833

@<SCITEGIC>MOL_PROPERTY
W(PB)
SciTegic.value.DoubleValue
-4.568

@<SCITEGIC>MOL_PROPERTY
W(SA)
SciTegic.value.DoubleValue
1.735

@<SCITEGIC>MOL_PROPERTY
Valence
SciTegic.value.DoubleValue
13.789

@<SCITEGIC>MOL_PROPERTY
Coulomb
SciTegic.value.DoubleValue
-8.574

@<SCITEGIC>MOL_PROPERTY
VdW
SciTegic.value.DoubleValue
0.628

@<SCITEGIC>MOL_PROPERTY
VdW6
SciTegic.value.DoubleValue
-3.284

@<SCITEGIC>MOL_PROPERTY
VdW12
SciTegic.value.DoubleValue
3.912

@<SCITEGIC>MOL_PROPERTY
Bond
SciTegic.value.DoubleValue
0.054

@<SCITEGIC>MOL_PROPERTY
Angle
SciTegic.value.DoubleValue
4.034

@<SCITEGIC>MOL_PROPERTY
Pdih
SciTegic.value.DoubleValue
9.702

@<SCITEGIC>MOL_PROPERTY
Idih
SciTegic.value.DoubleValue
0.000

@<SCITEGIC>MOL_PROPERTY
Tether
SciTegic.value.DoubleValue
0.000

@<TRIPOS>MOLECULE
guest-4_confgen4.mol2 : confsearch ligand conformer 278
          16          16           1
SMALL
USER_CHARGES
 
@<TRIPOS>ATOM
       1    C1      18.338338   17.992377   22.952693 C.3        1 MOL1        -0.1689
       2    H1      17.442016   18.278307   23.519798 H          1 MOL1         0.0830
       3    H2      18.289753   16.912511   22.754825 H          1 MOL1         0.0830
       4    C2      19.635030   18.321561   23.704992 C.3        1 MOL1        -0.1689
       5    H3      19.531428   19.291911   24.210330 H          1 MOL1         0.0830
       6    H4      19.885154   17.564844   24.460941 H          1 MOL1         0.0830
       7    C3      20.704384   18.426188   22.601990 C.3        1 MOL1        -0.1765
       8    H5      21.161195   17.441691   22.437144 H          1 MOL1         0.0830
       9    H6      21.505697   19.123553   22.880553 H          1 MOL1         0.0830
      10    C4      19.969832   18.861360   21.317133 C.3        1 MOL1         0.1214
      11    H7      20.234059   18.176733   20.497994 H          1 MOL1         0.0787
      12    C5      18.460710   18.760448   21.623896 C.3        1 MOL1        -0.1765
      13    H8      18.028545   19.763373   21.742877 H          1 MOL1         0.0830
      14    H9      17.917848   18.253131   20.815950 H          1 MOL1         0.0830
      15    O1      20.314688   20.200940   20.984725 O.3        1 MOL1        -0.5512
      16    H10     19.813937   20.426983   20.172517 H          1 MOL1         0.3776
@<TRIPOS>BOND
    1     1     2    1
    2     1     3    1
    3     1     4    1
    4     4     5    1
    5     4     6    1
    6     4     7    1
    7     7     8    1
    8     7     9    1
    9     7    10    1
   10    10    11    1
   11     1    12    1
   12    10    12    1
   13    12    13    1
   14    12    14    1
   15    10    15    1
   16    15    16    1
@<TRIPOS>SUBSTRUCTURE
       1 MOL1            1 RESIDUE      1      MOL     
@<SCITEGIC>MOL_PROPERTY
VConf Rank
SciTegic.value.IntegerValue
278

@<SCITEGIC>MOL_PROPERTY
Conf_Id
SciTegic.value.IntegerValue
33

@<SCITEGIC>MOL_PROPERTY
Delta U+W
SciTegic.value.DoubleValue
0.015

@<SCITEGIC>MOL_PROPERTY
U+W
SciTegic.value.DoubleValue
3.025

@<SCITEGIC>MOL_PROPERTY
Grad RMS
SciTegic.value.DoubleValue
0.000000

@<SCITEGIC>MOL_PROPERTY
U
SciTegic.value.DoubleValue
5.843

@<SCITEGIC>MOL_PROPERTY
W
SciTegic.value.DoubleValue
-2.819

@<SCITEGIC>MOL_PROPERTY
W(PB)
SciTegic.value.DoubleValue
-4.568

@<SCITEGIC>MOL_PROPERTY
W(SA)
SciTegic.value.DoubleValue
1.750

@<SCITEGIC>MOL_PROPERTY
Valence
SciTegic.value.DoubleValue
13.789

@<SCITEGIC>MOL_PROPERTY
Coulomb
SciTegic.value.DoubleValue
-8.574

@<SCITEGIC>MOL_PROPERTY
VdW
SciTegic.value.DoubleValue
0.628

@<SCITEGIC>MOL_PROPERTY
VdW6
SciTegic.value.DoubleValue
-3.284

@<SCITEGIC>MOL_PROPERTY
VdW12
SciTegic.value.DoubleValue
3.913

@<SCITEGIC>MOL_PROPERTY
Bond
SciTegic.value.DoubleValue
0.054

@<SCITEGIC>MOL_PROPERTY
Angle
SciTegic.value.DoubleValue
4.033

@<SCITEGIC>MOL_PROPERTY
Pdih
SciTegic.value.DoubleValue
9.702

@<SCITEGIC>MOL_PROPERTY
Idih
SciTegic.value.DoubleValue
0.000

@<SCITEGIC>MOL_PROPERTY
Tether
SciTegic.value.DoubleValue
0.000

@<TRIPOS>MOLECULE
guest-4_confgen4.mol2 : confsearch ligand conformer 279
          16          16           1
SMALL
USER_CHARGES
 
@<TRIPOS>ATOM
       1    C1      18.064134   18.673246   22.490757 C.3        1 MOL1        -0.1689
       2    H1      17.607888   17.713552   22.770139 H          1 MOL1         0.0830
       3    H2      17.272366   19.434792   22.502951 H          1 MOL1         0.0830
       4    C2      18.719219   18.557404   21.097034 C.3        1 MOL1        -0.1689
       5    H3      18.579102   17.541972   20.701442 H          1 MOL1         0.0830
       6    H4      18.270800   19.259093   20.380408 H          1 MOL1         0.0830
       7    C3      20.221845   18.850236   21.294008 C.3        1 MOL1        -0.1765
       8    H5      20.427378   19.898916   21.041726 H          1 MOL1         0.0830
       9    H6      20.855721   18.222173   20.653895 H          1 MOL1         0.0830
      10    C4      20.505462   18.631914   22.786284 C.3        1 MOL1         0.1214
      11    H7      21.349591   19.245968   23.131780 H          1 MOL1         0.0787
      12    C5      19.195303   19.032940   23.477385 C.3        1 MOL1        -0.1765
      13    H8      19.070805   18.540295   24.450937 H          1 MOL1         0.0830
      14    H9      19.200603   20.117297   23.649906 H          1 MOL1         0.0830
      15    O1      20.753620   17.253013   23.018350 O.3        1 MOL1        -0.5512
      16    H10     19.957916   16.790954   22.682911 H          1 MOL1         0.3776
@<TRIPOS>BOND
    1     1     2    1
    2     1     3    1
    3     1     4    1
    4     4     5    1
    5     4     6    1
    6     4     7    1
    7     7     8    1
    8     7     9    1
    9     7    10    1
   10    10    11    1
   11     1    12    1
   12    10    12    1
   13    12    13    1
   14    12    14    1
   15    10    15    1
   16    15    16    1
@<TRIPOS>SUBSTRUCTURE
       1 MOL1            1 RESIDUE      1      MOL     
@<SCITEGIC>MOL_PROPERTY
VConf Rank
SciTegic.value.IntegerValue
279

@<SCITEGIC>MOL_PROPERTY
Conf_Id
SciTegic.value.IntegerValue
20

@<SCITEGIC>MOL_PROPERTY
Delta U+W
SciTegic.value.DoubleValue
-0.483

@<SCITEGIC>MOL_PROPERTY
U+W
SciTegic.value.DoubleValue
2.527

@<SCITEGIC>MOL_PROPERTY
Grad RMS
SciTegic.value.DoubleValue
0.000000

@<SCITEGIC>MOL_PROPERTY
U
SciTegic.value.DoubleValue
4.508

@<SCITEGIC>MOL_PROPERTY
W
SciTegic.value.DoubleValue
-1.981

@<SCITEGIC>MOL_PROPERTY
W(PB)
SciTegic.value.DoubleValue
-3.712

@<SCITEGIC>MOL_PROPERTY
W(SA)
SciTegic.value.DoubleValue
1.732

@<SCITEGIC>MOL_PROPERTY
Valence
SciTegic.value.DoubleValue
14.705

@<SCITEGIC>MOL_PROPERTY
Coulomb
SciTegic.value.DoubleValue
-10.687

@<SCITEGIC>MOL_PROPERTY
VdW
SciTegic.value.DoubleValue
0.490

@<SCITEGIC>MOL_PROPERTY
VdW6
SciTegic.value.DoubleValue
-3.745

@<SCITEGIC>MOL_PROPERTY
VdW12
SciTegic.value.DoubleValue
4.235

@<SCITEGIC>MOL_PROPERTY
Bond
SciTegic.value.DoubleValue
0.068

@<SCITEGIC>MOL_PROPERTY
Angle
SciTegic.value.DoubleValue
3.901

@<SCITEGIC>MOL_PROPERTY
Pdih
SciTegic.value.DoubleValue
10.737

@<SCITEGIC>MOL_PROPERTY
Idih
SciTegic.value.DoubleValue
0.000

@<SCITEGIC>MOL_PROPERTY
Tether
SciTegic.value.DoubleValue
0.000

@<TRIPOS>MOLECULE
guest-4_confgen4.mol2 : confsearch ligand conformer 280
          16          16           1
SMALL
USER_CHARGES
 
@<TRIPOS>ATOM
       1    C1      18.405203   18.206110   21.272704 C.3        1 MOL1        -0.1689
       2    H1      19.003601   18.128673   20.354226 H          1 MOL1         0.0830
       3    H2      17.367940   17.936902   21.031338 H          1 MOL1         0.0830
       4    C2      18.524351   19.624820   21.846109 C.3        1 MOL1        -0.1689
       5    H3      18.518502   20.394340   21.062168 H          1 MOL1         0.0830
       6    H4      17.683480   19.820557   22.525996 H          1 MOL1         0.0830
       7    C3      19.843255   19.607507   22.640307 C.3        1 MOL1        -0.1765
       8    H5      19.814659   20.312913   23.480801 H          1 MOL1         0.0830
       9    H6      20.669227   19.903534   21.979306 H          1 MOL1         0.0830
      10    C4      20.040153   18.155543   23.124777 C.3        1 MOL1         0.1214
      11    H7      19.839014   18.088310   24.203916 H          1 MOL1         0.0787
      12    C5      19.009935   17.298935   22.360115 C.3        1 MOL1        -0.1765
      13    H8      19.458456   16.394239   21.928400 H          1 MOL1         0.0830
      14    H9      18.221883   16.981508   23.055310 H          1 MOL1         0.0830
      15    O1      21.360217   17.714466   22.830209 O.3        1 MOL1        -0.5512
      16    H10     21.969692   18.297177   23.330729 H          1 MOL1         0.3776
@<TRIPOS>BOND
    1     1     2    1
    2     1     3    1
    3     1     4    1
    4     4     5    1
    5     4     6    1
    6     4     7    1
    7     7     8    1
    8     7     9    1
    9     7    10    1
   10    10    11    1
   11     1    12    1
   12    10    12    1
   13    12    13    1
   14    12    14    1
   15    10    15    1
   16    15    16    1
@<TRIPOS>SUBSTRUCTURE
       1 MOL1            1 RESIDUE      1      MOL     
@<SCITEGIC>MOL_PROPERTY
VConf Rank
SciTegic.value.IntegerValue
280

@<SCITEGIC>MOL_PROPERTY
Conf_Id
SciTegic.value.IntegerValue
59

@<SCITEGIC>MOL_PROPERTY
Delta U+W
SciTegic.value.DoubleValue
0.000

@<SCITEGIC>MOL_PROPERTY
U+W
SciTegic.value.DoubleValue
3.010

@<SCITEGIC>MOL_PROPERTY
Grad RMS
SciTegic.value.DoubleValue
0.000000

@<SCITEGIC>MOL_PROPERTY
U
SciTegic.value.DoubleValue
5.843

@<SCITEGIC>MOL_PROPERTY
W
SciTegic.value.DoubleValue
-2.833

@<SCITEGIC>MOL_PROPERTY
W(PB)
SciTegic.value.DoubleValue
-4.568

@<SCITEGIC>MOL_PROPERTY
W(SA)
SciTegic.value.DoubleValue
1.735

@<SCITEGIC>MOL_PROPERTY
Valence
SciTegic.value.DoubleValue
13.789

@<SCITEGIC>MOL_PROPERTY
Coulomb
SciTegic.value.DoubleValue
-8.574

@<SCITEGIC>MOL_PROPERTY
VdW
SciTegic.value.DoubleValue
0.628

@<SCITEGIC>MOL_PROPERTY
VdW6
SciTegic.value.DoubleValue
-3.284

@<SCITEGIC>MOL_PROPERTY
VdW12
SciTegic.value.DoubleValue
3.912

@<SCITEGIC>MOL_PROPERTY
Bond
SciTegic.value.DoubleValue
0.054

@<SCITEGIC>MOL_PROPERTY
Angle
SciTegic.value.DoubleValue
4.034

@<SCITEGIC>MOL_PROPERTY
Pdih
SciTegic.value.DoubleValue
9.702

@<SCITEGIC>MOL_PROPERTY
Idih
SciTegic.value.DoubleValue
0.000

@<SCITEGIC>MOL_PROPERTY
Tether
SciTegic.value.DoubleValue
0.000

@<TRIPOS>MOLECULE
guest-4_confgen4.mol2 : confsearch ligand conformer 281
          16          16           1
SMALL
USER_CHARGES
 
@<TRIPOS>ATOM
       1    C1      19.271737   19.942147   22.801716 C.3        1 MOL1        -0.1689
       2    H1      18.582001   20.499097   23.450429 H          1 MOL1         0.0830
       3    H2      20.127907   20.591791   22.572463 H          1 MOL1         0.0830
       4    C2      18.605700   19.485971   21.496333 C.3        1 MOL1        -0.1689
       5    H3      17.579160   19.152838   21.703498 H          1 MOL1         0.0830
       6    H4      18.562779   20.286377   20.745233 H          1 MOL1         0.0830
       7    C3      19.452574   18.287415   21.030130 C.3        1 MOL1        -0.1765
       8    H5      20.265046   18.640361   20.381745 H          1 MOL1         0.0830
       9    H6      18.854015   17.569055   20.454191 H          1 MOL1         0.0830
      10    C4      20.060330   17.657664   22.300501 C.3        1 MOL1         0.1214
      11    H7      21.146395   17.547063   22.167268 H          1 MOL1         0.0787
      12    C5      19.766974   18.638866   23.455023 C.3        1 MOL1        -0.1765
      13    H8      18.978704   18.236325   24.105693 H          1 MOL1         0.0830
      14    H9      20.657569   18.813034   24.072560 H          1 MOL1         0.0830
      15    O1      19.454165   16.397351   22.561407 O.3        1 MOL1        -0.5512
      16    H10     19.867561   16.050558   23.380167 H          1 MOL1         0.3776
@<TRIPOS>BOND
    1     1     2    1
    2     1     3    1
    3     1     4    1
    4     4     5    1
    5     4     6    1
    6     4     7    1
    7     7     8    1
    8     7     9    1
    9     7    10    1
   10    10    11    1
   11     1    12    1
   12    10    12    1
   13    12    13    1
   14    12    14    1
   15    10    15    1
   16    15    16    1
@<TRIPOS>SUBSTRUCTURE
       1 MOL1            1 RESIDUE      1      MOL     
@<SCITEGIC>MOL_PROPERTY
VConf Rank
SciTegic.value.IntegerValue
281

@<SCITEGIC>MOL_PROPERTY
Conf_Id
SciTegic.value.IntegerValue
33

@<SCITEGIC>MOL_PROPERTY
Delta U+W
SciTegic.value.DoubleValue
0.015

@<SCITEGIC>MOL_PROPERTY
U+W
SciTegic.value.DoubleValue
3.025

@<SCITEGIC>MOL_PROPERTY
Grad RMS
SciTegic.value.DoubleValue
0.000000

@<SCITEGIC>MOL_PROPERTY
U
SciTegic.value.DoubleValue
5.843

@<SCITEGIC>MOL_PROPERTY
W
SciTegic.value.DoubleValue
-2.819

@<SCITEGIC>MOL_PROPERTY
W(PB)
SciTegic.value.DoubleValue
-4.568

@<SCITEGIC>MOL_PROPERTY
W(SA)
SciTegic.value.DoubleValue
1.750

@<SCITEGIC>MOL_PROPERTY
Valence
SciTegic.value.DoubleValue
13.789

@<SCITEGIC>MOL_PROPERTY
Coulomb
SciTegic.value.DoubleValue
-8.574

@<SCITEGIC>MOL_PROPERTY
VdW
SciTegic.value.DoubleValue
0.628

@<SCITEGIC>MOL_PROPERTY
VdW6
SciTegic.value.DoubleValue
-3.284

@<SCITEGIC>MOL_PROPERTY
VdW12
SciTegic.value.DoubleValue
3.913

@<SCITEGIC>MOL_PROPERTY
Bond
SciTegic.value.DoubleValue
0.054

@<SCITEGIC>MOL_PROPERTY
Angle
SciTegic.value.DoubleValue
4.033

@<SCITEGIC>MOL_PROPERTY
Pdih
SciTegic.value.DoubleValue
9.702

@<SCITEGIC>MOL_PROPERTY
Idih
SciTegic.value.DoubleValue
0.000

@<SCITEGIC>MOL_PROPERTY
Tether
SciTegic.value.DoubleValue
0.000

@<TRIPOS>MOLECULE
guest-4_confgen4.mol2 : confsearch ligand conformer 282
          16          16           1
SMALL
USER_CHARGES
 
@<TRIPOS>ATOM
       1    C1      18.727397   17.463061   22.471086 C.3        1 MOL1        -0.1689
       2    H1      18.676083   16.802832   21.594336 H          1 MOL1         0.0830
       3    H2      18.220799   16.953477   23.302158 H          1 MOL1         0.0830
       4    C2      18.063230   18.819113   22.147007 C.3        1 MOL1        -0.1689
       5    H3      17.689544   18.814797   21.113776 H          1 MOL1         0.0830
       6    H4      17.209800   19.019354   22.809246 H          1 MOL1         0.0830
       7    C3      19.158605   19.893787   22.313332 C.3        1 MOL1        -0.1765
       8    H5      19.070728   20.356756   23.305077 H          1 MOL1         0.0830
       9    H6      19.075978   20.691886   21.563521 H          1 MOL1         0.0830
      10    C4      20.498981   19.151550   22.226909 C.3        1 MOL1         0.1214
      11    H7      21.286873   19.672252   22.790007 H          1 MOL1         0.0787
      12    C5      20.198860   17.769368   22.822271 C.3        1 MOL1        -0.1765
      13    H8      20.885241   16.997670   22.448954 H          1 MOL1         0.0830
      14    H9      20.313055   17.818633   23.913213 H          1 MOL1         0.0830
      15    O1      20.864652   19.003766   20.862632 O.3        1 MOL1        -0.5512
      16    H10     20.111928   18.535459   20.446389 H          1 MOL1         0.3776
@<TRIPOS>BOND
    1     1     2    1
    2     1     3    1
    3     1     4    1
    4     4     5    1
    5     4     6    1
    6     4     7    1
    7     7     8    1
    8     7     9    1
    9     7    10    1
   10    10    11    1
   11     1    12    1
   12    10    12    1
   13    12    13    1
   14    12    14    1
   15    10    15    1
   16    15    16    1
@<TRIPOS>SUBSTRUCTURE
       1 MOL1            1 RESIDUE      1      MOL     
@<SCITEGIC>MOL_PROPERTY
VConf Rank
SciTegic.value.IntegerValue
282

@<SCITEGIC>MOL_PROPERTY
Conf_Id
SciTegic.value.IntegerValue
20

@<SCITEGIC>MOL_PROPERTY
Delta U+W
SciTegic.value.DoubleValue
-0.483

@<SCITEGIC>MOL_PROPERTY
U+W
SciTegic.value.DoubleValue
2.527

@<SCITEGIC>MOL_PROPERTY
Grad RMS
SciTegic.value.DoubleValue
0.000000

@<SCITEGIC>MOL_PROPERTY
U
SciTegic.value.DoubleValue
4.508

@<SCITEGIC>MOL_PROPERTY
W
SciTegic.value.DoubleValue
-1.981

@<SCITEGIC>MOL_PROPERTY
W(PB)
SciTegic.value.DoubleValue
-3.712

@<SCITEGIC>MOL_PROPERTY
W(SA)
SciTegic.value.DoubleValue
1.732

@<SCITEGIC>MOL_PROPERTY
Valence
SciTegic.value.DoubleValue
14.705

@<SCITEGIC>MOL_PROPERTY
Coulomb
SciTegic.value.DoubleValue
-10.687

@<SCITEGIC>MOL_PROPERTY
VdW
SciTegic.value.DoubleValue
0.490

@<SCITEGIC>MOL_PROPERTY
VdW6
SciTegic.value.DoubleValue
-3.745

@<SCITEGIC>MOL_PROPERTY
VdW12
SciTegic.value.DoubleValue
4.235

@<SCITEGIC>MOL_PROPERTY
Bond
SciTegic.value.DoubleValue
0.068

@<SCITEGIC>MOL_PROPERTY
Angle
SciTegic.value.DoubleValue
3.901

@<SCITEGIC>MOL_PROPERTY
Pdih
SciTegic.value.DoubleValue
10.737

@<SCITEGIC>MOL_PROPERTY
Idih
SciTegic.value.DoubleValue
0.000

@<SCITEGIC>MOL_PROPERTY
Tether
SciTegic.value.DoubleValue
0.000

@<TRIPOS>MOLECULE
guest-4_confgen4.mol2 : confsearch ligand conformer 283
          16          16           1
SMALL
USER_CHARGES
 
@<TRIPOS>ATOM
       1    C1      19.159529   19.132664   23.633069 C.3        1 MOL1        -0.1689
       2    H1      18.083562   19.027733   23.830456 H          1 MOL1         0.0830
       3    H2      19.631544   19.570629   24.523031 H          1 MOL1         0.0830
       4    C2      19.370879   19.988183   22.376428 C.3        1 MOL1        -0.1689
       5    H3      18.668040   20.830640   22.321264 H          1 MOL1         0.0830
       6    H4      20.392754   20.392381   22.371983 H          1 MOL1         0.0830
       7    C3      19.195836   19.001598   21.207425 C.3        1 MOL1        -0.1765
       8    H5      19.790626   19.303145   20.335564 H          1 MOL1         0.0830
       9    H6      18.140034   18.980702   20.904721 H          1 MOL1         0.0830
      10    C4      19.627584   17.618066   21.737624 C.3        1 MOL1         0.1214
      11    H7      20.605505   17.342166   21.316829 H          1 MOL1         0.0787
      12    C5      19.753239   17.759403   23.268659 C.3        1 MOL1        -0.1765
      13    H8      19.247997   16.945274   23.805266 H          1 MOL1         0.0830
      14    H9      20.815390   17.732219   23.544659 H          1 MOL1         0.0830
      15    O1      18.646242   16.640225   21.414076 O.3        1 MOL1        -0.5512
      16    H10     18.600805   16.600507   20.435357 H          1 MOL1         0.3776
@<TRIPOS>BOND
    1     1     2    1
    2     1     3    1
    3     1     4    1
    4     4     5    1
    5     4     6    1
    6     4     7    1
    7     7     8    1
    8     7     9    1
    9     7    10    1
   10    10    11    1
   11     1    12    1
   12    10    12    1
   13    12    13    1
   14    12    14    1
   15    10    15    1
   16    15    16    1
@<TRIPOS>SUBSTRUCTURE
       1 MOL1            1 RESIDUE      1      MOL     
@<SCITEGIC>MOL_PROPERTY
VConf Rank
SciTegic.value.IntegerValue
283

@<SCITEGIC>MOL_PROPERTY
Conf_Id
SciTegic.value.IntegerValue
59

@<SCITEGIC>MOL_PROPERTY
Delta U+W
SciTegic.value.DoubleValue
0.000

@<SCITEGIC>MOL_PROPERTY
U+W
SciTegic.value.DoubleValue
3.010

@<SCITEGIC>MOL_PROPERTY
Grad RMS
SciTegic.value.DoubleValue
0.000000

@<SCITEGIC>MOL_PROPERTY
U
SciTegic.value.DoubleValue
5.843

@<SCITEGIC>MOL_PROPERTY
W
SciTegic.value.DoubleValue
-2.833

@<SCITEGIC>MOL_PROPERTY
W(PB)
SciTegic.value.DoubleValue
-4.568

@<SCITEGIC>MOL_PROPERTY
W(SA)
SciTegic.value.DoubleValue
1.735

@<SCITEGIC>MOL_PROPERTY
Valence
SciTegic.value.DoubleValue
13.789

@<SCITEGIC>MOL_PROPERTY
Coulomb
SciTegic.value.DoubleValue
-8.574

@<SCITEGIC>MOL_PROPERTY
VdW
SciTegic.value.DoubleValue
0.628

@<SCITEGIC>MOL_PROPERTY
VdW6
SciTegic.value.DoubleValue
-3.284

@<SCITEGIC>MOL_PROPERTY
VdW12
SciTegic.value.DoubleValue
3.912

@<SCITEGIC>MOL_PROPERTY
Bond
SciTegic.value.DoubleValue
0.054

@<SCITEGIC>MOL_PROPERTY
Angle
SciTegic.value.DoubleValue
4.034

@<SCITEGIC>MOL_PROPERTY
Pdih
SciTegic.value.DoubleValue
9.702

@<SCITEGIC>MOL_PROPERTY
Idih
SciTegic.value.DoubleValue
0.000

@<SCITEGIC>MOL_PROPERTY
Tether
SciTegic.value.DoubleValue
0.000

@<TRIPOS>MOLECULE
guest-4_confgen4.mol2 : confsearch ligand conformer 284
          16          16           1
SMALL
USER_CHARGES
 
@<TRIPOS>ATOM
       1    C1      18.329646   18.090325   23.019301 C.3        1 MOL1        -0.1689
       2    H1      17.795562   18.263442   23.963517 H          1 MOL1         0.0830
       3    H2      17.750730   17.370454   22.424100 H          1 MOL1         0.0830
       4    C2      19.749791   17.552367   23.241823 C.3        1 MOL1        -0.1689
       5    H3      20.205946   18.061701   24.102160 H          1 MOL1         0.0830
       6    H4      19.763346   16.471129   23.435172 H          1 MOL1         0.0830
       7    C3      20.510194   17.929152   21.956951 C.3        1 MOL1        -0.1765
       8    H5      20.419202   17.117426   21.223531 H          1 MOL1         0.0830
       9    H6      21.579752   18.085218   22.151137 H          1 MOL1         0.0830
      10    C4      19.826422   19.193035   21.395833 C.3        1 MOL1         0.1214
      11    H7      19.580457   19.032855   20.335945 H          1 MOL1         0.0787
      12    C5      18.532857   19.387275   22.214792 C.3        1 MOL1        -0.1765
      13    H8      18.644811   20.231470   22.908754 H          1 MOL1         0.0830
      14    H9      17.672255   19.595908   21.566191 H          1 MOL1         0.0830
      15    O1      20.679024   20.321416   21.549859 O.3        1 MOL1        -0.5512
      16    H10     20.192622   21.092737   21.189295 H          1 MOL1         0.3776
@<TRIPOS>BOND
    1     1     2    1
    2     1     3    1
    3     1     4    1
    4     4     5    1
    5     4     6    1
    6     4     7    1
    7     7     8    1
    8     7     9    1
    9     7    10    1
   10    10    11    1
   11     1    12    1
   12    10    12    1
   13    12    13    1
   14    12    14    1
   15    10    15    1
   16    15    16    1
@<TRIPOS>SUBSTRUCTURE
       1 MOL1            1 RESIDUE      1      MOL     
@<SCITEGIC>MOL_PROPERTY
VConf Rank
SciTegic.value.IntegerValue
284

@<SCITEGIC>MOL_PROPERTY
Conf_Id
SciTegic.value.IntegerValue
33

@<SCITEGIC>MOL_PROPERTY
Delta U+W
SciTegic.value.DoubleValue
0.015

@<SCITEGIC>MOL_PROPERTY
U+W
SciTegic.value.DoubleValue
3.025

@<SCITEGIC>MOL_PROPERTY
Grad RMS
SciTegic.value.DoubleValue
0.000000

@<SCITEGIC>MOL_PROPERTY
U
SciTegic.value.DoubleValue
5.843

@<SCITEGIC>MOL_PROPERTY
W
SciTegic.value.DoubleValue
-2.819

@<SCITEGIC>MOL_PROPERTY
W(PB)
SciTegic.value.DoubleValue
-4.568

@<SCITEGIC>MOL_PROPERTY
W(SA)
SciTegic.value.DoubleValue
1.750

@<SCITEGIC>MOL_PROPERTY
Valence
SciTegic.value.DoubleValue
13.789

@<SCITEGIC>MOL_PROPERTY
Coulomb
SciTegic.value.DoubleValue
-8.574

@<SCITEGIC>MOL_PROPERTY
VdW
SciTegic.value.DoubleValue
0.628

@<SCITEGIC>MOL_PROPERTY
VdW6
SciTegic.value.DoubleValue
-3.284

@<SCITEGIC>MOL_PROPERTY
VdW12
SciTegic.value.DoubleValue
3.913

@<SCITEGIC>MOL_PROPERTY
Bond
SciTegic.value.DoubleValue
0.054

@<SCITEGIC>MOL_PROPERTY
Angle
SciTegic.value.DoubleValue
4.033

@<SCITEGIC>MOL_PROPERTY
Pdih
SciTegic.value.DoubleValue
9.702

@<SCITEGIC>MOL_PROPERTY
Idih
SciTegic.value.DoubleValue
0.000

@<SCITEGIC>MOL_PROPERTY
Tether
SciTegic.value.DoubleValue
0.000

@<TRIPOS>MOLECULE
guest-4_confgen4.mol2 : confsearch ligand conformer 285
          16          16           1
SMALL
USER_CHARGES
 
@<TRIPOS>ATOM
       1    C1      19.008127   19.186633   23.405176 C.3        1 MOL1        -0.1689
       2    H1      18.349905   20.057684   23.281722 H          1 MOL1         0.0830
       3    H2      19.158550   19.032575   24.482504 H          1 MOL1         0.0830
       4    C2      20.346306   19.431738   22.674273 C.3        1 MOL1        -0.1689
       5    H3      20.336135   20.421824   22.197982 H          1 MOL1         0.0830
       6    H4      21.196863   19.404883   23.369134 H          1 MOL1         0.0830
       7    C3      20.469241   18.326426   21.603942 C.3        1 MOL1        -0.1765
       8    H5      21.099972   17.513363   21.986994 H          1 MOL1         0.0830
       9    H6      20.926154   18.694798   20.675751 H          1 MOL1         0.0830
      10    C4      19.048392   17.791618   21.379975 C.3        1 MOL1         0.1214
      11    H7      19.058310   16.743957   21.046370 H          1 MOL1         0.0787
      12    C5      18.373270   17.941681   22.749882 C.3        1 MOL1        -0.1765
      13    H8      17.281294   18.025238   22.668574 H          1 MOL1         0.0830
      14    H9      18.596180   17.053937   23.356384 H          1 MOL1         0.0830
      15    O1      18.381114   18.617374   20.436750 O.3        1 MOL1        -0.5512
      16    H10     18.421941   19.520035   20.814503 H          1 MOL1         0.3776
@<TRIPOS>BOND
    1     1     2    1
    2     1     3    1
    3     1     4    1
    4     4     5    1
    5     4     6    1
    6     4     7    1
    7     7     8    1
    8     7     9    1
    9     7    10    1
   10    10    11    1
   11     1    12    1
   12    10    12    1
   13    12    13    1
   14    12    14    1
   15    10    15    1
   16    15    16    1
@<TRIPOS>SUBSTRUCTURE
       1 MOL1            1 RESIDUE      1      MOL     
@<SCITEGIC>MOL_PROPERTY
VConf Rank
SciTegic.value.IntegerValue
285

@<SCITEGIC>MOL_PROPERTY
Conf_Id
SciTegic.value.IntegerValue
20

@<SCITEGIC>MOL_PROPERTY
Delta U+W
SciTegic.value.DoubleValue
-0.483

@<SCITEGIC>MOL_PROPERTY
U+W
SciTegic.value.DoubleValue
2.527

@<SCITEGIC>MOL_PROPERTY
Grad RMS
SciTegic.value.DoubleValue
0.000000

@<SCITEGIC>MOL_PROPERTY
U
SciTegic.value.DoubleValue
4.508

@<SCITEGIC>MOL_PROPERTY
W
SciTegic.value.DoubleValue
-1.981

@<SCITEGIC>MOL_PROPERTY
W(PB)
SciTegic.value.DoubleValue
-3.712

@<SCITEGIC>MOL_PROPERTY
W(SA)
SciTegic.value.DoubleValue
1.732

@<SCITEGIC>MOL_PROPERTY
Valence
SciTegic.value.DoubleValue
14.705

@<SCITEGIC>MOL_PROPERTY
Coulomb
SciTegic.value.DoubleValue
-10.687

@<SCITEGIC>MOL_PROPERTY
VdW
SciTegic.value.DoubleValue
0.490

@<SCITEGIC>MOL_PROPERTY
VdW6
SciTegic.value.DoubleValue
-3.745

@<SCITEGIC>MOL_PROPERTY
VdW12
SciTegic.value.DoubleValue
4.235

@<SCITEGIC>MOL_PROPERTY
Bond
SciTegic.value.DoubleValue
0.068

@<SCITEGIC>MOL_PROPERTY
Angle
SciTegic.value.DoubleValue
3.901

@<SCITEGIC>MOL_PROPERTY
Pdih
SciTegic.value.DoubleValue
10.737

@<SCITEGIC>MOL_PROPERTY
Idih
SciTegic.value.DoubleValue
0.000

@<SCITEGIC>MOL_PROPERTY
Tether
SciTegic.value.DoubleValue
0.000

@<TRIPOS>MOLECULE
guest-4_confgen4.mol2 : confsearch ligand conformer 286
          16          16           1
SMALL
USER_CHARGES
 
@<TRIPOS>ATOM
       1    C1      19.840049   19.097531   21.054740 C.3        1 MOL1        -0.1689
       2    H1      19.089477   19.844876   20.761835 H          1 MOL1         0.0830
       3    H2      20.651765   19.116775   20.314880 H          1 MOL1         0.0830
       4    C2      19.177109   17.717398   21.161837 C.3        1 MOL1        -0.1689
       5    H3      18.440582   17.544557   20.365336 H          1 MOL1         0.0830
       6    H4      19.943929   16.932929   21.096871 H          1 MOL1         0.0830
       7    C3      18.538473   17.706843   22.562762 C.3        1 MOL1        -0.1765
       8    H5      18.489900   16.690217   22.973806 H          1 MOL1         0.0830
       9    H6      17.512383   18.093647   22.497143 H          1 MOL1         0.0830
      10    C4      19.404063   18.633580   23.442303 C.3        1 MOL1         0.1214
      11    H7      20.010247   18.034465   24.137371 H          1 MOL1         0.0787
      12    C5      20.337474   19.397792   22.480763 C.3        1 MOL1        -0.1765
      13    H8      20.353026   20.476771   22.684679 H          1 MOL1         0.0830
      14    H9      21.361439   19.020751   22.600837 H          1 MOL1         0.0830
      15    O1      18.577939   19.547446   24.153820 O.3        1 MOL1        -0.5512
      16    H10     18.001710   19.009956   24.737427 H          1 MOL1         0.3776
@<TRIPOS>BOND
    1     1     2    1
    2     1     3    1
    3     1     4    1
    4     4     5    1
    5     4     6    1
    6     4     7    1
    7     7     8    1
    8     7     9    1
    9     7    10    1
   10    10    11    1
   11     1    12    1
   12    10    12    1
   13    12    13    1
   14    12    14    1
   15    10    15    1
   16    15    16    1
@<TRIPOS>SUBSTRUCTURE
       1 MOL1            1 RESIDUE      1      MOL     
@<SCITEGIC>MOL_PROPERTY
VConf Rank
SciTegic.value.IntegerValue
286

@<SCITEGIC>MOL_PROPERTY
Conf_Id
SciTegic.value.IntegerValue
59

@<SCITEGIC>MOL_PROPERTY
Delta U+W
SciTegic.value.DoubleValue
0.000

@<SCITEGIC>MOL_PROPERTY
U+W
SciTegic.value.DoubleValue
3.010

@<SCITEGIC>MOL_PROPERTY
Grad RMS
SciTegic.value.DoubleValue
0.000000

@<SCITEGIC>MOL_PROPERTY
U
SciTegic.value.DoubleValue
5.843

@<SCITEGIC>MOL_PROPERTY
W
SciTegic.value.DoubleValue
-2.833

@<SCITEGIC>MOL_PROPERTY
W(PB)
SciTegic.value.DoubleValue
-4.568

@<SCITEGIC>MOL_PROPERTY
W(SA)
SciTegic.value.DoubleValue
1.735

@<SCITEGIC>MOL_PROPERTY
Valence
SciTegic.value.DoubleValue
13.789

@<SCITEGIC>MOL_PROPERTY
Coulomb
SciTegic.value.DoubleValue
-8.574

@<SCITEGIC>MOL_PROPERTY
VdW
SciTegic.value.DoubleValue
0.628

@<SCITEGIC>MOL_PROPERTY
VdW6
SciTegic.value.DoubleValue
-3.284

@<SCITEGIC>MOL_PROPERTY
VdW12
SciTegic.value.DoubleValue
3.912

@<SCITEGIC>MOL_PROPERTY
Bond
SciTegic.value.DoubleValue
0.054

@<SCITEGIC>MOL_PROPERTY
Angle
SciTegic.value.DoubleValue
4.034

@<SCITEGIC>MOL_PROPERTY
Pdih
SciTegic.value.DoubleValue
9.702

@<SCITEGIC>MOL_PROPERTY
Idih
SciTegic.value.DoubleValue
0.000

@<SCITEGIC>MOL_PROPERTY
Tether
SciTegic.value.DoubleValue
0.000

@<TRIPOS>MOLECULE
guest-4_confgen4.mol2 : confsearch ligand conformer 287
          16          16           1
SMALL
USER_CHARGES
 
@<TRIPOS>ATOM
       1    C1      19.628102   20.030563   22.158502 C.3        1 MOL1        -0.1689
       2    H1      20.278332   20.743093   21.632897 H          1 MOL1         0.0830
       3    H2      18.812293   20.594502   22.631841 H          1 MOL1         0.0830
       4    C2      20.384917   19.225339   23.223665 C.3        1 MOL1        -0.1689
       5    H3      21.381277   18.958395   22.844606 H          1 MOL1         0.0830
       6    H4      20.511622   19.784321   24.160749 H          1 MOL1         0.0830
       7    C3      19.544997   17.948297   23.410148 C.3        1 MOL1        -0.1765
       8    H5      18.798387   18.110222   24.198461 H          1 MOL1         0.0830
       9    H6      20.167739   17.095030   23.710393 H          1 MOL1         0.0830
      10    C4      18.818155   17.700650   22.072175 C.3        1 MOL1         0.1214
      11    H7      17.743831   17.562365   22.262502 H          1 MOL1         0.0787
      12    C5      19.044398   18.963507   21.214420 C.3        1 MOL1        -0.1765
      13    H8      19.765299   18.754705   20.412244 H          1 MOL1         0.0830
      14    H9      18.111817   19.307143   20.748532 H          1 MOL1         0.0830
      15    O1      19.364917   16.560274   21.420646 O.3        1 MOL1        -0.5512
      16    H10     18.876533   16.457506   20.576578 H          1 MOL1         0.3776
@<TRIPOS>BOND
    1     1     2    1
    2     1     3    1
    3     1     4    1
    4     4     5    1
    5     4     6    1
    6     4     7    1
    7     7     8    1
    8     7     9    1
    9     7    10    1
   10    10    11    1
   11     1    12    1
   12    10    12    1
   13    12    13    1
   14    12    14    1
   15    10    15    1
   16    15    16    1
@<TRIPOS>SUBSTRUCTURE
       1 MOL1            1 RESIDUE      1      MOL     
@<SCITEGIC>MOL_PROPERTY
VConf Rank
SciTegic.value.IntegerValue
287

@<SCITEGIC>MOL_PROPERTY
Conf_Id
SciTegic.value.IntegerValue
33

@<SCITEGIC>MOL_PROPERTY
Delta U+W
SciTegic.value.DoubleValue
0.015

@<SCITEGIC>MOL_PROPERTY
U+W
SciTegic.value.DoubleValue
3.025

@<SCITEGIC>MOL_PROPERTY
Grad RMS
SciTegic.value.DoubleValue
0.000000

@<SCITEGIC>MOL_PROPERTY
U
SciTegic.value.DoubleValue
5.843

@<SCITEGIC>MOL_PROPERTY
W
SciTegic.value.DoubleValue
-2.819

@<SCITEGIC>MOL_PROPERTY
W(PB)
SciTegic.value.DoubleValue
-4.568

@<SCITEGIC>MOL_PROPERTY
W(SA)
SciTegic.value.DoubleValue
1.750

@<SCITEGIC>MOL_PROPERTY
Valence
SciTegic.value.DoubleValue
13.789

@<SCITEGIC>MOL_PROPERTY
Coulomb
SciTegic.value.DoubleValue
-8.574

@<SCITEGIC>MOL_PROPERTY
VdW
SciTegic.value.DoubleValue
0.628

@<SCITEGIC>MOL_PROPERTY
VdW6
SciTegic.value.DoubleValue
-3.284

@<SCITEGIC>MOL_PROPERTY
VdW12
SciTegic.value.DoubleValue
3.913

@<SCITEGIC>MOL_PROPERTY
Bond
SciTegic.value.DoubleValue
0.054

@<SCITEGIC>MOL_PROPERTY
Angle
SciTegic.value.DoubleValue
4.033

@<SCITEGIC>MOL_PROPERTY
Pdih
SciTegic.value.DoubleValue
9.702

@<SCITEGIC>MOL_PROPERTY
Idih
SciTegic.value.DoubleValue
0.000

@<SCITEGIC>MOL_PROPERTY
Tether
SciTegic.value.DoubleValue
0.000

@<TRIPOS>MOLECULE
guest-4_confgen4.mol2 : confsearch ligand conformer 288
          16          16           1
SMALL
USER_CHARGES
 
@<TRIPOS>ATOM
       1    C1      19.063054   17.350683   22.572989 C.3        1 MOL1        -0.1689
       2    H1      19.687936   16.912282   23.363276 H          1 MOL1         0.0830
       3    H2      18.322395   16.595442   22.276288 H          1 MOL1         0.0830
       4    C2      19.947002   17.778174   21.380970 C.3        1 MOL1        -0.1689
       5    H3      20.999543   17.545704   21.593908 H          1 MOL1         0.0830
       6    H4      19.668056   17.247279   20.460460 H          1 MOL1         0.0830
       7    C3      19.759287   19.301877   21.221190 C.3        1 MOL1        -0.1765
       8    H5      19.017573   19.499794   20.436136 H          1 MOL1         0.0830
       9    H6      20.690989   19.808401   20.935936 H          1 MOL1         0.0830
      10    C4      19.211096   19.805701   22.563070 C.3        1 MOL1         0.1214
      11    H7      18.602347   20.712572   22.436611 H          1 MOL1         0.0787
      12    C5      18.373435   18.631923   23.087974 C.3        1 MOL1        -0.1765
      13    H8      18.280602   18.643625   24.182163 H          1 MOL1         0.0830
      14    H9      17.361922   18.698996   22.666117 H          1 MOL1         0.0830
      15    O1      20.293574   20.041940   23.451461 O.3        1 MOL1        -0.5512
      16    H10     20.772941   19.189368   23.501366 H          1 MOL1         0.3776
@<TRIPOS>BOND
    1     1     2    1
    2     1     3    1
    3     1     4    1
    4     4     5    1
    5     4     6    1
    6     4     7    1
    7     7     8    1
    8     7     9    1
    9     7    10    1
   10    10    11    1
   11     1    12    1
   12    10    12    1
   13    12    13    1
   14    12    14    1
   15    10    15    1
   16    15    16    1
@<TRIPOS>SUBSTRUCTURE
       1 MOL1            1 RESIDUE      1      MOL     
@<SCITEGIC>MOL_PROPERTY
VConf Rank
SciTegic.value.IntegerValue
288

@<SCITEGIC>MOL_PROPERTY
Conf_Id
SciTegic.value.IntegerValue
20

@<SCITEGIC>MOL_PROPERTY
Delta U+W
SciTegic.value.DoubleValue
-0.483

@<SCITEGIC>MOL_PROPERTY
U+W
SciTegic.value.DoubleValue
2.527

@<SCITEGIC>MOL_PROPERTY
Grad RMS
SciTegic.value.DoubleValue
0.000000

@<SCITEGIC>MOL_PROPERTY
U
SciTegic.value.DoubleValue
4.508

@<SCITEGIC>MOL_PROPERTY
W
SciTegic.value.DoubleValue
-1.981

@<SCITEGIC>MOL_PROPERTY
W(PB)
SciTegic.value.DoubleValue
-3.712

@<SCITEGIC>MOL_PROPERTY
W(SA)
SciTegic.value.DoubleValue
1.732

@<SCITEGIC>MOL_PROPERTY
Valence
SciTegic.value.DoubleValue
14.705

@<SCITEGIC>MOL_PROPERTY
Coulomb
SciTegic.value.DoubleValue
-10.687

@<SCITEGIC>MOL_PROPERTY
VdW
SciTegic.value.DoubleValue
0.490

@<SCITEGIC>MOL_PROPERTY
VdW6
SciTegic.value.DoubleValue
-3.745

@<SCITEGIC>MOL_PROPERTY
VdW12
SciTegic.value.DoubleValue
4.235

@<SCITEGIC>MOL_PROPERTY
Bond
SciTegic.value.DoubleValue
0.068

@<SCITEGIC>MOL_PROPERTY
Angle
SciTegic.value.DoubleValue
3.901

@<SCITEGIC>MOL_PROPERTY
Pdih
SciTegic.value.DoubleValue
10.737

@<SCITEGIC>MOL_PROPERTY
Idih
SciTegic.value.DoubleValue
0.000

@<SCITEGIC>MOL_PROPERTY
Tether
SciTegic.value.DoubleValue
0.000

@<TRIPOS>MOLECULE
guest-4_confgen4.mol2 : confsearch ligand conformer 289
          16          16           1
SMALL
USER_CHARGES
 
@<TRIPOS>ATOM
       1    C1      19.639910   19.894751   22.800917 C.3        1 MOL1        -0.1689
       2    H1      20.409180   20.287921   22.121714 H          1 MOL1         0.0830
       3    H2      19.372340   20.686992   23.513241 H          1 MOL1         0.0830
       4    C2      20.165862   18.632655   23.498208 C.3        1 MOL1        -0.1689
       5    H3      21.223809   18.721184   23.780467 H          1 MOL1         0.0830
       6    H4      19.581784   18.443237   24.409580 H          1 MOL1         0.0830
       7    C3      19.923604   17.503340   22.480114 C.3        1 MOL1        -0.1765
       8    H5      19.761106   16.540070   22.980667 H          1 MOL1         0.0830
       9    H6      20.805330   17.402642   21.832655 H          1 MOL1         0.0830
      10    C4      18.694242   17.924574   21.647701 C.3        1 MOL1         0.1214
      11    H7      17.819374   17.324980   21.938582 H          1 MOL1         0.0787
      12    C5      18.430065   19.407095   21.982627 C.3        1 MOL1        -0.1765
      13    H8      18.278614   20.017259   21.082191 H          1 MOL1         0.0830
      14    H9      17.519773   19.479713   22.591868 H          1 MOL1         0.0830
      15    O1      18.967198   17.776320   20.259391 O.3        1 MOL1        -0.5512
      16    H10     19.137374   16.822804   20.106488 H          1 MOL1         0.3776
@<TRIPOS>BOND
    1     1     2    1
    2     1     3    1
    3     1     4    1
    4     4     5    1
    5     4     6    1
    6     4     7    1
    7     7     8    1
    8     7     9    1
    9     7    10    1
   10    10    11    1
   11     1    12    1
   12    10    12    1
   13    12    13    1
   14    12    14    1
   15    10    15    1
   16    15    16    1
@<TRIPOS>SUBSTRUCTURE
       1 MOL1            1 RESIDUE      1      MOL     
@<SCITEGIC>MOL_PROPERTY
VConf Rank
SciTegic.value.IntegerValue
289

@<SCITEGIC>MOL_PROPERTY
Conf_Id
SciTegic.value.IntegerValue
59

@<SCITEGIC>MOL_PROPERTY
Delta U+W
SciTegic.value.DoubleValue
0.000

@<SCITEGIC>MOL_PROPERTY
U+W
SciTegic.value.DoubleValue
3.010

@<SCITEGIC>MOL_PROPERTY
Grad RMS
SciTegic.value.DoubleValue
0.000000

@<SCITEGIC>MOL_PROPERTY
U
SciTegic.value.DoubleValue
5.843

@<SCITEGIC>MOL_PROPERTY
W
SciTegic.value.DoubleValue
-2.833

@<SCITEGIC>MOL_PROPERTY
W(PB)
SciTegic.value.DoubleValue
-4.568

@<SCITEGIC>MOL_PROPERTY
W(SA)
SciTegic.value.DoubleValue
1.735

@<SCITEGIC>MOL_PROPERTY
Valence
SciTegic.value.DoubleValue
13.789

@<SCITEGIC>MOL_PROPERTY
Coulomb
SciTegic.value.DoubleValue
-8.574

@<SCITEGIC>MOL_PROPERTY
VdW
SciTegic.value.DoubleValue
0.628

@<SCITEGIC>MOL_PROPERTY
VdW6
SciTegic.value.DoubleValue
-3.284

@<SCITEGIC>MOL_PROPERTY
VdW12
SciTegic.value.DoubleValue
3.912

@<SCITEGIC>MOL_PROPERTY
Bond
SciTegic.value.DoubleValue
0.054

@<SCITEGIC>MOL_PROPERTY
Angle
SciTegic.value.DoubleValue
4.034

@<SCITEGIC>MOL_PROPERTY
Pdih
SciTegic.value.DoubleValue
9.702

@<SCITEGIC>MOL_PROPERTY
Idih
SciTegic.value.DoubleValue
0.000

@<SCITEGIC>MOL_PROPERTY
Tether
SciTegic.value.DoubleValue
0.000

@<TRIPOS>MOLECULE
guest-4_confgen4.mol2 : confsearch ligand conformer 290
          16          16           1
SMALL
USER_CHARGES
 
@<TRIPOS>ATOM
       1    C1      20.770956   19.041371   22.662346 C.3        1 MOL1        -0.1689
       2    H1      21.347443   19.971395   22.759699 H          1 MOL1         0.0830
       3    H2      21.370978   18.220066   23.078341 H          1 MOL1         0.0830
       4    C2      20.408692   18.728817   21.203991 C.3        1 MOL1        -0.1689
       5    H3      20.136308   19.658319   20.684847 H          1 MOL1         0.0830
       6    H4      21.237699   18.259443   20.657110 H          1 MOL1         0.0830
       7    C3      19.175280   17.812147   21.301397 C.3        1 MOL1        -0.1765
       8    H5      19.497995   16.763881   21.346985 H          1 MOL1         0.0830
       9    H6      18.519884   17.921909   20.427081 H          1 MOL1         0.0830
      10    C4      18.459872   18.175948   22.618832 C.3        1 MOL1         0.1214
      11    H7      18.283115   17.259922   23.201218 H          1 MOL1         0.0787
      12    C5      19.414413   19.114325   23.386970 C.3        1 MOL1        -0.1765
      13    H8      19.040568   20.146799   23.355053 H          1 MOL1         0.0830
      14    H9      19.506409   18.821537   24.440848 H          1 MOL1         0.0830
      15    O1      17.233300   18.841894   22.343266 O.3        1 MOL1        -0.5512
      16    H10     16.829704   19.058138   23.210375 H          1 MOL1         0.3776
@<TRIPOS>BOND
    1     1     2    1
    2     1     3    1
    3     1     4    1
    4     4     5    1
    5     4     6    1
    6     4     7    1
    7     7     8    1
    8     7     9    1
    9     7    10    1
   10    10    11    1
   11     1    12    1
   12    10    12    1
   13    12    13    1
   14    12    14    1
   15    10    15    1
   16    15    16    1
@<TRIPOS>SUBSTRUCTURE
       1 MOL1            1 RESIDUE      1      MOL     
@<SCITEGIC>MOL_PROPERTY
VConf Rank
SciTegic.value.IntegerValue
290

@<SCITEGIC>MOL_PROPERTY
Conf_Id
SciTegic.value.IntegerValue
33

@<SCITEGIC>MOL_PROPERTY
Delta U+W
SciTegic.value.DoubleValue
0.015

@<SCITEGIC>MOL_PROPERTY
U+W
SciTegic.value.DoubleValue
3.025

@<SCITEGIC>MOL_PROPERTY
Grad RMS
SciTegic.value.DoubleValue
0.000000

@<SCITEGIC>MOL_PROPERTY
U
SciTegic.value.DoubleValue
5.843

@<SCITEGIC>MOL_PROPERTY
W
SciTegic.value.DoubleValue
-2.819

@<SCITEGIC>MOL_PROPERTY
W(PB)
SciTegic.value.DoubleValue
-4.568

@<SCITEGIC>MOL_PROPERTY
W(SA)
SciTegic.value.DoubleValue
1.750

@<SCITEGIC>MOL_PROPERTY
Valence
SciTegic.value.DoubleValue
13.789

@<SCITEGIC>MOL_PROPERTY
Coulomb
SciTegic.value.DoubleValue
-8.574

@<SCITEGIC>MOL_PROPERTY
VdW
SciTegic.value.DoubleValue
0.628

@<SCITEGIC>MOL_PROPERTY
VdW6
SciTegic.value.DoubleValue
-3.284

@<SCITEGIC>MOL_PROPERTY
VdW12
SciTegic.value.DoubleValue
3.913

@<SCITEGIC>MOL_PROPERTY
Bond
SciTegic.value.DoubleValue
0.054

@<SCITEGIC>MOL_PROPERTY
Angle
SciTegic.value.DoubleValue
4.033

@<SCITEGIC>MOL_PROPERTY
Pdih
SciTegic.value.DoubleValue
9.702

@<SCITEGIC>MOL_PROPERTY
Idih
SciTegic.value.DoubleValue
0.000

@<SCITEGIC>MOL_PROPERTY
Tether
SciTegic.value.DoubleValue
0.000

@<TRIPOS>MOLECULE
guest-4_confgen4.mol2 : confsearch ligand conformer 291
          16          16           1
SMALL
USER_CHARGES
 
@<TRIPOS>ATOM
       1    C1      19.514913   17.333001   22.625466 C.3        1 MOL1        -0.1689
       2    H1      20.299173   17.159600   23.375197 H          1 MOL1         0.0830
       3    H2      19.045291   16.364730   22.404324 H          1 MOL1         0.0830
       4    C2      20.129966   17.968212   21.359276 C.3        1 MOL1        -0.1689
       5    H3      21.212041   18.101258   21.495795 H          1 MOL1         0.0830
       6    H4      19.981181   17.332673   20.475561 H          1 MOL1         0.0830
       7    C3      19.442820   19.338549   21.179148 C.3        1 MOL1        -0.1765
       8    H5      18.627683   19.247064   20.449215 H          1 MOL1         0.0830
       9    H6      20.136105   20.106680   20.811267 H          1 MOL1         0.0830
      10    C4      18.848469   19.699192   22.547240 C.3        1 MOL1         0.1214
      11    H7      17.969047   20.351547   22.447077 H          1 MOL1         0.0787
      12    C5      18.478321   18.342819   23.162218 C.3        1 MOL1        -0.1765
      13    H8      18.458376   18.375232   24.259741 H          1 MOL1         0.0830
      14    H9      17.475536   18.057080   22.818131 H          1 MOL1         0.0830
      15    O1      19.849072   20.316459   23.343845 O.3        1 MOL1        -0.5512
      16    H10     20.583757   19.669667   23.376414 H          1 MOL1         0.3776
@<TRIPOS>BOND
    1     1     2    1
    2     1     3    1
    3     1     4    1
    4     4     5    1
    5     4     6    1
    6     4     7    1
    7     7     8    1
    8     7     9    1
    9     7    10    1
   10    10    11    1
   11     1    12    1
   12    10    12    1
   13    12    13    1
   14    12    14    1
   15    10    15    1
   16    15    16    1
@<TRIPOS>SUBSTRUCTURE
       1 MOL1            1 RESIDUE      1      MOL     
@<SCITEGIC>MOL_PROPERTY
VConf Rank
SciTegic.value.IntegerValue
291

@<SCITEGIC>MOL_PROPERTY
Conf_Id
SciTegic.value.IntegerValue
20

@<SCITEGIC>MOL_PROPERTY
Delta U+W
SciTegic.value.DoubleValue
-0.483

@<SCITEGIC>MOL_PROPERTY
U+W
SciTegic.value.DoubleValue
2.527

@<SCITEGIC>MOL_PROPERTY
Grad RMS
SciTegic.value.DoubleValue
0.000000

@<SCITEGIC>MOL_PROPERTY
U
SciTegic.value.DoubleValue
4.508

@<SCITEGIC>MOL_PROPERTY
W
SciTegic.value.DoubleValue
-1.981

@<SCITEGIC>MOL_PROPERTY
W(PB)
SciTegic.value.DoubleValue
-3.712

@<SCITEGIC>MOL_PROPERTY
W(SA)
SciTegic.value.DoubleValue
1.732

@<SCITEGIC>MOL_PROPERTY
Valence
SciTegic.value.DoubleValue
14.705

@<SCITEGIC>MOL_PROPERTY
Coulomb
SciTegic.value.DoubleValue
-10.687

@<SCITEGIC>MOL_PROPERTY
VdW
SciTegic.value.DoubleValue
0.490

@<SCITEGIC>MOL_PROPERTY
VdW6
SciTegic.value.DoubleValue
-3.745

@<SCITEGIC>MOL_PROPERTY
VdW12
SciTegic.value.DoubleValue
4.235

@<SCITEGIC>MOL_PROPERTY
Bond
SciTegic.value.DoubleValue
0.068

@<SCITEGIC>MOL_PROPERTY
Angle
SciTegic.value.DoubleValue
3.901

@<SCITEGIC>MOL_PROPERTY
Pdih
SciTegic.value.DoubleValue
10.737

@<SCITEGIC>MOL_PROPERTY
Idih
SciTegic.value.DoubleValue
0.000

@<SCITEGIC>MOL_PROPERTY
Tether
SciTegic.value.DoubleValue
0.000

@<TRIPOS>MOLECULE
guest-4_confgen4.mol2 : confsearch ligand conformer 292
          16          16           1
SMALL
USER_CHARGES
 
@<TRIPOS>ATOM
       1    C1      20.182972   18.949280   23.444251 C.3        1 MOL1        -0.1689
       2    H1      20.268479   20.042051   23.365412 H          1 MOL1         0.0830
       3    H2      20.699834   18.628776   24.359006 H          1 MOL1         0.0830
       4    C2      20.764019   18.295582   22.182985 C.3        1 MOL1        -0.1689
       5    H3      21.674591   18.800204   21.832307 H          1 MOL1         0.0830
       6    H4      21.011776   17.245467   22.391552 H          1 MOL1         0.0830
       7    C3      19.621322   18.366654   21.153544 C.3        1 MOL1        -0.1765
       8    H5      19.676401   17.538443   20.435297 H          1 MOL1         0.0830
       9    H6      19.697396   19.306992   20.590727 H          1 MOL1         0.0830
      10    C4      18.306254   18.331279   21.960406 C.3        1 MOL1         0.1214
      11    H7      17.824265   17.348747   21.851615 H          1 MOL1         0.0787
      12    C5      18.696744   18.546529   23.437233 C.3        1 MOL1        -0.1765
      13    H8      18.070448   19.303509   23.927902 H          1 MOL1         0.0830
      14    H9      18.568219   17.602585   23.982698 H          1 MOL1         0.0830
      15    O1      17.436055   19.369778   21.526630 O.3        1 MOL1        -0.5512
      16    H10     17.230792   19.189659   20.584846 H          1 MOL1         0.3776
@<TRIPOS>BOND
    1     1     2    1
    2     1     3    1
    3     1     4    1
    4     4     5    1
    5     4     6    1
    6     4     7    1
    7     7     8    1
    8     7     9    1
    9     7    10    1
   10    10    11    1
   11     1    12    1
   12    10    12    1
   13    12    13    1
   14    12    14    1
   15    10    15    1
   16    15    16    1
@<TRIPOS>SUBSTRUCTURE
       1 MOL1            1 RESIDUE      1      MOL     
@<SCITEGIC>MOL_PROPERTY
VConf Rank
SciTegic.value.IntegerValue
292

@<SCITEGIC>MOL_PROPERTY
Conf_Id
SciTegic.value.IntegerValue
59

@<SCITEGIC>MOL_PROPERTY
Delta U+W
SciTegic.value.DoubleValue
0.000

@<SCITEGIC>MOL_PROPERTY
U+W
SciTegic.value.DoubleValue
3.010

@<SCITEGIC>MOL_PROPERTY
Grad RMS
SciTegic.value.DoubleValue
0.000000

@<SCITEGIC>MOL_PROPERTY
U
SciTegic.value.DoubleValue
5.843

@<SCITEGIC>MOL_PROPERTY
W
SciTegic.value.DoubleValue
-2.833

@<SCITEGIC>MOL_PROPERTY
W(PB)
SciTegic.value.DoubleValue
-4.568

@<SCITEGIC>MOL_PROPERTY
W(SA)
SciTegic.value.DoubleValue
1.735

@<SCITEGIC>MOL_PROPERTY
Valence
SciTegic.value.DoubleValue
13.789

@<SCITEGIC>MOL_PROPERTY
Coulomb
SciTegic.value.DoubleValue
-8.574

@<SCITEGIC>MOL_PROPERTY
VdW
SciTegic.value.DoubleValue
0.628

@<SCITEGIC>MOL_PROPERTY
VdW6
SciTegic.value.DoubleValue
-3.284

@<SCITEGIC>MOL_PROPERTY
VdW12
SciTegic.value.DoubleValue
3.912

@<SCITEGIC>MOL_PROPERTY
Bond
SciTegic.value.DoubleValue
0.054

@<SCITEGIC>MOL_PROPERTY
Angle
SciTegic.value.DoubleValue
4.034

@<SCITEGIC>MOL_PROPERTY
Pdih
SciTegic.value.DoubleValue
9.702

@<SCITEGIC>MOL_PROPERTY
Idih
SciTegic.value.DoubleValue
0.000

@<SCITEGIC>MOL_PROPERTY
Tether
SciTegic.value.DoubleValue
0.000

@<TRIPOS>MOLECULE
guest-4_confgen4.mol2 : confsearch ligand conformer 293
          16          16           1
SMALL
USER_CHARGES
 
@<TRIPOS>ATOM
       1    C1      20.500563   18.522497   21.316131 C.3        1 MOL1        -0.1689
       2    H1      21.443834   17.983235   21.154277 H          1 MOL1         0.0830
       3    H2      20.255754   19.070476   20.395583 H          1 MOL1         0.0830
       4    C2      20.583129   19.502948   22.494107 C.3        1 MOL1        -0.1689
       5    H3      21.160076   19.048619   23.311663 H          1 MOL1         0.0830
       6    H4      21.065034   20.450708   22.218136 H          1 MOL1         0.0830
       7    C3      19.121476   19.694596   22.938987 C.3        1 MOL1        -0.1765
       8    H5      18.677222   20.536330   22.391990 H          1 MOL1         0.0830
       9    H6      19.051480   19.919391   24.011641 H          1 MOL1         0.0830
      10    C4      18.373590   18.399027   22.562204 C.3        1 MOL1         0.1214
      11    H7      17.470260   18.654512   21.989280 H          1 MOL1         0.0787
      12    C5      19.341484   17.578166   21.684079 C.3        1 MOL1        -0.1765
      13    H8      19.735465   16.722481   22.249201 H          1 MOL1         0.0830
      14    H9      18.841433   17.188821   20.787862 H          1 MOL1         0.0830
      15    O1      18.035889   17.668678   23.735424 O.3        1 MOL1        -0.5512
      16    H10     17.575925   16.855426   23.437792 H          1 MOL1         0.3776
@<TRIPOS>BOND
    1     1     2    1
    2     1     3    1
    3     1     4    1
    4     4     5    1
    5     4     6    1
    6     4     7    1
    7     7     8    1
    8     7     9    1
    9     7    10    1
   10    10    11    1
   11     1    12    1
   12    10    12    1
   13    12    13    1
   14    12    14    1
   15    10    15    1
   16    15    16    1
@<TRIPOS>SUBSTRUCTURE
       1 MOL1            1 RESIDUE      1      MOL     
@<SCITEGIC>MOL_PROPERTY
VConf Rank
SciTegic.value.IntegerValue
293

@<SCITEGIC>MOL_PROPERTY
Conf_Id
SciTegic.value.IntegerValue
33

@<SCITEGIC>MOL_PROPERTY
Delta U+W
SciTegic.value.DoubleValue
0.015

@<SCITEGIC>MOL_PROPERTY
U+W
SciTegic.value.DoubleValue
3.025

@<SCITEGIC>MOL_PROPERTY
Grad RMS
SciTegic.value.DoubleValue
0.000000

@<SCITEGIC>MOL_PROPERTY
U
SciTegic.value.DoubleValue
5.843

@<SCITEGIC>MOL_PROPERTY
W
SciTegic.value.DoubleValue
-2.819

@<SCITEGIC>MOL_PROPERTY
W(PB)
SciTegic.value.DoubleValue
-4.568

@<SCITEGIC>MOL_PROPERTY
W(SA)
SciTegic.value.DoubleValue
1.750

@<SCITEGIC>MOL_PROPERTY
Valence
SciTegic.value.DoubleValue
13.789

@<SCITEGIC>MOL_PROPERTY
Coulomb
SciTegic.value.DoubleValue
-8.574

@<SCITEGIC>MOL_PROPERTY
VdW
SciTegic.value.DoubleValue
0.628

@<SCITEGIC>MOL_PROPERTY
VdW6
SciTegic.value.DoubleValue
-3.284

@<SCITEGIC>MOL_PROPERTY
VdW12
SciTegic.value.DoubleValue
3.913

@<SCITEGIC>MOL_PROPERTY
Bond
SciTegic.value.DoubleValue
0.054

@<SCITEGIC>MOL_PROPERTY
Angle
SciTegic.value.DoubleValue
4.033

@<SCITEGIC>MOL_PROPERTY
Pdih
SciTegic.value.DoubleValue
9.702

@<SCITEGIC>MOL_PROPERTY
Idih
SciTegic.value.DoubleValue
0.000

@<SCITEGIC>MOL_PROPERTY
Tether
SciTegic.value.DoubleValue
0.000

@<TRIPOS>MOLECULE
guest-4_confgen4.mol2 : confsearch ligand conformer 294
          16          16           1
SMALL
USER_CHARGES
 
@<TRIPOS>ATOM
       1    C1      19.805988   19.091800   23.428621 C.3        1 MOL1        -0.1689
       2    H1      19.084222   18.989233   24.250668 H          1 MOL1         0.0830
       3    H2      20.709943   19.565093   23.835877 H          1 MOL1         0.0830
       4    C2      19.188803   19.932483   22.289605 C.3        1 MOL1        -0.1689
       5    H3      18.168744   20.237668   22.560842 H          1 MOL1         0.0830
       6    H4      19.770504   20.845064   22.100349 H          1 MOL1         0.0830
       7    C3      19.159629   19.024432   21.041796 C.3        1 MOL1        -0.1765
       8    H5      20.030808   19.241486   20.409691 H          1 MOL1         0.0830
       9    H6      18.258488   19.181063   20.433998 H          1 MOL1         0.0830
      10    C4      19.267302   17.584463   21.561303 C.3        1 MOL1         0.1214
      11    H7      19.732297   16.920124   20.818729 H          1 MOL1         0.0787
      12    C5      20.127720   17.707717   22.825994 C.3        1 MOL1        -0.1765
      13    H8      19.942356   16.891086   23.536457 H          1 MOL1         0.0830
      14    H9      21.187494   17.668860   22.541404 H          1 MOL1         0.0830
      15    O1      17.974361   17.118346   21.918861 O.3        1 MOL1        -0.5512
      16    H10     17.643094   17.764846   22.575720 H          1 MOL1         0.3776
@<TRIPOS>BOND
    1     1     2    1
    2     1     3    1
    3     1     4    1
    4     4     5    1
    5     4     6    1
    6     4     7    1
    7     7     8    1
    8     7     9    1
    9     7    10    1
   10    10    11    1
   11     1    12    1
   12    10    12    1
   13    12    13    1
   14    12    14    1
   15    10    15    1
   16    15    16    1
@<TRIPOS>SUBSTRUCTURE
       1 MOL1            1 RESIDUE      1      MOL     
@<SCITEGIC>MOL_PROPERTY
VConf Rank
SciTegic.value.IntegerValue
294

@<SCITEGIC>MOL_PROPERTY
Conf_Id
SciTegic.value.IntegerValue
20

@<SCITEGIC>MOL_PROPERTY
Delta U+W
SciTegic.value.DoubleValue
-0.483

@<SCITEGIC>MOL_PROPERTY
U+W
SciTegic.value.DoubleValue
2.527

@<SCITEGIC>MOL_PROPERTY
Grad RMS
SciTegic.value.DoubleValue
0.000000

@<SCITEGIC>MOL_PROPERTY
U
SciTegic.value.DoubleValue
4.508

@<SCITEGIC>MOL_PROPERTY
W
SciTegic.value.DoubleValue
-1.981

@<SCITEGIC>MOL_PROPERTY
W(PB)
SciTegic.value.DoubleValue
-3.712

@<SCITEGIC>MOL_PROPERTY
W(SA)
SciTegic.value.DoubleValue
1.732

@<SCITEGIC>MOL_PROPERTY
Valence
SciTegic.value.DoubleValue
14.705

@<SCITEGIC>MOL_PROPERTY
Coulomb
SciTegic.value.DoubleValue
-10.687

@<SCITEGIC>MOL_PROPERTY
VdW
SciTegic.value.DoubleValue
0.490

@<SCITEGIC>MOL_PROPERTY
VdW6
SciTegic.value.DoubleValue
-3.745

@<SCITEGIC>MOL_PROPERTY
VdW12
SciTegic.value.DoubleValue
4.235

@<SCITEGIC>MOL_PROPERTY
Bond
SciTegic.value.DoubleValue
0.068

@<SCITEGIC>MOL_PROPERTY
Angle
SciTegic.value.DoubleValue
3.901

@<SCITEGIC>MOL_PROPERTY
Pdih
SciTegic.value.DoubleValue
10.737

@<SCITEGIC>MOL_PROPERTY
Idih
SciTegic.value.DoubleValue
0.000

@<SCITEGIC>MOL_PROPERTY
Tether
SciTegic.value.DoubleValue
0.000

@<TRIPOS>MOLECULE
guest-4_confgen4.mol2 : confsearch ligand conformer 295
          16          16           1
SMALL
USER_CHARGES
 
@<TRIPOS>ATOM
       1    C1      18.779192   18.950866   21.040904 C.3        1 MOL1        -0.1689
       2    H1      19.070043   20.002735   20.911858 H          1 MOL1         0.0830
       3    H2      18.232198   18.632457   20.143097 H          1 MOL1         0.0830
       4    C2      17.944069   18.801351   22.319944 C.3        1 MOL1        -0.1689
       5    H3      17.245096   19.636693   22.462770 H          1 MOL1         0.0830
       6    H4      17.362105   17.870277   22.274704 H          1 MOL1         0.0830
       7    C3      18.986340   18.709831   23.449480 C.3        1 MOL1        -0.1765
       8    H5      18.612881   18.114428   24.292610 H          1 MOL1         0.0830
       9    H6      19.208450   19.719323   23.821471 H          1 MOL1         0.0830
      10    C4      20.249536   18.079883   22.825636 C.3        1 MOL1         0.1214
      11    H7      20.358551   17.039695   23.165698 H          1 MOL1         0.0787
      12    C5      20.034307   18.096673   21.298146 C.3        1 MOL1        -0.1765
      13    H8      20.907109   18.487859   20.758505 H          1 MOL1         0.0830
      14    H9      19.859240   17.070393   20.950034 H          1 MOL1         0.0830
      15    O1      21.399470   18.844514   23.167516 O.3        1 MOL1        -0.5512
      16    H10     21.480980   18.808557   24.144038 H          1 MOL1         0.3776
@<TRIPOS>BOND
    1     1     2    1
    2     1     3    1
    3     1     4    1
    4     4     5    1
    5     4     6    1
    6     4     7    1
    7     7     8    1
    8     7     9    1
    9     7    10    1
   10    10    11    1
   11     1    12    1
   12    10    12    1
   13    12    13    1
   14    12    14    1
   15    10    15    1
   16    15    16    1
@<TRIPOS>SUBSTRUCTURE
       1 MOL1            1 RESIDUE      1      MOL     
@<SCITEGIC>MOL_PROPERTY
VConf Rank
SciTegic.value.IntegerValue
295

@<SCITEGIC>MOL_PROPERTY
Conf_Id
SciTegic.value.IntegerValue
59

@<SCITEGIC>MOL_PROPERTY
Delta U+W
SciTegic.value.DoubleValue
0.000

@<SCITEGIC>MOL_PROPERTY
U+W
SciTegic.value.DoubleValue
3.010

@<SCITEGIC>MOL_PROPERTY
Grad RMS
SciTegic.value.DoubleValue
0.000000

@<SCITEGIC>MOL_PROPERTY
U
SciTegic.value.DoubleValue
5.843

@<SCITEGIC>MOL_PROPERTY
W
SciTegic.value.DoubleValue
-2.833

@<SCITEGIC>MOL_PROPERTY
W(PB)
SciTegic.value.DoubleValue
-4.568

@<SCITEGIC>MOL_PROPERTY
W(SA)
SciTegic.value.DoubleValue
1.735

@<SCITEGIC>MOL_PROPERTY
Valence
SciTegic.value.DoubleValue
13.789

@<SCITEGIC>MOL_PROPERTY
Coulomb
SciTegic.value.DoubleValue
-8.574

@<SCITEGIC>MOL_PROPERTY
VdW
SciTegic.value.DoubleValue
0.628

@<SCITEGIC>MOL_PROPERTY
VdW6
SciTegic.value.DoubleValue
-3.284

@<SCITEGIC>MOL_PROPERTY
VdW12
SciTegic.value.DoubleValue
3.912

@<SCITEGIC>MOL_PROPERTY
Bond
SciTegic.value.DoubleValue
0.054

@<SCITEGIC>MOL_PROPERTY
Angle
SciTegic.value.DoubleValue
4.034

@<SCITEGIC>MOL_PROPERTY
Pdih
SciTegic.value.DoubleValue
9.702

@<SCITEGIC>MOL_PROPERTY
Idih
SciTegic.value.DoubleValue
0.000

@<SCITEGIC>MOL_PROPERTY
Tether
SciTegic.value.DoubleValue
0.000

@<TRIPOS>MOLECULE
guest-4_confgen4.mol2 : confsearch ligand conformer 296
          16          16           1
SMALL
USER_CHARGES
 
@<TRIPOS>ATOM
       1    C1      20.119196   17.353664   22.469683 C.3        1 MOL1        -0.1689
       2    H1      19.967154   16.290621   22.238207 H          1 MOL1         0.0830
       3    H2      21.139811   17.478281   22.857544 H          1 MOL1         0.0830
       4    C2      19.108241   17.877610   23.498847 C.3        1 MOL1        -0.1689
       5    H3      18.118447   17.445449   23.295811 H          1 MOL1         0.0830
       6    H4      19.389539   17.624007   24.529963 H          1 MOL1         0.0830
       7    C3      19.066305   19.397938   23.258176 C.3        1 MOL1        -0.1765
       8    H5      19.819097   19.891339   23.886621 H          1 MOL1         0.0830
       9    H6      18.086467   19.821306   23.516433 H          1 MOL1         0.0830
      10    C4      19.426828   19.618472   21.774537 C.3        1 MOL1         0.1214
      11    H7      20.233610   20.362491   21.703420 H          1 MOL1         0.0787
      12    C5      19.915830   18.256205   21.238963 C.3        1 MOL1        -0.1765
      13    H8      19.155972   17.810117   20.582912 H          1 MOL1         0.0830
      14    H9      20.842544   18.359513   20.659847 H          1 MOL1         0.0830
      15    O1      18.280485   20.048033   21.049779 O.3        1 MOL1        -0.5512
      16    H10     18.563092   20.160867   20.117614 H          1 MOL1         0.3776
@<TRIPOS>BOND
    1     1     2    1
    2     1     3    1
    3     1     4    1
    4     4     5    1
    5     4     6    1
    6     4     7    1
    7     7     8    1
    8     7     9    1
    9     7    10    1
   10    10    11    1
   11     1    12    1
   12    10    12    1
   13    12    13    1
   14    12    14    1
   15    10    15    1
   16    15    16    1
@<TRIPOS>SUBSTRUCTURE
       1 MOL1            1 RESIDUE      1      MOL     
@<SCITEGIC>MOL_PROPERTY
VConf Rank
SciTegic.value.IntegerValue
296

@<SCITEGIC>MOL_PROPERTY
Conf_Id
SciTegic.value.IntegerValue
33

@<SCITEGIC>MOL_PROPERTY
Delta U+W
SciTegic.value.DoubleValue
0.015

@<SCITEGIC>MOL_PROPERTY
U+W
SciTegic.value.DoubleValue
3.025

@<SCITEGIC>MOL_PROPERTY
Grad RMS
SciTegic.value.DoubleValue
0.000000

@<SCITEGIC>MOL_PROPERTY
U
SciTegic.value.DoubleValue
5.843

@<SCITEGIC>MOL_PROPERTY
W
SciTegic.value.DoubleValue
-2.819

@<SCITEGIC>MOL_PROPERTY
W(PB)
SciTegic.value.DoubleValue
-4.568

@<SCITEGIC>MOL_PROPERTY
W(SA)
SciTegic.value.DoubleValue
1.750

@<SCITEGIC>MOL_PROPERTY
Valence
SciTegic.value.DoubleValue
13.789

@<SCITEGIC>MOL_PROPERTY
Coulomb
SciTegic.value.DoubleValue
-8.574

@<SCITEGIC>MOL_PROPERTY
VdW
SciTegic.value.DoubleValue
0.628

@<SCITEGIC>MOL_PROPERTY
VdW6
SciTegic.value.DoubleValue
-3.284

@<SCITEGIC>MOL_PROPERTY
VdW12
SciTegic.value.DoubleValue
3.913

@<SCITEGIC>MOL_PROPERTY
Bond
SciTegic.value.DoubleValue
0.054

@<SCITEGIC>MOL_PROPERTY
Angle
SciTegic.value.DoubleValue
4.033

@<SCITEGIC>MOL_PROPERTY
Pdih
SciTegic.value.DoubleValue
9.702

@<SCITEGIC>MOL_PROPERTY
Idih
SciTegic.value.DoubleValue
0.000

@<SCITEGIC>MOL_PROPERTY
Tether
SciTegic.value.DoubleValue
0.000

@<TRIPOS>MOLECULE
guest-4_confgen4.mol2 : confsearch ligand conformer 297
          16          16           1
SMALL
USER_CHARGES
 
@<TRIPOS>ATOM
       1    C1      18.953031   17.657644   21.423419 C.3        1 MOL1        -0.1689
       2    H1      18.361849   18.030310   20.575569 H          1 MOL1         0.0830
       3    H2      19.036005   16.567213   21.318195 H          1 MOL1         0.0830
       4    C2      18.270609   18.049642   22.752200 C.3        1 MOL1        -0.1689
       5    H3      17.348619   18.611096   22.547434 H          1 MOL1         0.0830
       6    H4      17.997515   17.164256   23.342548 H          1 MOL1         0.0830
       7    C3      19.276678   18.936860   23.515814 C.3        1 MOL1        -0.1765
       8    H5      19.820386   18.327111   24.249440 H          1 MOL1         0.0830
       9    H6      18.782654   19.752803   24.060041 H          1 MOL1         0.0830
      10    C4      20.268543   19.455370   22.465887 C.3        1 MOL1         0.1214
      11    H7      21.252309   19.667709   22.908718 H          1 MOL1         0.0787
      12    C5      20.346324   18.321700   21.434530 C.3        1 MOL1        -0.1765
      13    H8      20.643215   18.682950   20.440871 H          1 MOL1         0.0830
      14    H9      21.097983   17.591813   21.763006 H          1 MOL1         0.0830
      15    O1      19.730715   20.614793   21.846785 O.3        1 MOL1        -0.5512
      16    H10     18.865317   20.332493   21.485458 H          1 MOL1         0.3776
@<TRIPOS>BOND
    1     1     2    1
    2     1     3    1
    3     1     4    1
    4     4     5    1
    5     4     6    1
    6     4     7    1
    7     7     8    1
    8     7     9    1
    9     7    10    1
   10    10    11    1
   11     1    12    1
   12    10    12    1
   13    12    13    1
   14    12    14    1
   15    10    15    1
   16    15    16    1
@<TRIPOS>SUBSTRUCTURE
       1 MOL1            1 RESIDUE      1      MOL     
@<SCITEGIC>MOL_PROPERTY
VConf Rank
SciTegic.value.IntegerValue
297

@<SCITEGIC>MOL_PROPERTY
Conf_Id
SciTegic.value.IntegerValue
20

@<SCITEGIC>MOL_PROPERTY
Delta U+W
SciTegic.value.DoubleValue
-0.483

@<SCITEGIC>MOL_PROPERTY
U+W
SciTegic.value.DoubleValue
2.527

@<SCITEGIC>MOL_PROPERTY
Grad RMS
SciTegic.value.DoubleValue
0.000000

@<SCITEGIC>MOL_PROPERTY
U
SciTegic.value.DoubleValue
4.508

@<SCITEGIC>MOL_PROPERTY
W
SciTegic.value.DoubleValue
-1.981

@<SCITEGIC>MOL_PROPERTY
W(PB)
SciTegic.value.DoubleValue
-3.712

@<SCITEGIC>MOL_PROPERTY
W(SA)
SciTegic.value.DoubleValue
1.732

@<SCITEGIC>MOL_PROPERTY
Valence
SciTegic.value.DoubleValue
14.705

@<SCITEGIC>MOL_PROPERTY
Coulomb
SciTegic.value.DoubleValue
-10.687

@<SCITEGIC>MOL_PROPERTY
VdW
SciTegic.value.DoubleValue
0.490

@<SCITEGIC>MOL_PROPERTY
VdW6
SciTegic.value.DoubleValue
-3.745

@<SCITEGIC>MOL_PROPERTY
VdW12
SciTegic.value.DoubleValue
4.235

@<SCITEGIC>MOL_PROPERTY
Bond
SciTegic.value.DoubleValue
0.068

@<SCITEGIC>MOL_PROPERTY
Angle
SciTegic.value.DoubleValue
3.901

@<SCITEGIC>MOL_PROPERTY
Pdih
SciTegic.value.DoubleValue
10.737

@<SCITEGIC>MOL_PROPERTY
Idih
SciTegic.value.DoubleValue
0.000

@<SCITEGIC>MOL_PROPERTY
Tether
SciTegic.value.DoubleValue
0.000

@<TRIPOS>MOLECULE
guest-4_confgen4.mol2 : confsearch ligand conformer 298
          16          16           1
SMALL
USER_CHARGES
 
@<TRIPOS>ATOM
       1    C1      18.614972   19.424533   21.417593 C.3        1 MOL1        -0.1689
       2    H1      18.527835   20.378906   21.955419 H          1 MOL1         0.0830
       3    H2      18.161785   19.546601   20.424433 H          1 MOL1         0.0830
       4    C2      17.945611   18.310820   22.234493 C.3        1 MOL1        -0.1689
       5    H3      17.014579   18.644875   22.712348 H          1 MOL1         0.0830
       6    H4      17.709435   17.461794   21.577986 H          1 MOL1         0.0830
       7    C3      19.014330   17.893755   23.261359 C.3        1 MOL1        -0.1765
       8    H5      18.906776   16.839236   23.546435 H          1 MOL1         0.0830
       9    H6      18.902504   18.501851   24.169378 H          1 MOL1         0.0830
      10    C4      20.382104   18.166068   22.600511 C.3        1 MOL1         0.1214
      11    H7      20.852108   17.217209   22.303388 H          1 MOL1         0.0787
      12    C5      20.095780   19.009272   21.340806 C.3        1 MOL1        -0.1765
      13    H8      20.757137   19.882674   21.264662 H          1 MOL1         0.0830
      14    H9      20.258713   18.388719   20.450049 H          1 MOL1         0.0830
      15    O1      21.223548   18.887071   23.492708 O.3        1 MOL1        -0.5512
      16    H10     21.362347   18.312150   24.274842 H          1 MOL1         0.3776
@<TRIPOS>BOND
    1     1     2    1
    2     1     3    1
    3     1     4    1
    4     4     5    1
    5     4     6    1
    6     4     7    1
    7     7     8    1
    8     7     9    1
    9     7    10    1
   10    10    11    1
   11     1    12    1
   12    10    12    1
   13    12    13    1
   14    12    14    1
   15    10    15    1
   16    15    16    1
@<TRIPOS>SUBSTRUCTURE
       1 MOL1            1 RESIDUE      1      MOL     
@<SCITEGIC>MOL_PROPERTY
VConf Rank
SciTegic.value.IntegerValue
298

@<SCITEGIC>MOL_PROPERTY
Conf_Id
SciTegic.value.IntegerValue
59

@<SCITEGIC>MOL_PROPERTY
Delta U+W
SciTegic.value.DoubleValue
0.000

@<SCITEGIC>MOL_PROPERTY
U+W
SciTegic.value.DoubleValue
3.010

@<SCITEGIC>MOL_PROPERTY
Grad RMS
SciTegic.value.DoubleValue
0.000000

@<SCITEGIC>MOL_PROPERTY
U
SciTegic.value.DoubleValue
5.843

@<SCITEGIC>MOL_PROPERTY
W
SciTegic.value.DoubleValue
-2.833

@<SCITEGIC>MOL_PROPERTY
W(PB)
SciTegic.value.DoubleValue
-4.568

@<SCITEGIC>MOL_PROPERTY
W(SA)
SciTegic.value.DoubleValue
1.735

@<SCITEGIC>MOL_PROPERTY
Valence
SciTegic.value.DoubleValue
13.789

@<SCITEGIC>MOL_PROPERTY
Coulomb
SciTegic.value.DoubleValue
-8.574

@<SCITEGIC>MOL_PROPERTY
VdW
SciTegic.value.DoubleValue
0.628

@<SCITEGIC>MOL_PROPERTY
VdW6
SciTegic.value.DoubleValue
-3.284

@<SCITEGIC>MOL_PROPERTY
VdW12
SciTegic.value.DoubleValue
3.912

@<SCITEGIC>MOL_PROPERTY
Bond
SciTegic.value.DoubleValue
0.054

@<SCITEGIC>MOL_PROPERTY
Angle
SciTegic.value.DoubleValue
4.034

@<SCITEGIC>MOL_PROPERTY
Pdih
SciTegic.value.DoubleValue
9.702

@<SCITEGIC>MOL_PROPERTY
Idih
SciTegic.value.DoubleValue
0.000

@<SCITEGIC>MOL_PROPERTY
Tether
SciTegic.value.DoubleValue
0.000

@<TRIPOS>MOLECULE
guest-4_confgen4.mol2 : confsearch ligand conformer 299
          16          16           1
SMALL
USER_CHARGES
 
@<TRIPOS>ATOM
       1    C1      20.146926   17.656282   21.477645 C.3        1 MOL1        -0.1689
       2    H1      20.457428   17.522246   20.432475 H          1 MOL1         0.0830
       3    H2      20.608586   16.860022   22.078030 H          1 MOL1         0.0830
       4    C2      18.621855   17.610189   21.644258 C.3        1 MOL1        -0.1689
       5    H3      18.143762   18.136345   20.806245 H          1 MOL1         0.0830
       6    H4      18.233703   16.582955   21.672025 H          1 MOL1         0.0830
       7    C3      18.354066   18.375169   22.953521 C.3        1 MOL1        -0.1765
       8    H5      18.373030   17.675714   23.799387 H          1 MOL1         0.0830
       9    H6      17.369086   18.860701   22.943902 H          1 MOL1         0.0830
      10    C4      19.505329   19.389445   23.113633 C.3        1 MOL1         0.1214
      11    H7      19.945211   19.284469   24.116132 H          1 MOL1         0.0787
      12    C5      20.552139   19.032178   22.037398 C.3        1 MOL1        -0.1765
      13    H8      20.533488   19.773804   21.227197 H          1 MOL1         0.0830
      14    H9      21.567782   19.012685   22.453253 H          1 MOL1         0.0830
      15    O1      19.024775   20.713005   22.910764 O.3        1 MOL1        -0.5512
      16    H10     19.795449   21.310702   23.012493 H          1 MOL1         0.3776
@<TRIPOS>BOND
    1     1     2    1
    2     1     3    1
    3     1     4    1
    4     4     5    1
    5     4     6    1
    6     4     7    1
    7     7     8    1
    8     7     9    1
    9     7    10    1
   10    10    11    1
   11     1    12    1
   12    10    12    1
   13    12    13    1
   14    12    14    1
   15    10    15    1
   16    15    16    1
@<TRIPOS>SUBSTRUCTURE
       1 MOL1            1 RESIDUE      1      MOL     
@<SCITEGIC>MOL_PROPERTY
VConf Rank
SciTegic.value.IntegerValue
299

@<SCITEGIC>MOL_PROPERTY
Conf_Id
SciTegic.value.IntegerValue
33

@<SCITEGIC>MOL_PROPERTY
Delta U+W
SciTegic.value.DoubleValue
0.015

@<SCITEGIC>MOL_PROPERTY
U+W
SciTegic.value.DoubleValue
3.025

@<SCITEGIC>MOL_PROPERTY
Grad RMS
SciTegic.value.DoubleValue
0.000000

@<SCITEGIC>MOL_PROPERTY
U
SciTegic.value.DoubleValue
5.843

@<SCITEGIC>MOL_PROPERTY
W
SciTegic.value.DoubleValue
-2.819

@<SCITEGIC>MOL_PROPERTY
W(PB)
SciTegic.value.DoubleValue
-4.568

@<SCITEGIC>MOL_PROPERTY
W(SA)
SciTegic.value.DoubleValue
1.750

@<SCITEGIC>MOL_PROPERTY
Valence
SciTegic.value.DoubleValue
13.789

@<SCITEGIC>MOL_PROPERTY
Coulomb
SciTegic.value.DoubleValue
-8.574

@<SCITEGIC>MOL_PROPERTY
VdW
SciTegic.value.DoubleValue
0.628

@<SCITEGIC>MOL_PROPERTY
VdW6
SciTegic.value.DoubleValue
-3.284

@<SCITEGIC>MOL_PROPERTY
VdW12
SciTegic.value.DoubleValue
3.913

@<SCITEGIC>MOL_PROPERTY
Bond
SciTegic.value.DoubleValue
0.054

@<SCITEGIC>MOL_PROPERTY
Angle
SciTegic.value.DoubleValue
4.033

@<SCITEGIC>MOL_PROPERTY
Pdih
SciTegic.value.DoubleValue
9.702

@<SCITEGIC>MOL_PROPERTY
Idih
SciTegic.value.DoubleValue
0.000

@<SCITEGIC>MOL_PROPERTY
Tether
SciTegic.value.DoubleValue
0.000

@<TRIPOS>MOLECULE
guest-4_confgen4.mol2 : confsearch ligand conformer 300
          16          16           1
SMALL
USER_CHARGES
 
@<TRIPOS>ATOM
       1    C1      19.054502   19.837363   22.675620 C.3        1 MOL1        -0.1689
       2    H1      18.035389   20.150973   22.410507 H          1 MOL1         0.0830
       3    H2      19.517652   20.655394   23.244227 H          1 MOL1         0.0830
       4    C2      19.853914   19.512317   21.394875 C.3        1 MOL1        -0.1689
       5    H3      19.222037   19.669628   20.509883 H          1 MOL1         0.0830
       6    H4      20.735833   20.159659   21.294044 H          1 MOL1         0.0830
       7    C3      20.264296   18.028075   21.499980 C.3        1 MOL1        -0.1765
       8    H5      21.293687   17.957791   21.875528 H          1 MOL1         0.0830
       9    H6      20.227155   17.516190   20.529104 H          1 MOL1         0.0830
      10    C4      19.314995   17.396225   22.526910 C.3        1 MOL1         0.1214
      11    H7      19.780638   16.539351   23.034775 H          1 MOL1         0.0787
      12    C5      19.012895   18.537660   23.507123 C.3        1 MOL1        -0.1765
      13    H8      18.051256   18.402116   24.019842 H          1 MOL1         0.0830
      14    H9      19.798820   18.567023   24.273336 H          1 MOL1         0.0830
      15    O1      18.113709   17.008039   21.876501 O.3        1 MOL1        -0.5512
      16    H10     17.774976   17.825959   21.457658 H          1 MOL1         0.3776
@<TRIPOS>BOND
    1     1     2    1
    2     1     3    1
    3     1     4    1
    4     4     5    1
    5     4     6    1
    6     4     7    1
    7     7     8    1
    8     7     9    1
    9     7    10    1
   10    10    11    1
   11     1    12    1
   12    10    12    1
   13    12    13    1
   14    12    14    1
   15    10    15    1
   16    15    16    1
@<TRIPOS>SUBSTRUCTURE
       1 MOL1            1 RESIDUE      1      MOL     
@<SCITEGIC>MOL_PROPERTY
VConf Rank
SciTegic.value.IntegerValue
300

@<SCITEGIC>MOL_PROPERTY
Conf_Id
SciTegic.value.IntegerValue
20

@<SCITEGIC>MOL_PROPERTY
Delta U+W
SciTegic.value.DoubleValue
-0.483

@<SCITEGIC>MOL_PROPERTY
U+W
SciTegic.value.DoubleValue
2.527

@<SCITEGIC>MOL_PROPERTY
Grad RMS
SciTegic.value.DoubleValue
0.000000

@<SCITEGIC>MOL_PROPERTY
U
SciTegic.value.DoubleValue
4.508

@<SCITEGIC>MOL_PROPERTY
W
SciTegic.value.DoubleValue
-1.981

@<SCITEGIC>MOL_PROPERTY
W(PB)
SciTegic.value.DoubleValue
-3.712

@<SCITEGIC>MOL_PROPERTY
W(SA)
SciTegic.value.DoubleValue
1.732

@<SCITEGIC>MOL_PROPERTY
Valence
SciTegic.value.DoubleValue
14.705

@<SCITEGIC>MOL_PROPERTY
Coulomb
SciTegic.value.DoubleValue
-10.687

@<SCITEGIC>MOL_PROPERTY
VdW
SciTegic.value.DoubleValue
0.490

@<SCITEGIC>MOL_PROPERTY
VdW6
SciTegic.value.DoubleValue
-3.745

@<SCITEGIC>MOL_PROPERTY
VdW12
SciTegic.value.DoubleValue
4.235

@<SCITEGIC>MOL_PROPERTY
Bond
SciTegic.value.DoubleValue
0.068

@<SCITEGIC>MOL_PROPERTY
Angle
SciTegic.value.DoubleValue
3.901

@<SCITEGIC>MOL_PROPERTY
Pdih
SciTegic.value.DoubleValue
10.737

@<SCITEGIC>MOL_PROPERTY
Idih
SciTegic.value.DoubleValue
0.000

@<SCITEGIC>MOL_PROPERTY
Tether
SciTegic.value.DoubleValue
0.000

@<TRIPOS>MOLECULE
guest-4_confgen4.mol2 : confsearch ligand conformer 301
          16          16           1
SMALL
USER_CHARGES
 
@<TRIPOS>ATOM
       1    C1      20.351032   19.084079   21.393871 C.3        1 MOL1        -0.1689
       2    H1      20.276411   18.450235   20.499249 H          1 MOL1         0.0830
       3    H2      21.090990   19.871663   21.196848 H          1 MOL1         0.0830
       4    C2      20.723230   18.220203   22.606684 C.3        1 MOL1        -0.1689
       5    H3      21.463423   17.447499   22.358084 H          1 MOL1         0.0830
       6    H4      21.143039   18.856057   23.398566 H          1 MOL1         0.0830
       7    C3      19.384780   17.620373   23.074992 C.3        1 MOL1        -0.1765
       8    H5      19.388362   17.426229   24.155335 H          1 MOL1         0.0830
       9    H6      19.215475   16.664408   22.560938 H          1 MOL1         0.0830
      10    C4      18.292039   18.638022   22.685138 C.3        1 MOL1         0.1214
      11    H7      17.928102   19.161322   23.581367 H          1 MOL1         0.0787
      12    C5      18.963039   19.654789   21.738683 C.3        1 MOL1        -0.1765
      13    H8      18.366428   19.840221   20.835527 H          1 MOL1         0.0830
      14    H9      19.078285   20.611421   22.264663 H          1 MOL1         0.0830
      15    O1      17.222497   17.978500   22.018055 O.3        1 MOL1        -0.5512
      16    H10     16.842434   17.340512   22.658410 H          1 MOL1         0.3776
@<TRIPOS>BOND
    1     1     2    1
    2     1     3    1
    3     1     4    1
    4     4     5    1
    5     4     6    1
    6     4     7    1
    7     7     8    1
    8     7     9    1
    9     7    10    1
   10    10    11    1
   11     1    12    1
   12    10    12    1
   13    12    13    1
   14    12    14    1
   15    10    15    1
   16    15    16    1
@<TRIPOS>SUBSTRUCTURE
       1 MOL1            1 RESIDUE      1      MOL     
@<SCITEGIC>MOL_PROPERTY
VConf Rank
SciTegic.value.IntegerValue
301

@<SCITEGIC>MOL_PROPERTY
Conf_Id
SciTegic.value.IntegerValue
59

@<SCITEGIC>MOL_PROPERTY
Delta U+W
SciTegic.value.DoubleValue
0.000

@<SCITEGIC>MOL_PROPERTY
U+W
SciTegic.value.DoubleValue
3.010

@<SCITEGIC>MOL_PROPERTY
Grad RMS
SciTegic.value.DoubleValue
0.000000

@<SCITEGIC>MOL_PROPERTY
U
SciTegic.value.DoubleValue
5.843

@<SCITEGIC>MOL_PROPERTY
W
SciTegic.value.DoubleValue
-2.833

@<SCITEGIC>MOL_PROPERTY
W(PB)
SciTegic.value.DoubleValue
-4.568

@<SCITEGIC>MOL_PROPERTY
W(SA)
SciTegic.value.DoubleValue
1.735

@<SCITEGIC>MOL_PROPERTY
Valence
SciTegic.value.DoubleValue
13.789

@<SCITEGIC>MOL_PROPERTY
Coulomb
SciTegic.value.DoubleValue
-8.574

@<SCITEGIC>MOL_PROPERTY
VdW
SciTegic.value.DoubleValue
0.628

@<SCITEGIC>MOL_PROPERTY
VdW6
SciTegic.value.DoubleValue
-3.284

@<SCITEGIC>MOL_PROPERTY
VdW12
SciTegic.value.DoubleValue
3.912

@<SCITEGIC>MOL_PROPERTY
Bond
SciTegic.value.DoubleValue
0.054

@<SCITEGIC>MOL_PROPERTY
Angle
SciTegic.value.DoubleValue
4.034

@<SCITEGIC>MOL_PROPERTY
Pdih
SciTegic.value.DoubleValue
9.702

@<SCITEGIC>MOL_PROPERTY
Idih
SciTegic.value.DoubleValue
0.000

@<SCITEGIC>MOL_PROPERTY
Tether
SciTegic.value.DoubleValue
0.000

@<TRIPOS>MOLECULE
guest-4_confgen4.mol2 : confsearch ligand conformer 302
          16          16           1
SMALL
USER_CHARGES
 
@<TRIPOS>ATOM
       1    C1      19.569556   18.334884   20.888896 C.3        1 MOL1        -0.1689
       2    H1      18.988857   17.870439   20.080293 H          1 MOL1         0.0830
       3    H2      20.452251   18.816218   20.445289 H          1 MOL1         0.0830
       4    C2      20.014219   17.316643   21.947758 C.3        1 MOL1        -0.1689
       5    H3      19.203516   16.597606   22.130583 H          1 MOL1         0.0830
       6    H4      20.908386   16.756676   21.641910 H          1 MOL1         0.0830
       7    C3      20.252727   18.158046   23.215130 C.3        1 MOL1        -0.1765
       8    H5      21.296099   18.498368   23.240468 H          1 MOL1         0.0830
       9    H6      20.069442   17.575322   24.127740 H          1 MOL1         0.0830
      10    C4      19.325467   19.386308   23.108555 C.3        1 MOL1         0.1214
      11    H7      19.914267   20.301104   23.269746 H          1 MOL1         0.0787
      12    C5      18.750364   19.373750   21.676482 C.3        1 MOL1        -0.1765
      13    H8      17.695355   19.068008   21.692609 H          1 MOL1         0.0830
      14    H9      18.806719   20.365940   21.210401 H          1 MOL1         0.0830
      15    O1      18.273077   19.290563   24.061029 O.3        1 MOL1        -0.5512
      16    H10     17.712313   20.086037   23.941468 H          1 MOL1         0.3776
@<TRIPOS>BOND
    1     1     2    1
    2     1     3    1
    3     1     4    1
    4     4     5    1
    5     4     6    1
    6     4     7    1
    7     7     8    1
    8     7     9    1
    9     7    10    1
   10    10    11    1
   11     1    12    1
   12    10    12    1
   13    12    13    1
   14    12    14    1
   15    10    15    1
   16    15    16    1
@<TRIPOS>SUBSTRUCTURE
       1 MOL1            1 RESIDUE      1      MOL     
@<SCITEGIC>MOL_PROPERTY
VConf Rank
SciTegic.value.IntegerValue
302

@<SCITEGIC>MOL_PROPERTY
Conf_Id
SciTegic.value.IntegerValue
33

@<SCITEGIC>MOL_PROPERTY
Delta U+W
SciTegic.value.DoubleValue
0.015

@<SCITEGIC>MOL_PROPERTY
U+W
SciTegic.value.DoubleValue
3.025

@<SCITEGIC>MOL_PROPERTY
Grad RMS
SciTegic.value.DoubleValue
0.000000

@<SCITEGIC>MOL_PROPERTY
U
SciTegic.value.DoubleValue
5.843

@<SCITEGIC>MOL_PROPERTY
W
SciTegic.value.DoubleValue
-2.819

@<SCITEGIC>MOL_PROPERTY
W(PB)
SciTegic.value.DoubleValue
-4.568

@<SCITEGIC>MOL_PROPERTY
W(SA)
SciTegic.value.DoubleValue
1.750

@<SCITEGIC>MOL_PROPERTY
Valence
SciTegic.value.DoubleValue
13.789

@<SCITEGIC>MOL_PROPERTY
Coulomb
SciTegic.value.DoubleValue
-8.574

@<SCITEGIC>MOL_PROPERTY
VdW
SciTegic.value.DoubleValue
0.628

@<SCITEGIC>MOL_PROPERTY
VdW6
SciTegic.value.DoubleValue
-3.284

@<SCITEGIC>MOL_PROPERTY
VdW12
SciTegic.value.DoubleValue
3.913

@<SCITEGIC>MOL_PROPERTY
Bond
SciTegic.value.DoubleValue
0.054

@<SCITEGIC>MOL_PROPERTY
Angle
SciTegic.value.DoubleValue
4.033

@<SCITEGIC>MOL_PROPERTY
Pdih
SciTegic.value.DoubleValue
9.702

@<SCITEGIC>MOL_PROPERTY
Idih
SciTegic.value.DoubleValue
0.000

@<SCITEGIC>MOL_PROPERTY
Tether
SciTegic.value.DoubleValue
0.000

@<TRIPOS>MOLECULE
guest-4_confgen4.mol2 : confsearch ligand conformer 303
          16          16           1
SMALL
USER_CHARGES
 
@<TRIPOS>ATOM
       1    C1      19.168170   17.929135   23.388132 C.3        1 MOL1        -0.1689
       2    H1      18.591790   18.477412   24.146027 H          1 MOL1         0.0830
       3    H2      19.395268   16.934968   23.796855 H          1 MOL1         0.0830
       4    C2      20.455728   18.708525   23.042059 C.3        1 MOL1        -0.1689
       5    H3      20.503014   19.633465   23.633226 H          1 MOL1         0.0830
       6    H4      21.356366   18.121641   23.268812 H          1 MOL1         0.0830
       7    C3      20.374739   19.041248   21.537010 C.3        1 MOL1        -0.1765
       8    H5      20.952136   18.301986   20.966287 H          1 MOL1         0.0830
       9    H6      20.783931   20.034197   21.307623 H          1 MOL1         0.0830
      10    C4      18.893644   18.920257   21.153978 C.3        1 MOL1         0.1214
      11    H7      18.770202   18.654070   20.094313 H          1 MOL1         0.0787
      12    C5      18.358071   17.819091   22.078938 C.3        1 MOL1        -0.1765
      13    H8      17.276933   17.908583   22.249635 H          1 MOL1         0.0830
      14    H9      18.543138   16.841716   21.614061 H          1 MOL1         0.0830
      15    O1      18.232750   20.141947   21.449780 O.3        1 MOL1        -0.5512
      16    H10     18.395873   20.295521   22.403178 H          1 MOL1         0.3776
@<TRIPOS>BOND
    1     1     2    1
    2     1     3    1
    3     1     4    1
    4     4     5    1
    5     4     6    1
    6     4     7    1
    7     7     8    1
    8     7     9    1
    9     7    10    1
   10    10    11    1
   11     1    12    1
   12    10    12    1
   13    12    13    1
   14    12    14    1
   15    10    15    1
   16    15    16    1
@<TRIPOS>SUBSTRUCTURE
       1 MOL1            1 RESIDUE      1      MOL     
@<SCITEGIC>MOL_PROPERTY
VConf Rank
SciTegic.value.IntegerValue
303

@<SCITEGIC>MOL_PROPERTY
Conf_Id
SciTegic.value.IntegerValue
20

@<SCITEGIC>MOL_PROPERTY
Delta U+W
SciTegic.value.DoubleValue
-0.483

@<SCITEGIC>MOL_PROPERTY
U+W
SciTegic.value.DoubleValue
2.527

@<SCITEGIC>MOL_PROPERTY
Grad RMS
SciTegic.value.DoubleValue
0.000000

@<SCITEGIC>MOL_PROPERTY
U
SciTegic.value.DoubleValue
4.508

@<SCITEGIC>MOL_PROPERTY
W
SciTegic.value.DoubleValue
-1.981

@<SCITEGIC>MOL_PROPERTY
W(PB)
SciTegic.value.DoubleValue
-3.712

@<SCITEGIC>MOL_PROPERTY
W(SA)
SciTegic.value.DoubleValue
1.732

@<SCITEGIC>MOL_PROPERTY
Valence
SciTegic.value.DoubleValue
14.705

@<SCITEGIC>MOL_PROPERTY
Coulomb
SciTegic.value.DoubleValue
-10.687

@<SCITEGIC>MOL_PROPERTY
VdW
SciTegic.value.DoubleValue
0.490

@<SCITEGIC>MOL_PROPERTY
VdW6
SciTegic.value.DoubleValue
-3.745

@<SCITEGIC>MOL_PROPERTY
VdW12
SciTegic.value.DoubleValue
4.235

@<SCITEGIC>MOL_PROPERTY
Bond
SciTegic.value.DoubleValue
0.068

@<SCITEGIC>MOL_PROPERTY
Angle
SciTegic.value.DoubleValue
3.901

@<SCITEGIC>MOL_PROPERTY
Pdih
SciTegic.value.DoubleValue
10.737

@<SCITEGIC>MOL_PROPERTY
Idih
SciTegic.value.DoubleValue
0.000

@<SCITEGIC>MOL_PROPERTY
Tether
SciTegic.value.DoubleValue
0.000

@<TRIPOS>MOLECULE
guest-4_confgen4.mol2 : confsearch ligand conformer 304
          16          16           1
SMALL
USER_CHARGES
 
@<TRIPOS>ATOM
       1    C1      18.637427   17.469477   21.667660 C.3        1 MOL1        -0.1689
       2    H1      17.621539   17.515119   22.084271 H          1 MOL1         0.0830
       3    H2      18.663354   16.674259   20.910296 H          1 MOL1         0.0830
       4    C2      19.647320   17.234383   22.799283 C.3        1 MOL1        -0.1689
       5    H3      19.276317   16.522777   23.549438 H          1 MOL1         0.0830
       6    H4      20.583560   16.837501   22.382670 H          1 MOL1         0.0830
       7    C3      19.892651   18.634546   23.390817 C.3        1 MOL1        -0.1765
       8    H5      20.901198   18.719443   23.815638 H          1 MOL1         0.0830
       9    H6      19.170122   18.819878   24.197283 H          1 MOL1         0.0830
      10    C4      19.676364   19.637648   22.238130 C.3        1 MOL1         0.1214
      11    H7      20.643964   20.035058   21.898522 H          1 MOL1         0.0787
      12    C5      19.019835   18.844431   21.089388 C.3        1 MOL1        -0.1765
      13    H8      18.147615   19.363307   20.669838 H          1 MOL1         0.0830
      14    H9      19.751003   18.713753   20.281057 H          1 MOL1         0.0830
      15    O1      18.818871   20.691849   22.659146 O.3        1 MOL1        -0.5512
      16    H10     19.278428   21.152107   23.392973 H          1 MOL1         0.3776
@<TRIPOS>BOND
    1     1     2    1
    2     1     3    1
    3     1     4    1
    4     4     5    1
    5     4     6    1
    6     4     7    1
    7     7     8    1
    8     7     9    1
    9     7    10    1
   10    10    11    1
   11     1    12    1
   12    10    12    1
   13    12    13    1
   14    12    14    1
   15    10    15    1
   16    15    16    1
@<TRIPOS>SUBSTRUCTURE
       1 MOL1            1 RESIDUE      1      MOL     
@<SCITEGIC>MOL_PROPERTY
VConf Rank
SciTegic.value.IntegerValue
304

@<SCITEGIC>MOL_PROPERTY
Conf_Id
SciTegic.value.IntegerValue
59

@<SCITEGIC>MOL_PROPERTY
Delta U+W
SciTegic.value.DoubleValue
0.000

@<SCITEGIC>MOL_PROPERTY
U+W
SciTegic.value.DoubleValue
3.010

@<SCITEGIC>MOL_PROPERTY
Grad RMS
SciTegic.value.DoubleValue
0.000000

@<SCITEGIC>MOL_PROPERTY
U
SciTegic.value.DoubleValue
5.843

@<SCITEGIC>MOL_PROPERTY
W
SciTegic.value.DoubleValue
-2.833

@<SCITEGIC>MOL_PROPERTY
W(PB)
SciTegic.value.DoubleValue
-4.568

@<SCITEGIC>MOL_PROPERTY
W(SA)
SciTegic.value.DoubleValue
1.735

@<SCITEGIC>MOL_PROPERTY
Valence
SciTegic.value.DoubleValue
13.789

@<SCITEGIC>MOL_PROPERTY
Coulomb
SciTegic.value.DoubleValue
-8.574

@<SCITEGIC>MOL_PROPERTY
VdW
SciTegic.value.DoubleValue
0.628

@<SCITEGIC>MOL_PROPERTY
VdW6
SciTegic.value.DoubleValue
-3.284

@<SCITEGIC>MOL_PROPERTY
VdW12
SciTegic.value.DoubleValue
3.912

@<SCITEGIC>MOL_PROPERTY
Bond
SciTegic.value.DoubleValue
0.054

@<SCITEGIC>MOL_PROPERTY
Angle
SciTegic.value.DoubleValue
4.034

@<SCITEGIC>MOL_PROPERTY
Pdih
SciTegic.value.DoubleValue
9.702

@<SCITEGIC>MOL_PROPERTY
Idih
SciTegic.value.DoubleValue
0.000

@<SCITEGIC>MOL_PROPERTY
Tether
SciTegic.value.DoubleValue
0.000

@<TRIPOS>MOLECULE
guest-4_confgen4.mol2 : confsearch ligand conformer 305
          16          16           1
SMALL
USER_CHARGES
 
@<TRIPOS>ATOM
       1    C1      19.094337   17.240667   22.065728 C.3        1 MOL1        -0.1689
       2    H1      19.227679   16.256662   22.535530 H          1 MOL1         0.0830
       3    H2      18.384113   17.131059   21.234350 H          1 MOL1         0.0830
       4    C2      20.415166   17.822066   21.543125 C.3        1 MOL1        -0.1689
       5    H3      21.221414   17.604863   22.257595 H          1 MOL1         0.0830
       6    H4      20.699323   17.406491   20.566809 H          1 MOL1         0.0830
       7    C3      20.171681   19.341476   21.486687 C.3        1 MOL1        -0.1765
       8    H5      19.771147   19.614078   20.501626 H          1 MOL1         0.0830
       9    H6      21.101736   19.905849   21.636683 H          1 MOL1         0.0830
      10    C4      19.114461   19.657820   22.564653 C.3        1 MOL1         0.1214
      11    H7      18.300342   20.244086   22.114075 H          1 MOL1         0.0787
      12    C5      18.576053   18.298098   23.057611 C.3        1 MOL1        -0.1765
      13    H8      18.964232   18.076107   24.061014 H          1 MOL1         0.0830
      14    H9      17.479741   18.293948   23.111745 H          1 MOL1         0.0830
      15    O1      19.710668   20.369657   23.642485 O.3        1 MOL1        -0.5512
      16    H10     19.000523   20.532985   24.298646 H          1 MOL1         0.3776
@<TRIPOS>BOND
    1     1     2    1
    2     1     3    1
    3     1     4    1
    4     4     5    1
    5     4     6    1
    6     4     7    1
    7     7     8    1
    8     7     9    1
    9     7    10    1
   10    10    11    1
   11     1    12    1
   12    10    12    1
   13    12    13    1
   14    12    14    1
   15    10    15    1
   16    15    16    1
@<TRIPOS>SUBSTRUCTURE
       1 MOL1            1 RESIDUE      1      MOL     
@<SCITEGIC>MOL_PROPERTY
VConf Rank
SciTegic.value.IntegerValue
305

@<SCITEGIC>MOL_PROPERTY
Conf_Id
SciTegic.value.IntegerValue
33

@<SCITEGIC>MOL_PROPERTY
Delta U+W
SciTegic.value.DoubleValue
0.015

@<SCITEGIC>MOL_PROPERTY
U+W
SciTegic.value.DoubleValue
3.025

@<SCITEGIC>MOL_PROPERTY
Grad RMS
SciTegic.value.DoubleValue
0.000000

@<SCITEGIC>MOL_PROPERTY
U
SciTegic.value.DoubleValue
5.843

@<SCITEGIC>MOL_PROPERTY
W
SciTegic.value.DoubleValue
-2.819

@<SCITEGIC>MOL_PROPERTY
W(PB)
SciTegic.value.DoubleValue
-4.568

@<SCITEGIC>MOL_PROPERTY
W(SA)
SciTegic.value.DoubleValue
1.750

@<SCITEGIC>MOL_PROPERTY
Valence
SciTegic.value.DoubleValue
13.789

@<SCITEGIC>MOL_PROPERTY
Coulomb
SciTegic.value.DoubleValue
-8.574

@<SCITEGIC>MOL_PROPERTY
VdW
SciTegic.value.DoubleValue
0.628

@<SCITEGIC>MOL_PROPERTY
VdW6
SciTegic.value.DoubleValue
-3.284

@<SCITEGIC>MOL_PROPERTY
VdW12
SciTegic.value.DoubleValue
3.913

@<SCITEGIC>MOL_PROPERTY
Bond
SciTegic.value.DoubleValue
0.054

@<SCITEGIC>MOL_PROPERTY
Angle
SciTegic.value.DoubleValue
4.033

@<SCITEGIC>MOL_PROPERTY
Pdih
SciTegic.value.DoubleValue
9.702

@<SCITEGIC>MOL_PROPERTY
Idih
SciTegic.value.DoubleValue
0.000

@<SCITEGIC>MOL_PROPERTY
Tether
SciTegic.value.DoubleValue
0.000

@<TRIPOS>MOLECULE
guest-4_confgen4.mol2 : confsearch ligand conformer 306
          16          16           1
SMALL
USER_CHARGES
 
@<TRIPOS>ATOM
       1    C1      20.282922   17.639019   22.410537 C.3        1 MOL1        -0.1689
       2    H1      19.872608   16.622704   22.333252 H          1 MOL1         0.0830
       3    H2      21.364612   17.549694   22.580732 H          1 MOL1         0.0830
       4    C2      19.587998   18.399932   23.560804 C.3        1 MOL1        -0.1689
       5    H3      18.842121   17.751541   24.040890 H          1 MOL1         0.0830
       6    H4      20.306352   18.709541   24.332237 H          1 MOL1         0.0830
       7    C3      18.898107   19.623976   22.921896 C.3        1 MOL1        -0.1765
       8    H5      19.537585   20.508688   23.040103 H          1 MOL1         0.0830
       9    H6      17.929621   19.846901   23.389169 H          1 MOL1         0.0830
      10    C4      18.762312   19.303394   21.427313 C.3        1 MOL1         0.1214
      11    H7      18.752227   20.217717   20.816662 H          1 MOL1         0.0787
      12    C5      19.987889   18.432514   21.119925 C.3        1 MOL1        -0.1765
      13    H8      19.824927   17.775340   20.255304 H          1 MOL1         0.0830
      14    H9      20.839813   19.085129   20.887674 H          1 MOL1         0.0830
      15    O1      17.582515   18.541173   21.217778 O.3        1 MOL1        -0.5512
      16    H10     17.680144   17.756501   21.795637 H          1 MOL1         0.3776
@<TRIPOS>BOND
    1     1     2    1
    2     1     3    1
    3     1     4    1
    4     4     5    1
    5     4     6    1
    6     4     7    1
    7     7     8    1
    8     7     9    1
    9     7    10    1
   10    10    11    1
   11     1    12    1
   12    10    12    1
   13    12    13    1
   14    12    14    1
   15    10    15    1
   16    15    16    1
@<TRIPOS>SUBSTRUCTURE
       1 MOL1            1 RESIDUE      1      MOL     
@<SCITEGIC>MOL_PROPERTY
VConf Rank
SciTegic.value.IntegerValue
306

@<SCITEGIC>MOL_PROPERTY
Conf_Id
SciTegic.value.IntegerValue
20

@<SCITEGIC>MOL_PROPERTY
Delta U+W
SciTegic.value.DoubleValue
-0.483

@<SCITEGIC>MOL_PROPERTY
U+W
SciTegic.value.DoubleValue
2.527

@<SCITEGIC>MOL_PROPERTY
Grad RMS
SciTegic.value.DoubleValue
0.000000

@<SCITEGIC>MOL_PROPERTY
U
SciTegic.value.DoubleValue
4.508

@<SCITEGIC>MOL_PROPERTY
W
SciTegic.value.DoubleValue
-1.981

@<SCITEGIC>MOL_PROPERTY
W(PB)
SciTegic.value.DoubleValue
-3.712

@<SCITEGIC>MOL_PROPERTY
W(SA)
SciTegic.value.DoubleValue
1.732

@<SCITEGIC>MOL_PROPERTY
Valence
SciTegic.value.DoubleValue
14.705

@<SCITEGIC>MOL_PROPERTY
Coulomb
SciTegic.value.DoubleValue
-10.687

@<SCITEGIC>MOL_PROPERTY
VdW
SciTegic.value.DoubleValue
0.490

@<SCITEGIC>MOL_PROPERTY
VdW6
SciTegic.value.DoubleValue
-3.745

@<SCITEGIC>MOL_PROPERTY
VdW12
SciTegic.value.DoubleValue
4.235

@<SCITEGIC>MOL_PROPERTY
Bond
SciTegic.value.DoubleValue
0.068

@<SCITEGIC>MOL_PROPERTY
Angle
SciTegic.value.DoubleValue
3.901

@<SCITEGIC>MOL_PROPERTY
Pdih
SciTegic.value.DoubleValue
10.737

@<SCITEGIC>MOL_PROPERTY
Idih
SciTegic.value.DoubleValue
0.000

@<SCITEGIC>MOL_PROPERTY
Tether
SciTegic.value.DoubleValue
0.000

@<TRIPOS>MOLECULE
guest-4_confgen4.mol2 : confsearch ligand conformer 307
          16          16           1
SMALL
USER_CHARGES
 
@<TRIPOS>ATOM
       1    C1      19.494136   17.107010   22.348062 C.3        1 MOL1        -0.1689
       2    H1      19.162438   16.813802   23.353886 H          1 MOL1         0.0830
       3    H2      19.730029   16.194490   21.783875 H          1 MOL1         0.0830
       4    C2      20.696199   18.054902   22.458848 C.3        1 MOL1        -0.1689
       5    H3      21.392266   17.755988   23.254398 H          1 MOL1         0.0830
       6    H4      21.246319   18.066994   21.507613 H          1 MOL1         0.0830
       7    C3      20.070894   19.438055   22.716602 C.3        1 MOL1        -0.1765
       8    H5      20.702570   20.243861   22.320990 H          1 MOL1         0.0830
       9    H6      19.965022   19.592839   23.799015 H          1 MOL1         0.0830
      10    C4      18.683635   19.420963   22.040658 C.3        1 MOL1         0.1214
      11    H7      18.703734   20.029414   21.124742 H          1 MOL1         0.0787
      12    C5      18.399242   17.950835   21.669610 C.3        1 MOL1        -0.1765
      13    H8      17.394319   17.630627   21.975579 H          1 MOL1         0.0830
      14    H9      18.468410   17.836865   20.579974 H          1 MOL1         0.0830
      15    O1      17.692522   19.900096   22.941777 O.3        1 MOL1        -0.5512
      16    H10     17.927831   20.828793   23.150782 H          1 MOL1         0.3776
@<TRIPOS>BOND
    1     1     2    1
    2     1     3    1
    3     1     4    1
    4     4     5    1
    5     4     6    1
    6     4     7    1
    7     7     8    1
    8     7     9    1
    9     7    10    1
   10    10    11    1
   11     1    12    1
   12    10    12    1
   13    12    13    1
   14    12    14    1
   15    10    15    1
   16    15    16    1
@<TRIPOS>SUBSTRUCTURE
       1 MOL1            1 RESIDUE      1      MOL     
@<SCITEGIC>MOL_PROPERTY
VConf Rank
SciTegic.value.IntegerValue
307

@<SCITEGIC>MOL_PROPERTY
Conf_Id
SciTegic.value.IntegerValue
59

@<SCITEGIC>MOL_PROPERTY
Delta U+W
SciTegic.value.DoubleValue
0.000

@<SCITEGIC>MOL_PROPERTY
U+W
SciTegic.value.DoubleValue
3.010

@<SCITEGIC>MOL_PROPERTY
Grad RMS
SciTegic.value.DoubleValue
0.000000

@<SCITEGIC>MOL_PROPERTY
U
SciTegic.value.DoubleValue
5.843

@<SCITEGIC>MOL_PROPERTY
W
SciTegic.value.DoubleValue
-2.833

@<SCITEGIC>MOL_PROPERTY
W(PB)
SciTegic.value.DoubleValue
-4.568

@<SCITEGIC>MOL_PROPERTY
W(SA)
SciTegic.value.DoubleValue
1.735

@<SCITEGIC>MOL_PROPERTY
Valence
SciTegic.value.DoubleValue
13.789

@<SCITEGIC>MOL_PROPERTY
Coulomb
SciTegic.value.DoubleValue
-8.574

@<SCITEGIC>MOL_PROPERTY
VdW
SciTegic.value.DoubleValue
0.628

@<SCITEGIC>MOL_PROPERTY
VdW6
SciTegic.value.DoubleValue
-3.284

@<SCITEGIC>MOL_PROPERTY
VdW12
SciTegic.value.DoubleValue
3.912

@<SCITEGIC>MOL_PROPERTY
Bond
SciTegic.value.DoubleValue
0.054

@<SCITEGIC>MOL_PROPERTY
Angle
SciTegic.value.DoubleValue
4.034

@<SCITEGIC>MOL_PROPERTY
Pdih
SciTegic.value.DoubleValue
9.702

@<SCITEGIC>MOL_PROPERTY
Idih
SciTegic.value.DoubleValue
0.000

@<SCITEGIC>MOL_PROPERTY
Tether
SciTegic.value.DoubleValue
0.000

@<TRIPOS>MOLECULE
guest-4_confgen4.mol2 : confsearch ligand conformer 308
          16          16           1
SMALL
USER_CHARGES
 
@<TRIPOS>ATOM
       1    C1      19.141366   19.549284   23.334508 C.3        1 MOL1        -0.1689
       2    H1      19.528204   19.865168   24.312942 H          1 MOL1         0.0830
       3    H2      18.341733   20.243497   23.040780 H          1 MOL1         0.0830
       4    C2      18.596805   18.114482   23.357392 C.3        1 MOL1        -0.1689
       5    H3      19.250452   17.482282   23.974439 H          1 MOL1         0.0830
       6    H4      17.578628   18.058636   23.765853 H          1 MOL1         0.0830
       7    C3      18.667616   17.652112   21.890328 C.3        1 MOL1        -0.1765
       8    H5      17.727809   17.900130   21.380099 H          1 MOL1         0.0830
       9    H6      18.811667   16.566007   21.815204 H          1 MOL1         0.0830
      10    C4      19.819309   18.442238   21.235270 C.3        1 MOL1         0.1214
      11    H7      19.456667   18.912887   20.309797 H          1 MOL1         0.0787
      12    C5      20.235452   19.526670   22.251422 C.3        1 MOL1        -0.1765
      13    H8      21.197974   19.266796   22.712723 H          1 MOL1         0.0830
      14    H9      20.345446   20.507901   21.771908 H          1 MOL1         0.0830
      15    O1      20.915613   17.577113   20.964023 O.3        1 MOL1        -0.5512
      16    H10     21.617875   18.130709   20.561671 H          1 MOL1         0.3776
@<TRIPOS>BOND
    1     1     2    1
    2     1     3    1
    3     1     4    1
    4     4     5    1
    5     4     6    1
    6     4     7    1
    7     7     8    1
    8     7     9    1
    9     7    10    1
   10    10    11    1
   11     1    12    1
   12    10    12    1
   13    12    13    1
   14    12    14    1
   15    10    15    1
   16    15    16    1
@<TRIPOS>SUBSTRUCTURE
       1 MOL1            1 RESIDUE      1      MOL     
@<SCITEGIC>MOL_PROPERTY
VConf Rank
SciTegic.value.IntegerValue
308

@<SCITEGIC>MOL_PROPERTY
Conf_Id
SciTegic.value.IntegerValue
33

@<SCITEGIC>MOL_PROPERTY
Delta U+W
SciTegic.value.DoubleValue
0.015

@<SCITEGIC>MOL_PROPERTY
U+W
SciTegic.value.DoubleValue
3.025

@<SCITEGIC>MOL_PROPERTY
Grad RMS
SciTegic.value.DoubleValue
0.000000

@<SCITEGIC>MOL_PROPERTY
U
SciTegic.value.DoubleValue
5.843

@<SCITEGIC>MOL_PROPERTY
W
SciTegic.value.DoubleValue
-2.819

@<SCITEGIC>MOL_PROPERTY
W(PB)
SciTegic.value.DoubleValue
-4.568

@<SCITEGIC>MOL_PROPERTY
W(SA)
SciTegic.value.DoubleValue
1.750

@<SCITEGIC>MOL_PROPERTY
Valence
SciTegic.value.DoubleValue
13.789

@<SCITEGIC>MOL_PROPERTY
Coulomb
SciTegic.value.DoubleValue
-8.574

@<SCITEGIC>MOL_PROPERTY
VdW
SciTegic.value.DoubleValue
0.628

@<SCITEGIC>MOL_PROPERTY
VdW6
SciTegic.value.DoubleValue
-3.284

@<SCITEGIC>MOL_PROPERTY
VdW12
SciTegic.value.DoubleValue
3.913

@<SCITEGIC>MOL_PROPERTY
Bond
SciTegic.value.DoubleValue
0.054

@<SCITEGIC>MOL_PROPERTY
Angle
SciTegic.value.DoubleValue
4.033

@<SCITEGIC>MOL_PROPERTY
Pdih
SciTegic.value.DoubleValue
9.702

@<SCITEGIC>MOL_PROPERTY
Idih
SciTegic.value.DoubleValue
0.000

@<SCITEGIC>MOL_PROPERTY
Tether
SciTegic.value.DoubleValue
0.000

@<TRIPOS>MOLECULE
guest-4_confgen4.mol2 : confsearch ligand conformer 309
          16          16           1
SMALL
USER_CHARGES
 
@<TRIPOS>ATOM
       1    C1      18.250501   19.324256   22.200292 C.3        1 MOL1        -0.1689
       2    H1      18.343969   20.273770   21.655394 H          1 MOL1         0.0830
       3    H2      17.208095   19.233351   22.535139 H          1 MOL1         0.0830
       4    C2      19.233421   19.303198   23.391277 C.3        1 MOL1        -0.1689
       5    H3      19.801832   20.242933   23.423412 H          1 MOL1         0.0830
       6    H4      18.705226   19.200250   24.349093 H          1 MOL1         0.0830
       7    C3      20.185514   18.112112   23.151968 C.3        1 MOL1        -0.1765
       8    H5      19.839361   17.244172   23.728578 H          1 MOL1         0.0830
       9    H6      21.214733   18.332465   23.465271 H          1 MOL1         0.0830
      10    C4      20.090677   17.786081   21.655404 C.3        1 MOL1         0.1214
      11    H7      20.308035   16.726557   21.457552 H          1 MOL1         0.0787
      12    C5      18.644779   18.144355   21.286652 C.3        1 MOL1        -0.1765
      13    H8      18.535319   18.388052   20.221460 H          1 MOL1         0.0830
      14    H9      17.998391   17.282903   21.500439 H          1 MOL1         0.0830
      15    O1      20.979272   18.628485   20.935987 O.3        1 MOL1        -0.5512
      16    H10     20.712628   19.540824   21.171996 H          1 MOL1         0.3776
@<TRIPOS>BOND
    1     1     2    1
    2     1     3    1
    3     1     4    1
    4     4     5    1
    5     4     6    1
    6     4     7    1
    7     7     8    1
    8     7     9    1
    9     7    10    1
   10    10    11    1
   11     1    12    1
   12    10    12    1
   13    12    13    1
   14    12    14    1
   15    10    15    1
   16    15    16    1
@<TRIPOS>SUBSTRUCTURE
       1 MOL1            1 RESIDUE      1      MOL     
@<SCITEGIC>MOL_PROPERTY
VConf Rank
SciTegic.value.IntegerValue
309

@<SCITEGIC>MOL_PROPERTY
Conf_Id
SciTegic.value.IntegerValue
20

@<SCITEGIC>MOL_PROPERTY
Delta U+W
SciTegic.value.DoubleValue
-0.483

@<SCITEGIC>MOL_PROPERTY
U+W
SciTegic.value.DoubleValue
2.527

@<SCITEGIC>MOL_PROPERTY
Grad RMS
SciTegic.value.DoubleValue
0.000000

@<SCITEGIC>MOL_PROPERTY
U
SciTegic.value.DoubleValue
4.508

@<SCITEGIC>MOL_PROPERTY
W
SciTegic.value.DoubleValue
-1.981

@<SCITEGIC>MOL_PROPERTY
W(PB)
SciTegic.value.DoubleValue
-3.712

@<SCITEGIC>MOL_PROPERTY
W(SA)
SciTegic.value.DoubleValue
1.732

@<SCITEGIC>MOL_PROPERTY
Valence
SciTegic.value.DoubleValue
14.705

@<SCITEGIC>MOL_PROPERTY
Coulomb
SciTegic.value.DoubleValue
-10.687

@<SCITEGIC>MOL_PROPERTY
VdW
SciTegic.value.DoubleValue
0.490

@<SCITEGIC>MOL_PROPERTY
VdW6
SciTegic.value.DoubleValue
-3.745

@<SCITEGIC>MOL_PROPERTY
VdW12
SciTegic.value.DoubleValue
4.235

@<SCITEGIC>MOL_PROPERTY
Bond
SciTegic.value.DoubleValue
0.068

@<SCITEGIC>MOL_PROPERTY
Angle
SciTegic.value.DoubleValue
3.901

@<SCITEGIC>MOL_PROPERTY
Pdih
SciTegic.value.DoubleValue
10.737

@<SCITEGIC>MOL_PROPERTY
Idih
SciTegic.value.DoubleValue
0.000

@<SCITEGIC>MOL_PROPERTY
Tether
SciTegic.value.DoubleValue
0.000

@<TRIPOS>MOLECULE
guest-4_confgen4.mol2 : confsearch ligand conformer 310
          16          16           1
SMALL
USER_CHARGES
 
@<TRIPOS>ATOM
       1    C1      19.927617   17.295717   22.767852 C.3        1 MOL1        -0.1689
       2    H1      19.203880   16.901929   23.495048 H          1 MOL1         0.0830
       3    H2      20.733326   16.558366   22.650417 H          1 MOL1         0.0830
       4    C2      20.445912   18.659374   23.244862 C.3        1 MOL1        -0.1689
       5    H3      20.613994   18.686301   24.330119 H          1 MOL1         0.0830
       6    H4      21.396721   18.889215   22.744103 H          1 MOL1         0.0830
       7    C3      19.364965   19.658969   22.794397 C.3        1 MOL1        -0.1765
       8    H5      19.792738   20.650327   22.596747 H          1 MOL1         0.0830
       9    H6      18.615943   19.767329   23.590644 H          1 MOL1         0.0830
      10    C4      18.717191   19.058124   21.529070 C.3        1 MOL1         0.1214
      11    H7      19.050119   19.609631   20.637713 H          1 MOL1         0.0787
      12    C5      19.210582   17.599236   21.439369 C.3        1 MOL1        -0.1765
      13    H8      18.390944   16.892817   21.251785 H          1 MOL1         0.0830
      14    H9      19.922496   17.512607   20.608253 H          1 MOL1         0.0830
      15    O1      17.299319   19.090542   21.640777 O.3        1 MOL1        -0.5512
      16    H10     17.043818   20.035049   21.705256 H          1 MOL1         0.3776
@<TRIPOS>BOND
    1     1     2    1
    2     1     3    1
    3     1     4    1
    4     4     5    1
    5     4     6    1
    6     4     7    1
    7     7     8    1
    8     7     9    1
    9     7    10    1
   10    10    11    1
   11     1    12    1
   12    10    12    1
   13    12    13    1
   14    12    14    1
   15    10    15    1
   16    15    16    1
@<TRIPOS>SUBSTRUCTURE
       1 MOL1            1 RESIDUE      1      MOL     
@<SCITEGIC>MOL_PROPERTY
VConf Rank
SciTegic.value.IntegerValue
310

@<SCITEGIC>MOL_PROPERTY
Conf_Id
SciTegic.value.IntegerValue
59

@<SCITEGIC>MOL_PROPERTY
Delta U+W
SciTegic.value.DoubleValue
0.000

@<SCITEGIC>MOL_PROPERTY
U+W
SciTegic.value.DoubleValue
3.010

@<SCITEGIC>MOL_PROPERTY
Grad RMS
SciTegic.value.DoubleValue
0.000000

@<SCITEGIC>MOL_PROPERTY
U
SciTegic.value.DoubleValue
5.843

@<SCITEGIC>MOL_PROPERTY
W
SciTegic.value.DoubleValue
-2.833

@<SCITEGIC>MOL_PROPERTY
W(PB)
SciTegic.value.DoubleValue
-4.568

@<SCITEGIC>MOL_PROPERTY
W(SA)
SciTegic.value.DoubleValue
1.735

@<SCITEGIC>MOL_PROPERTY
Valence
SciTegic.value.DoubleValue
13.789

@<SCITEGIC>MOL_PROPERTY
Coulomb
SciTegic.value.DoubleValue
-8.574

@<SCITEGIC>MOL_PROPERTY
VdW
SciTegic.value.DoubleValue
0.628

@<SCITEGIC>MOL_PROPERTY
VdW6
SciTegic.value.DoubleValue
-3.284

@<SCITEGIC>MOL_PROPERTY
VdW12
SciTegic.value.DoubleValue
3.912

@<SCITEGIC>MOL_PROPERTY
Bond
SciTegic.value.DoubleValue
0.054

@<SCITEGIC>MOL_PROPERTY
Angle
SciTegic.value.DoubleValue
4.034

@<SCITEGIC>MOL_PROPERTY
Pdih
SciTegic.value.DoubleValue
9.702

@<SCITEGIC>MOL_PROPERTY
Idih
SciTegic.value.DoubleValue
0.000

@<SCITEGIC>MOL_PROPERTY
Tether
SciTegic.value.DoubleValue
0.000

@<TRIPOS>MOLECULE
guest-4_confgen4.mol2 : confsearch ligand conformer 311
          16          16           1
SMALL
USER_CHARGES
 
@<TRIPOS>ATOM
       1    C1      20.052234   17.940035   23.409740 C.3        1 MOL1        -0.1689
       2    H1      20.780912   17.142314   23.608307 H          1 MOL1         0.0830
       3    H2      19.802116   18.422458   24.364900 H          1 MOL1         0.0830
       4    C2      18.772541   17.410567   22.748094 C.3        1 MOL1        -0.1689
       5    H3      19.031918   16.639997   22.008754 H          1 MOL1         0.0830
       6    H4      18.076083   16.970044   23.474406 H          1 MOL1         0.0830
       7    C3      18.175654   18.634601   22.029385 C.3        1 MOL1        -0.1765
       8    H5      17.493451   19.163584   22.707514 H          1 MOL1         0.0830
       9    H6      17.601582   18.341279   21.140327 H          1 MOL1         0.0830
      10    C4      19.359122   19.561434   21.682714 C.3        1 MOL1         0.1214
      11    H7      19.142333   20.577686   22.042929 H          1 MOL1         0.0787
      12    C5      20.588722   18.990642   22.420288 C.3        1 MOL1        -0.1765
      13    H8      21.268482   18.504448   21.707320 H          1 MOL1         0.0830
      14    H9      21.150545   19.778913   22.937812 H          1 MOL1         0.0830
      15    O1      19.586076   19.562801   20.278297 O.3        1 MOL1        -0.5512
      16    H10     20.350844   20.155108   20.117573 H          1 MOL1         0.3776
@<TRIPOS>BOND
    1     1     2    1
    2     1     3    1
    3     1     4    1
    4     4     5    1
    5     4     6    1
    6     4     7    1
    7     7     8    1
    8     7     9    1
    9     7    10    1
   10    10    11    1
   11     1    12    1
   12    10    12    1
   13    12    13    1
   14    12    14    1
   15    10    15    1
   16    15    16    1
@<TRIPOS>SUBSTRUCTURE
       1 MOL1            1 RESIDUE      1      MOL     
@<SCITEGIC>MOL_PROPERTY
VConf Rank
SciTegic.value.IntegerValue
311

@<SCITEGIC>MOL_PROPERTY
Conf_Id
SciTegic.value.IntegerValue
33

@<SCITEGIC>MOL_PROPERTY
Delta U+W
SciTegic.value.DoubleValue
0.015

@<SCITEGIC>MOL_PROPERTY
U+W
SciTegic.value.DoubleValue
3.025

@<SCITEGIC>MOL_PROPERTY
Grad RMS
SciTegic.value.DoubleValue
0.000000

@<SCITEGIC>MOL_PROPERTY
U
SciTegic.value.DoubleValue
5.843

@<SCITEGIC>MOL_PROPERTY
W
SciTegic.value.DoubleValue
-2.819

@<SCITEGIC>MOL_PROPERTY
W(PB)
SciTegic.value.DoubleValue
-4.568

@<SCITEGIC>MOL_PROPERTY
W(SA)
SciTegic.value.DoubleValue
1.750

@<SCITEGIC>MOL_PROPERTY
Valence
SciTegic.value.DoubleValue
13.789

@<SCITEGIC>MOL_PROPERTY
Coulomb
SciTegic.value.DoubleValue
-8.574

@<SCITEGIC>MOL_PROPERTY
VdW
SciTegic.value.DoubleValue
0.628

@<SCITEGIC>MOL_PROPERTY
VdW6
SciTegic.value.DoubleValue
-3.284

@<SCITEGIC>MOL_PROPERTY
VdW12
SciTegic.value.DoubleValue
3.913

@<SCITEGIC>MOL_PROPERTY
Bond
SciTegic.value.DoubleValue
0.054

@<SCITEGIC>MOL_PROPERTY
Angle
SciTegic.value.DoubleValue
4.033

@<SCITEGIC>MOL_PROPERTY
Pdih
SciTegic.value.DoubleValue
9.702

@<SCITEGIC>MOL_PROPERTY
Idih
SciTegic.value.DoubleValue
0.000

@<SCITEGIC>MOL_PROPERTY
Tether
SciTegic.value.DoubleValue
0.000

@<TRIPOS>MOLECULE
guest-4_confgen4.mol2 : confsearch ligand conformer 312
          16          16           1
SMALL
USER_CHARGES
 
@<TRIPOS>ATOM
       1    C1      18.646351   18.251241   21.199620 C.3        1 MOL1        -0.1689
       2    H1      17.992984   17.385329   21.374368 H          1 MOL1         0.0830
       3    H2      18.483436   18.588660   20.166855 H          1 MOL1         0.0830
       4    C2      20.119258   17.855232   21.441989 C.3        1 MOL1        -0.1689
       5    H3      20.178832   16.797409   21.733001 H          1 MOL1         0.0830
       6    H4      20.727058   17.986470   20.536255 H          1 MOL1         0.0830
       7    C3      20.630939   18.753223   22.588389 C.3        1 MOL1        -0.1765
       8    H5      21.177488   19.608090   22.168739 H          1 MOL1         0.0830
       9    H6      21.313313   18.218875   23.262810 H          1 MOL1         0.0830
      10    C4      19.381274   19.268725   23.314742 C.3        1 MOL1         0.1214
      11    H7      19.564130   20.241311   23.793931 H          1 MOL1         0.0787
      12    C5      18.323671   19.374511   22.207836 C.3        1 MOL1        -0.1765
      13    H8      17.301033   19.299781   22.601067 H          1 MOL1         0.0830
      14    H9      18.421133   20.350172   21.713661 H          1 MOL1         0.0830
      15    O1      18.963977   18.303935   24.269651 O.3        1 MOL1        -0.5512
      16    H10     18.826876   17.480799   23.757000 H          1 MOL1         0.3776
@<TRIPOS>BOND
    1     1     2    1
    2     1     3    1
    3     1     4    1
    4     4     5    1
    5     4     6    1
    6     4     7    1
    7     7     8    1
    8     7     9    1
    9     7    10    1
   10    10    11    1
   11     1    12    1
   12    10    12    1
   13    12    13    1
   14    12    14    1
   15    10    15    1
   16    15    16    1
@<TRIPOS>SUBSTRUCTURE
       1 MOL1            1 RESIDUE      1      MOL     
@<SCITEGIC>MOL_PROPERTY
VConf Rank
SciTegic.value.IntegerValue
312

@<SCITEGIC>MOL_PROPERTY
Conf_Id
SciTegic.value.IntegerValue
20

@<SCITEGIC>MOL_PROPERTY
Delta U+W
SciTegic.value.DoubleValue
-0.483

@<SCITEGIC>MOL_PROPERTY
U+W
SciTegic.value.DoubleValue
2.527

@<SCITEGIC>MOL_PROPERTY
Grad RMS
SciTegic.value.DoubleValue
0.000000

@<SCITEGIC>MOL_PROPERTY
U
SciTegic.value.DoubleValue
4.508

@<SCITEGIC>MOL_PROPERTY
W
SciTegic.value.DoubleValue
-1.981

@<SCITEGIC>MOL_PROPERTY
W(PB)
SciTegic.value.DoubleValue
-3.712

@<SCITEGIC>MOL_PROPERTY
W(SA)
SciTegic.value.DoubleValue
1.732

@<SCITEGIC>MOL_PROPERTY
Valence
SciTegic.value.DoubleValue
14.705

@<SCITEGIC>MOL_PROPERTY
Coulomb
SciTegic.value.DoubleValue
-10.687

@<SCITEGIC>MOL_PROPERTY
VdW
SciTegic.value.DoubleValue
0.490

@<SCITEGIC>MOL_PROPERTY
VdW6
SciTegic.value.DoubleValue
-3.745

@<SCITEGIC>MOL_PROPERTY
VdW12
SciTegic.value.DoubleValue
4.235

@<SCITEGIC>MOL_PROPERTY
Bond
SciTegic.value.DoubleValue
0.068

@<SCITEGIC>MOL_PROPERTY
Angle
SciTegic.value.DoubleValue
3.901

@<SCITEGIC>MOL_PROPERTY
Pdih
SciTegic.value.DoubleValue
10.737

@<SCITEGIC>MOL_PROPERTY
Idih
SciTegic.value.DoubleValue
0.000

@<SCITEGIC>MOL_PROPERTY
Tether
SciTegic.value.DoubleValue
0.000

@<TRIPOS>MOLECULE
guest-4_confgen4.mol2 : confsearch ligand conformer 313
          16          16           1
SMALL
USER_CHARGES
 
@<TRIPOS>ATOM
       1    C1      19.489943   17.108132   22.239855 C.3        1 MOL1        -0.1689
       2    H1      19.156188   16.741490   23.220599 H          1 MOL1         0.0830
       3    H2      19.723900   16.239678   21.609224 H          1 MOL1         0.0830
       4    C2      20.694585   18.041530   22.422428 C.3        1 MOL1        -0.1689
       5    H3      21.388829   17.681894   23.194080 H          1 MOL1         0.0830
       6    H4      21.245888   18.123117   21.475309 H          1 MOL1         0.0830
       7    C3      20.072940   19.403368   22.782304 C.3        1 MOL1        -0.1765
       8    H5      20.707403   20.234640   22.448704 H          1 MOL1         0.0830
       9    H6      19.966202   19.477065   23.873157 H          1 MOL1         0.0830
      10    C4      18.686456   19.440979   22.105600 C.3        1 MOL1         0.1214
      11    H7      18.709408   20.116173   21.237784 H          1 MOL1         0.0787
      12    C5      18.398296   18.003569   21.625340 C.3        1 MOL1        -0.1765
      13    H8      17.392089   17.664338   21.905502 H          1 MOL1         0.0830
      14    H9      18.468456   17.971219   20.530300 H          1 MOL1         0.0830
      15    O1      17.695632   19.854288   23.039051 O.3        1 MOL1        -0.5512
      16    H10     17.933351   20.764052   23.317173 H          1 MOL1         0.3776
@<TRIPOS>BOND
    1     1     2    1
    2     1     3    1
    3     1     4    1
    4     4     5    1
    5     4     6    1
    6     4     7    1
    7     7     8    1
    8     7     9    1
    9     7    10    1
   10    10    11    1
   11     1    12    1
   12    10    12    1
   13    12    13    1
   14    12    14    1
   15    10    15    1
   16    15    16    1
@<TRIPOS>SUBSTRUCTURE
       1 MOL1            1 RESIDUE      1      MOL     
@<SCITEGIC>MOL_PROPERTY
VConf Rank
SciTegic.value.IntegerValue
313

@<SCITEGIC>MOL_PROPERTY
Conf_Id
SciTegic.value.IntegerValue
59

@<SCITEGIC>MOL_PROPERTY
Delta U+W
SciTegic.value.DoubleValue
0.000

@<SCITEGIC>MOL_PROPERTY
U+W
SciTegic.value.DoubleValue
3.010

@<SCITEGIC>MOL_PROPERTY
Grad RMS
SciTegic.value.DoubleValue
0.000000

@<SCITEGIC>MOL_PROPERTY
U
SciTegic.value.DoubleValue
5.843

@<SCITEGIC>MOL_PROPERTY
W
SciTegic.value.DoubleValue
-2.833

@<SCITEGIC>MOL_PROPERTY
W(PB)
SciTegic.value.DoubleValue
-4.568

@<SCITEGIC>MOL_PROPERTY
W(SA)
SciTegic.value.DoubleValue
1.735

@<SCITEGIC>MOL_PROPERTY
Valence
SciTegic.value.DoubleValue
13.789

@<SCITEGIC>MOL_PROPERTY
Coulomb
SciTegic.value.DoubleValue
-8.574

@<SCITEGIC>MOL_PROPERTY
VdW
SciTegic.value.DoubleValue
0.628

@<SCITEGIC>MOL_PROPERTY
VdW6
SciTegic.value.DoubleValue
-3.284

@<SCITEGIC>MOL_PROPERTY
VdW12
SciTegic.value.DoubleValue
3.912

@<SCITEGIC>MOL_PROPERTY
Bond
SciTegic.value.DoubleValue
0.054

@<SCITEGIC>MOL_PROPERTY
Angle
SciTegic.value.DoubleValue
4.034

@<SCITEGIC>MOL_PROPERTY
Pdih
SciTegic.value.DoubleValue
9.702

@<SCITEGIC>MOL_PROPERTY
Idih
SciTegic.value.DoubleValue
0.000

@<SCITEGIC>MOL_PROPERTY
Tether
SciTegic.value.DoubleValue
0.000

@<TRIPOS>MOLECULE
guest-4_confgen4.mol2 : confsearch ligand conformer 314
          16          16           1
SMALL
USER_CHARGES
 
@<TRIPOS>ATOM
       1    C1      18.626833   17.458912   22.070105 C.3        1 MOL1        -0.1689
       2    H1      18.527706   16.424597   22.426651 H          1 MOL1         0.0830
       3    H2      17.761064   17.687155   21.432947 H          1 MOL1         0.0830
       4    C2      19.923086   17.682248   21.279172 C.3        1 MOL1        -0.1689
       5    H3      20.745929   17.133373   21.758072 H          1 MOL1         0.0830
       6    H4      19.842924   17.342375   20.237681 H          1 MOL1         0.0830
       7    C3      20.182866   19.196320   21.384885 C.3        1 MOL1        -0.1765
       8    H5      19.694718   19.713171   20.548427 H          1 MOL1         0.0830
       9    H6      21.255658   19.426649   21.339202 H          1 MOL1         0.0830
      10    C4      19.539894   19.661572   22.707732 C.3        1 MOL1         0.1214
      11    H7      18.886041   20.523585   22.510427 H          1 MOL1         0.0787
      12    C5      18.704124   18.472439   23.226565 C.3        1 MOL1        -0.1765
      13    H8      19.201289   18.004449   24.087143 H          1 MOL1         0.0830
      14    H9      17.704184   18.791716   23.547544 H          1 MOL1         0.0830
      15    O1      20.549296   20.000807   23.651090 O.3        1 MOL1        -0.5512
      16    H10     20.087004   20.276545   24.470714 H          1 MOL1         0.3776
@<TRIPOS>BOND
    1     1     2    1
    2     1     3    1
    3     1     4    1
    4     4     5    1
    5     4     6    1
    6     4     7    1
    7     7     8    1
    8     7     9    1
    9     7    10    1
   10    10    11    1
   11     1    12    1
   12    10    12    1
   13    12    13    1
   14    12    14    1
   15    10    15    1
   16    15    16    1
@<TRIPOS>SUBSTRUCTURE
       1 MOL1            1 RESIDUE      1      MOL     
@<SCITEGIC>MOL_PROPERTY
VConf Rank
SciTegic.value.IntegerValue
314

@<SCITEGIC>MOL_PROPERTY
Conf_Id
SciTegic.value.IntegerValue
33

@<SCITEGIC>MOL_PROPERTY
Delta U+W
SciTegic.value.DoubleValue
0.015

@<SCITEGIC>MOL_PROPERTY
U+W
SciTegic.value.DoubleValue
3.025

@<SCITEGIC>MOL_PROPERTY
Grad RMS
SciTegic.value.DoubleValue
0.000000

@<SCITEGIC>MOL_PROPERTY
U
SciTegic.value.DoubleValue
5.843

@<SCITEGIC>MOL_PROPERTY
W
SciTegic.value.DoubleValue
-2.819

@<SCITEGIC>MOL_PROPERTY
W(PB)
SciTegic.value.DoubleValue
-4.568

@<SCITEGIC>MOL_PROPERTY
W(SA)
SciTegic.value.DoubleValue
1.750

@<SCITEGIC>MOL_PROPERTY
Valence
SciTegic.value.DoubleValue
13.789

@<SCITEGIC>MOL_PROPERTY
Coulomb
SciTegic.value.DoubleValue
-8.574

@<SCITEGIC>MOL_PROPERTY
VdW
SciTegic.value.DoubleValue
0.628

@<SCITEGIC>MOL_PROPERTY
VdW6
SciTegic.value.DoubleValue
-3.284

@<SCITEGIC>MOL_PROPERTY
VdW12
SciTegic.value.DoubleValue
3.913

@<SCITEGIC>MOL_PROPERTY
Bond
SciTegic.value.DoubleValue
0.054

@<SCITEGIC>MOL_PROPERTY
Angle
SciTegic.value.DoubleValue
4.033

@<SCITEGIC>MOL_PROPERTY
Pdih
SciTegic.value.DoubleValue
9.702

@<SCITEGIC>MOL_PROPERTY
Idih
SciTegic.value.DoubleValue
0.000

@<SCITEGIC>MOL_PROPERTY
Tether
SciTegic.value.DoubleValue
0.000

@<TRIPOS>MOLECULE
guest-4_confgen4.mol2 : confsearch ligand conformer 315
          16          16           1
SMALL
USER_CHARGES
 
@<TRIPOS>ATOM
       1    C1      18.208825   17.964312   22.243370 C.3        1 MOL1        -0.1689
       2    H1      17.328911   18.622289   22.236728 H          1 MOL1         0.0830
       3    H2      17.849174   16.926529   22.217788 H          1 MOL1         0.0830
       4    C2      19.060745   18.239228   23.501811 C.3        1 MOL1        -0.1689
       5    H3      18.592592   19.029499   24.104745 H          1 MOL1         0.0830
       6    H4      19.147583   17.344939   24.134033 H          1 MOL1         0.0830
       7    C3      20.445681   18.700841   23.000508 C.3        1 MOL1        -0.1765
       8    H5      21.140056   17.850292   23.006108 H          1 MOL1         0.0830
       9    H6      20.876408   19.487978   23.633671 H          1 MOL1         0.0830
      10    C4      20.240171   19.166803   21.552877 C.3        1 MOL1         0.1214
      11    H7      21.157295   19.053007   20.957128 H          1 MOL1         0.0787
      12    C5      19.111354   18.268944   21.028874 C.3        1 MOL1        -0.1765
      13    H8      18.556361   18.736685   20.204735 H          1 MOL1         0.0830
      14    H9      19.545735   17.334015   20.650929 H          1 MOL1         0.0830
      15    O1      19.801157   20.517385   21.554127 O.3        1 MOL1        -0.5512
      16    H10     18.989705   20.521017   22.102483 H          1 MOL1         0.3776
@<TRIPOS>BOND
    1     1     2    1
    2     1     3    1
    3     1     4    1
    4     4     5    1
    5     4     6    1
    6     4     7    1
    7     7     8    1
    8     7     9    1
    9     7    10    1
   10    10    11    1
   11     1    12    1
   12    10    12    1
   13    12    13    1
   14    12    14    1
   15    10    15    1
   16    15    16    1
@<TRIPOS>SUBSTRUCTURE
       1 MOL1            1 RESIDUE      1      MOL     
@<SCITEGIC>MOL_PROPERTY
VConf Rank
SciTegic.value.IntegerValue
315

@<SCITEGIC>MOL_PROPERTY
Conf_Id
SciTegic.value.IntegerValue
20

@<SCITEGIC>MOL_PROPERTY
Delta U+W
SciTegic.value.DoubleValue
-0.483

@<SCITEGIC>MOL_PROPERTY
U+W
SciTegic.value.DoubleValue
2.527

@<SCITEGIC>MOL_PROPERTY
Grad RMS
SciTegic.value.DoubleValue
0.000000

@<SCITEGIC>MOL_PROPERTY
U
SciTegic.value.DoubleValue
4.508

@<SCITEGIC>MOL_PROPERTY
W
SciTegic.value.DoubleValue
-1.981

@<SCITEGIC>MOL_PROPERTY
W(PB)
SciTegic.value.DoubleValue
-3.712

@<SCITEGIC>MOL_PROPERTY
W(SA)
SciTegic.value.DoubleValue
1.732

@<SCITEGIC>MOL_PROPERTY
Valence
SciTegic.value.DoubleValue
14.705

@<SCITEGIC>MOL_PROPERTY
Coulomb
SciTegic.value.DoubleValue
-10.687

@<SCITEGIC>MOL_PROPERTY
VdW
SciTegic.value.DoubleValue
0.490

@<SCITEGIC>MOL_PROPERTY
VdW6
SciTegic.value.DoubleValue
-3.745

@<SCITEGIC>MOL_PROPERTY
VdW12
SciTegic.value.DoubleValue
4.235

@<SCITEGIC>MOL_PROPERTY
Bond
SciTegic.value.DoubleValue
0.068

@<SCITEGIC>MOL_PROPERTY
Angle
SciTegic.value.DoubleValue
3.901

@<SCITEGIC>MOL_PROPERTY
Pdih
SciTegic.value.DoubleValue
10.737

@<SCITEGIC>MOL_PROPERTY
Idih
SciTegic.value.DoubleValue
0.000

@<SCITEGIC>MOL_PROPERTY
Tether
SciTegic.value.DoubleValue
0.000

@<TRIPOS>MOLECULE
guest-4_confgen4.mol2 : confsearch ligand conformer 316
          16          16           1
SMALL
USER_CHARGES
 
@<TRIPOS>ATOM
       1    C1      19.320546   18.051343   23.677802 C.3        1 MOL1        -0.1689
       2    H1      20.305769   18.296521   24.098396 H          1 MOL1         0.0830
       3    H2      18.714082   17.589340   24.468624 H          1 MOL1         0.0830
       4    C2      19.495045   17.132683   22.460698 C.3        1 MOL1        -0.1689
       5    H3      20.283592   16.383072   22.612472 H          1 MOL1         0.0830
       6    H4      18.553002   16.604261   22.258330 H          1 MOL1         0.0830
       7    C3      19.814155   18.091867   21.299367 C.3        1 MOL1        -0.1765
       8    H5      19.468213   17.688145   20.339065 H          1 MOL1         0.0830
       9    H6      20.901517   18.233698   21.233703 H          1 MOL1         0.0830
      10    C4      19.119916   19.428438   21.635953 C.3        1 MOL1         0.1214
      11    H7      18.236304   19.565291   20.995624 H          1 MOL1         0.0787
      12    C5      18.671230   19.326210   23.108387 C.3        1 MOL1        -0.1765
      13    H8      18.947282   20.215287   23.690933 H          1 MOL1         0.0830
      14    H9      17.578233   19.230327   23.143684 H          1 MOL1         0.0830
      15    O1      20.030930   20.509129   21.474558 O.3        1 MOL1        -0.5512
      16    H10     20.289751   20.519921   20.528816 H          1 MOL1         0.3776
@<TRIPOS>BOND
    1     1     2    1
    2     1     3    1
    3     1     4    1
    4     4     5    1
    5     4     6    1
    6     4     7    1
    7     7     8    1
    8     7     9    1
    9     7    10    1
   10    10    11    1
   11     1    12    1
   12    10    12    1
   13    12    13    1
   14    12    14    1
   15    10    15    1
   16    15    16    1
@<TRIPOS>SUBSTRUCTURE
       1 MOL1            1 RESIDUE      1      MOL     
@<SCITEGIC>MOL_PROPERTY
VConf Rank
SciTegic.value.IntegerValue
316

@<SCITEGIC>MOL_PROPERTY
Conf_Id
SciTegic.value.IntegerValue
59

@<SCITEGIC>MOL_PROPERTY
Delta U+W
SciTegic.value.DoubleValue
0.000

@<SCITEGIC>MOL_PROPERTY
U+W
SciTegic.value.DoubleValue
3.010

@<SCITEGIC>MOL_PROPERTY
Grad RMS
SciTegic.value.DoubleValue
0.000000

@<SCITEGIC>MOL_PROPERTY
U
SciTegic.value.DoubleValue
5.843

@<SCITEGIC>MOL_PROPERTY
W
SciTegic.value.DoubleValue
-2.833

@<SCITEGIC>MOL_PROPERTY
W(PB)
SciTegic.value.DoubleValue
-4.568

@<SCITEGIC>MOL_PROPERTY
W(SA)
SciTegic.value.DoubleValue
1.735

@<SCITEGIC>MOL_PROPERTY
Valence
SciTegic.value.DoubleValue
13.789

@<SCITEGIC>MOL_PROPERTY
Coulomb
SciTegic.value.DoubleValue
-8.574

@<SCITEGIC>MOL_PROPERTY
VdW
SciTegic.value.DoubleValue
0.628

@<SCITEGIC>MOL_PROPERTY
VdW6
SciTegic.value.DoubleValue
-3.284

@<SCITEGIC>MOL_PROPERTY
VdW12
SciTegic.value.DoubleValue
3.912

@<SCITEGIC>MOL_PROPERTY
Bond
SciTegic.value.DoubleValue
0.054

@<SCITEGIC>MOL_PROPERTY
Angle
SciTegic.value.DoubleValue
4.034

@<SCITEGIC>MOL_PROPERTY
Pdih
SciTegic.value.DoubleValue
9.702

@<SCITEGIC>MOL_PROPERTY
Idih
SciTegic.value.DoubleValue
0.000

@<SCITEGIC>MOL_PROPERTY
Tether
SciTegic.value.DoubleValue
0.000

@<TRIPOS>MOLECULE
guest-4_confgen4.mol2 : confsearch ligand conformer 317
          16          16           1
SMALL
USER_CHARGES
 
@<TRIPOS>ATOM
       1    C1      18.084984   18.966942   22.549119 C.3        1 MOL1        -0.1689
       2    H1      17.299647   19.612149   22.132329 H          1 MOL1         0.0830
       3    H2      17.634423   18.337333   23.328996 H          1 MOL1         0.0830
       4    C2      19.248026   19.772632   23.144034 C.3        1 MOL1        -0.1689
       5    H3      19.463351   20.637794   22.501532 H          1 MOL1         0.0830
       6    H4      19.029083   20.141105   24.155436 H          1 MOL1         0.0830
       7    C3      20.442518   18.801241   23.118269 C.3        1 MOL1        -0.1765
       8    H5      20.477626   18.235456   24.058343 H          1 MOL1         0.0830
       9    H6      21.396210   19.335788   23.014588 H          1 MOL1         0.0830
      10    C4      20.189370   17.823705   21.952019 C.3        1 MOL1         0.1214
      11    H7      20.290062   16.790626   22.315513 H          1 MOL1         0.0787
      12    C5      18.742979   18.078205   21.477765 C.3        1 MOL1        -0.1765
      13    H8      18.745558   18.609703   20.516368 H          1 MOL1         0.0830
      14    H9      18.191711   17.138763   21.342121 H          1 MOL1         0.0830
      15    O1      21.104882   18.076218   20.892787 O.3        1 MOL1        -0.5512
      16    H10     20.892187   17.438253   20.179140 H          1 MOL1         0.3776
@<TRIPOS>BOND
    1     1     2    1
    2     1     3    1
    3     1     4    1
    4     4     5    1
    5     4     6    1
    6     4     7    1
    7     7     8    1
    8     7     9    1
    9     7    10    1
   10    10    11    1
   11     1    12    1
   12    10    12    1
   13    12    13    1
   14    12    14    1
   15    10    15    1
   16    15    16    1
@<TRIPOS>SUBSTRUCTURE
       1 MOL1            1 RESIDUE      1      MOL     
@<SCITEGIC>MOL_PROPERTY
VConf Rank
SciTegic.value.IntegerValue
317

@<SCITEGIC>MOL_PROPERTY
Conf_Id
SciTegic.value.IntegerValue
33

@<SCITEGIC>MOL_PROPERTY
Delta U+W
SciTegic.value.DoubleValue
0.015

@<SCITEGIC>MOL_PROPERTY
U+W
SciTegic.value.DoubleValue
3.025

@<SCITEGIC>MOL_PROPERTY
Grad RMS
SciTegic.value.DoubleValue
0.000000

@<SCITEGIC>MOL_PROPERTY
U
SciTegic.value.DoubleValue
5.843

@<SCITEGIC>MOL_PROPERTY
W
SciTegic.value.DoubleValue
-2.819

@<SCITEGIC>MOL_PROPERTY
W(PB)
SciTegic.value.DoubleValue
-4.568

@<SCITEGIC>MOL_PROPERTY
W(SA)
SciTegic.value.DoubleValue
1.750

@<SCITEGIC>MOL_PROPERTY
Valence
SciTegic.value.DoubleValue
13.789

@<SCITEGIC>MOL_PROPERTY
Coulomb
SciTegic.value.DoubleValue
-8.574

@<SCITEGIC>MOL_PROPERTY
VdW
SciTegic.value.DoubleValue
0.628

@<SCITEGIC>MOL_PROPERTY
VdW6
SciTegic.value.DoubleValue
-3.284

@<SCITEGIC>MOL_PROPERTY
VdW12
SciTegic.value.DoubleValue
3.913

@<SCITEGIC>MOL_PROPERTY
Bond
SciTegic.value.DoubleValue
0.054

@<SCITEGIC>MOL_PROPERTY
Angle
SciTegic.value.DoubleValue
4.033

@<SCITEGIC>MOL_PROPERTY
Pdih
SciTegic.value.DoubleValue
9.702

@<SCITEGIC>MOL_PROPERTY
Idih
SciTegic.value.DoubleValue
0.000

@<SCITEGIC>MOL_PROPERTY
Tether
SciTegic.value.DoubleValue
0.000

@<TRIPOS>MOLECULE
guest-4_confgen4.mol2 : confsearch ligand conformer 318
          16          16           1
SMALL
USER_CHARGES
 
@<TRIPOS>ATOM
       1    C1      20.086026   19.697172   22.578356 C.3        1 MOL1        -0.1689
       2    H1      19.482440   20.536063   22.951417 H          1 MOL1         0.0830
       3    H2      21.138984   20.010130   22.596608 H          1 MOL1         0.0830
       4    C2      19.631433   19.316299   21.152417 C.3        1 MOL1        -0.1689
       5    H3      18.808563   19.971532   20.834958 H          1 MOL1         0.0830
       6    H4      20.446911   19.429053   20.424900 H          1 MOL1         0.0830
       7    C3      19.149721   17.851588   21.223215 C.3        1 MOL1        -0.1765
       8    H5      19.954901   17.184044   20.889014 H          1 MOL1         0.0830
       9    H6      18.276781   17.669068   20.582381 H          1 MOL1         0.0830
      10    C4      18.853092   17.572670   22.702812 C.3        1 MOL1         0.1214
      11    H7      18.978685   16.507957   22.946938 H          1 MOL1         0.0787
      12    C5      19.863091   18.447916   23.457001 C.3        1 MOL1        -0.1765
      13    H8      19.517564   18.705663   24.467041 H          1 MOL1         0.0830
      14    H9      20.807428   17.896771   23.557439 H          1 MOL1         0.0830
      15    O1      17.536589   18.010202   23.006446 O.3        1 MOL1        -0.5512
      16    H10     17.519545   18.957635   22.758970 H          1 MOL1         0.3776
@<TRIPOS>BOND
    1     1     2    1
    2     1     3    1
    3     1     4    1
    4     4     5    1
    5     4     6    1
    6     4     7    1
    7     7     8    1
    8     7     9    1
    9     7    10    1
   10    10    11    1
   11     1    12    1
   12    10    12    1
   13    12    13    1
   14    12    14    1
   15    10    15    1
   16    15    16    1
@<TRIPOS>SUBSTRUCTURE
       1 MOL1            1 RESIDUE      1      MOL     
@<SCITEGIC>MOL_PROPERTY
VConf Rank
SciTegic.value.IntegerValue
318

@<SCITEGIC>MOL_PROPERTY
Conf_Id
SciTegic.value.IntegerValue
20

@<SCITEGIC>MOL_PROPERTY
Delta U+W
SciTegic.value.DoubleValue
-0.483

@<SCITEGIC>MOL_PROPERTY
U+W
SciTegic.value.DoubleValue
2.527

@<SCITEGIC>MOL_PROPERTY
Grad RMS
SciTegic.value.DoubleValue
0.000000

@<SCITEGIC>MOL_PROPERTY
U
SciTegic.value.DoubleValue
4.508

@<SCITEGIC>MOL_PROPERTY
W
SciTegic.value.DoubleValue
-1.981

@<SCITEGIC>MOL_PROPERTY
W(PB)
SciTegic.value.DoubleValue
-3.712

@<SCITEGIC>MOL_PROPERTY
W(SA)
SciTegic.value.DoubleValue
1.732

@<SCITEGIC>MOL_PROPERTY
Valence
SciTegic.value.DoubleValue
14.705

@<SCITEGIC>MOL_PROPERTY
Coulomb
SciTegic.value.DoubleValue
-10.687

@<SCITEGIC>MOL_PROPERTY
VdW
SciTegic.value.DoubleValue
0.490

@<SCITEGIC>MOL_PROPERTY
VdW6
SciTegic.value.DoubleValue
-3.745

@<SCITEGIC>MOL_PROPERTY
VdW12
SciTegic.value.DoubleValue
4.235

@<SCITEGIC>MOL_PROPERTY
Bond
SciTegic.value.DoubleValue
0.068

@<SCITEGIC>MOL_PROPERTY
Angle
SciTegic.value.DoubleValue
3.901

@<SCITEGIC>MOL_PROPERTY
Pdih
SciTegic.value.DoubleValue
10.737

@<SCITEGIC>MOL_PROPERTY
Idih
SciTegic.value.DoubleValue
0.000

@<SCITEGIC>MOL_PROPERTY
Tether
SciTegic.value.DoubleValue
0.000

@<TRIPOS>MOLECULE
guest-4_confgen4.mol2 : confsearch ligand conformer 319
          16          16           1
SMALL
USER_CHARGES
 
@<TRIPOS>ATOM
       1    C1      20.516785   18.760683   23.167662 C.3        1 MOL1        -0.1689
       2    H1      20.379986   19.763957   23.594751 H          1 MOL1         0.0830
       3    H2      21.425558   18.322651   23.602291 H          1 MOL1         0.0830
       4    C2      20.587054   18.858254   21.637541 C.3        1 MOL1        -0.1689
       5    H3      21.157547   19.734382   21.300351 H          1 MOL1         0.0830
       6    H4      21.068413   17.957703   21.231429 H          1 MOL1         0.0830
       7    C3      19.115086   18.909434   21.188935 C.3        1 MOL1        -0.1765
       8    H5      18.985339   18.476628   20.188590 H          1 MOL1         0.0830
       9    H6      18.783576   19.956009   21.149364 H          1 MOL1         0.0830
      10    C4      18.309277   18.133093   22.251784 C.3        1 MOL1         0.1214
      11    H7      17.995394   17.159108   21.848859 H          1 MOL1         0.0787
      12    C5      19.264212   17.908181   23.442308 C.3        1 MOL1        -0.1765
      13    H8      18.800793   18.168473   24.403304 H          1 MOL1         0.0830
      14    H9      19.542325   16.846996   23.482570 H          1 MOL1         0.0830
      15    O1      17.180744   18.894348   22.665057 O.3        1 MOL1        -0.5512
      16    H10     16.617476   19.015636   21.871615 H          1 MOL1         0.3776
@<TRIPOS>BOND
    1     1     2    1
    2     1     3    1
    3     1     4    1
    4     4     5    1
    5     4     6    1
    6     4     7    1
    7     7     8    1
    8     7     9    1
    9     7    10    1
   10    10    11    1
   11     1    12    1
   12    10    12    1
   13    12    13    1
   14    12    14    1
   15    10    15    1
   16    15    16    1
@<TRIPOS>SUBSTRUCTURE
       1 MOL1            1 RESIDUE      1      MOL     
@<SCITEGIC>MOL_PROPERTY
VConf Rank
SciTegic.value.IntegerValue
319

@<SCITEGIC>MOL_PROPERTY
Conf_Id
SciTegic.value.IntegerValue
59

@<SCITEGIC>MOL_PROPERTY
Delta U+W
SciTegic.value.DoubleValue
0.000

@<SCITEGIC>MOL_PROPERTY
U+W
SciTegic.value.DoubleValue
3.010

@<SCITEGIC>MOL_PROPERTY
Grad RMS
SciTegic.value.DoubleValue
0.000000

@<SCITEGIC>MOL_PROPERTY
U
SciTegic.value.DoubleValue
5.843

@<SCITEGIC>MOL_PROPERTY
W
SciTegic.value.DoubleValue
-2.833

@<SCITEGIC>MOL_PROPERTY
W(PB)
SciTegic.value.DoubleValue
-4.568

@<SCITEGIC>MOL_PROPERTY
W(SA)
SciTegic.value.DoubleValue
1.735

@<SCITEGIC>MOL_PROPERTY
Valence
SciTegic.value.DoubleValue
13.789

@<SCITEGIC>MOL_PROPERTY
Coulomb
SciTegic.value.DoubleValue
-8.574

@<SCITEGIC>MOL_PROPERTY
VdW
SciTegic.value.DoubleValue
0.628

@<SCITEGIC>MOL_PROPERTY
VdW6
SciTegic.value.DoubleValue
-3.284

@<SCITEGIC>MOL_PROPERTY
VdW12
SciTegic.value.DoubleValue
3.912

@<SCITEGIC>MOL_PROPERTY
Bond
SciTegic.value.DoubleValue
0.054

@<SCITEGIC>MOL_PROPERTY
Angle
SciTegic.value.DoubleValue
4.034

@<SCITEGIC>MOL_PROPERTY
Pdih
SciTegic.value.DoubleValue
9.702

@<SCITEGIC>MOL_PROPERTY
Idih
SciTegic.value.DoubleValue
0.000

@<SCITEGIC>MOL_PROPERTY
Tether
SciTegic.value.DoubleValue
0.000

@<TRIPOS>MOLECULE
guest-4_confgen4.mol2 : confsearch ligand conformer 320
          16          16           1
SMALL
USER_CHARGES
 
@<TRIPOS>ATOM
       1    C1      20.353720   19.592789   21.757553 C.3        1 MOL1        -0.1689
       2    H1      20.860804   19.830126   20.812410 H          1 MOL1         0.0830
       3    H2      20.517483   20.426768   22.454175 H          1 MOL1         0.0830
       4    C2      20.866379   18.288700   22.383860 C.3        1 MOL1        -0.1689
       5    H3      21.038940   17.543944   21.594404 H          1 MOL1         0.0830
       6    H4      21.805741   18.429214   22.935673 H          1 MOL1         0.0830
       7    C3      19.715451   17.819383   23.292806 C.3        1 MOL1        -0.1765
       8    H5      19.843924   18.241940   24.297806 H          1 MOL1         0.0830
       9    H6      19.697517   16.725682   23.390350 H          1 MOL1         0.0830
      10    C4      18.414359   18.373717   22.676631 C.3        1 MOL1         0.1214
      11    H7      17.842252   18.903825   23.452000 H          1 MOL1         0.0787
      12    C5      18.843397   19.359850   21.569742 C.3        1 MOL1        -0.1765
      13    H8      18.663945   18.921246   20.578679 H          1 MOL1         0.0830
      14    H9      18.282045   20.301280   21.628412 H          1 MOL1         0.0830
      15    O1      17.645392   17.314479   22.119315 O.3        1 MOL1        -0.5512
      16    H10     16.841268   17.722968   21.734540 H          1 MOL1         0.3776
@<TRIPOS>BOND
    1     1     2    1
    2     1     3    1
    3     1     4    1
    4     4     5    1
    5     4     6    1
    6     4     7    1
    7     7     8    1
    8     7     9    1
    9     7    10    1
   10    10    11    1
   11     1    12    1
   12    10    12    1
   13    12    13    1
   14    12    14    1
   15    10    15    1
   16    15    16    1
@<TRIPOS>SUBSTRUCTURE
       1 MOL1            1 RESIDUE      1      MOL     
@<SCITEGIC>MOL_PROPERTY
VConf Rank
SciTegic.value.IntegerValue
320

@<SCITEGIC>MOL_PROPERTY
Conf_Id
SciTegic.value.IntegerValue
33

@<SCITEGIC>MOL_PROPERTY
Delta U+W
SciTegic.value.DoubleValue
0.015

@<SCITEGIC>MOL_PROPERTY
U+W
SciTegic.value.DoubleValue
3.025

@<SCITEGIC>MOL_PROPERTY
Grad RMS
SciTegic.value.DoubleValue
0.000000

@<SCITEGIC>MOL_PROPERTY
U
SciTegic.value.DoubleValue
5.843

@<SCITEGIC>MOL_PROPERTY
W
SciTegic.value.DoubleValue
-2.819

@<SCITEGIC>MOL_PROPERTY
W(PB)
SciTegic.value.DoubleValue
-4.568

@<SCITEGIC>MOL_PROPERTY
W(SA)
SciTegic.value.DoubleValue
1.750

@<SCITEGIC>MOL_PROPERTY
Valence
SciTegic.value.DoubleValue
13.789

@<SCITEGIC>MOL_PROPERTY
Coulomb
SciTegic.value.DoubleValue
-8.574

@<SCITEGIC>MOL_PROPERTY
VdW
SciTegic.value.DoubleValue
0.628

@<SCITEGIC>MOL_PROPERTY
VdW6
SciTegic.value.DoubleValue
-3.284

@<SCITEGIC>MOL_PROPERTY
VdW12
SciTegic.value.DoubleValue
3.913

@<SCITEGIC>MOL_PROPERTY
Bond
SciTegic.value.DoubleValue
0.054

@<SCITEGIC>MOL_PROPERTY
Angle
SciTegic.value.DoubleValue
4.033

@<SCITEGIC>MOL_PROPERTY
Pdih
SciTegic.value.DoubleValue
9.702

@<SCITEGIC>MOL_PROPERTY
Idih
SciTegic.value.DoubleValue
0.000

@<SCITEGIC>MOL_PROPERTY
Tether
SciTegic.value.DoubleValue
0.000

@<TRIPOS>MOLECULE
guest-4_confgen4.mol2 : confsearch ligand conformer 321
          16          16           1
SMALL
USER_CHARGES
 
@<TRIPOS>ATOM
       1    C1      19.201047   19.539777   21.314982 C.3        1 MOL1        -0.1689
       2    H1      20.118209   19.820899   20.779247 H          1 MOL1         0.0830
       3    H2      18.372923   20.119869   20.885212 H          1 MOL1         0.0830
       4    C2      19.367572   19.820334   22.824478 C.3        1 MOL1        -0.1689
       5    H3      20.364920   20.238217   23.019153 H          1 MOL1         0.0830
       6    H4      18.625881   20.546445   23.184554 H          1 MOL1         0.0830
       7    C3      19.208854   18.462996   23.542029 C.3        1 MOL1        -0.1765
       8    H5      18.181141   18.363468   23.915554 H          1 MOL1         0.0830
       9    H6      19.887232   18.363857   24.399922 H          1 MOL1         0.0830
      10    C4      19.458154   17.387128   22.476501 C.3        1 MOL1         0.1214
      11    H7      18.922271   16.455585   22.708967 H          1 MOL1         0.0787
      12    C5      18.946729   18.023634   21.177170 C.3        1 MOL1        -0.1765
      13    H8      19.431021   17.599494   20.287468 H          1 MOL1         0.0830
      14    H9      17.867843   17.839025   21.090297 H          1 MOL1         0.0830
      15    O1      20.854588   17.153994   22.365026 O.3        1 MOL1        -0.5512
      16    H10     21.243369   18.029043   22.159354 H          1 MOL1         0.3776
@<TRIPOS>BOND
    1     1     2    1
    2     1     3    1
    3     1     4    1
    4     4     5    1
    5     4     6    1
    6     4     7    1
    7     7     8    1
    8     7     9    1
    9     7    10    1
   10    10    11    1
   11     1    12    1
   12    10    12    1
   13    12    13    1
   14    12    14    1
   15    10    15    1
   16    15    16    1
@<TRIPOS>SUBSTRUCTURE
       1 MOL1            1 RESIDUE      1      MOL     
@<SCITEGIC>MOL_PROPERTY
VConf Rank
SciTegic.value.IntegerValue
321

@<SCITEGIC>MOL_PROPERTY
Conf_Id
SciTegic.value.IntegerValue
20

@<SCITEGIC>MOL_PROPERTY
Delta U+W
SciTegic.value.DoubleValue
-0.483

@<SCITEGIC>MOL_PROPERTY
U+W
SciTegic.value.DoubleValue
2.527

@<SCITEGIC>MOL_PROPERTY
Grad RMS
SciTegic.value.DoubleValue
0.000000

@<SCITEGIC>MOL_PROPERTY
U
SciTegic.value.DoubleValue
4.508

@<SCITEGIC>MOL_PROPERTY
W
SciTegic.value.DoubleValue
-1.981

@<SCITEGIC>MOL_PROPERTY
W(PB)
SciTegic.value.DoubleValue
-3.712

@<SCITEGIC>MOL_PROPERTY
W(SA)
SciTegic.value.DoubleValue
1.732

@<SCITEGIC>MOL_PROPERTY
Valence
SciTegic.value.DoubleValue
14.705

@<SCITEGIC>MOL_PROPERTY
Coulomb
SciTegic.value.DoubleValue
-10.687

@<SCITEGIC>MOL_PROPERTY
VdW
SciTegic.value.DoubleValue
0.490

@<SCITEGIC>MOL_PROPERTY
VdW6
SciTegic.value.DoubleValue
-3.745

@<SCITEGIC>MOL_PROPERTY
VdW12
SciTegic.value.DoubleValue
4.235

@<SCITEGIC>MOL_PROPERTY
Bond
SciTegic.value.DoubleValue
0.068

@<SCITEGIC>MOL_PROPERTY
Angle
SciTegic.value.DoubleValue
3.901

@<SCITEGIC>MOL_PROPERTY
Pdih
SciTegic.value.DoubleValue
10.737

@<SCITEGIC>MOL_PROPERTY
Idih
SciTegic.value.DoubleValue
0.000

@<SCITEGIC>MOL_PROPERTY
Tether
SciTegic.value.DoubleValue
0.000

@<TRIPOS>MOLECULE
guest-4_confgen4.mol2 : confsearch ligand conformer 322
          16          16           1
SMALL
USER_CHARGES
 
@<TRIPOS>ATOM
       1    C1      19.990495   17.527546   23.126545 C.3        1 MOL1        -0.1689
       2    H1      20.737201   17.063269   22.467338 H          1 MOL1         0.0830
       3    H2      20.074891   17.066939   24.120206 H          1 MOL1         0.0830
       4    C2      18.591407   17.357854   22.518691 C.3        1 MOL1        -0.1689
       5    H3      18.451917   16.369307   22.060350 H          1 MOL1         0.0830
       6    H4      17.830496   17.484123   23.301440 H          1 MOL1         0.0830
       7    C3      18.478195   18.500503   21.492976 C.3        1 MOL1        -0.1765
       8    H5      17.436925   18.823654   21.365787 H          1 MOL1         0.0830
       9    H6      18.844534   18.151101   20.518041 H          1 MOL1         0.0830
      10    C4      19.367665   19.646757   22.018926 C.3        1 MOL1         0.1214
      11    H7      18.740281   20.458735   22.414652 H          1 MOL1         0.0787
      12    C5      20.212085   19.050900   23.164240 C.3        1 MOL1        -0.1765
      13    H8      21.276211   19.306973   23.074329 H          1 MOL1         0.0830
      14    H9      19.852021   19.452057   24.120539 H          1 MOL1         0.0830
      15    O1      20.215736   20.125484   20.981870 O.3        1 MOL1        -0.5512
      16    H10     19.629505   20.480333   20.280481 H          1 MOL1         0.3776
@<TRIPOS>BOND
    1     1     2    1
    2     1     3    1
    3     1     4    1
    4     4     5    1
    5     4     6    1
    6     4     7    1
    7     7     8    1
    8     7     9    1
    9     7    10    1
   10    10    11    1
   11     1    12    1
   12    10    12    1
   13    12    13    1
   14    12    14    1
   15    10    15    1
   16    15    16    1
@<TRIPOS>SUBSTRUCTURE
       1 MOL1            1 RESIDUE      1      MOL     
@<SCITEGIC>MOL_PROPERTY
VConf Rank
SciTegic.value.IntegerValue
322

@<SCITEGIC>MOL_PROPERTY
Conf_Id
SciTegic.value.IntegerValue
59

@<SCITEGIC>MOL_PROPERTY
Delta U+W
SciTegic.value.DoubleValue
0.000

@<SCITEGIC>MOL_PROPERTY
U+W
SciTegic.value.DoubleValue
3.010

@<SCITEGIC>MOL_PROPERTY
Grad RMS
SciTegic.value.DoubleValue
0.000000

@<SCITEGIC>MOL_PROPERTY
U
SciTegic.value.DoubleValue
5.843

@<SCITEGIC>MOL_PROPERTY
W
SciTegic.value.DoubleValue
-2.833

@<SCITEGIC>MOL_PROPERTY
W(PB)
SciTegic.value.DoubleValue
-4.568

@<SCITEGIC>MOL_PROPERTY
W(SA)
SciTegic.value.DoubleValue
1.735

@<SCITEGIC>MOL_PROPERTY
Valence
SciTegic.value.DoubleValue
13.789

@<SCITEGIC>MOL_PROPERTY
Coulomb
SciTegic.value.DoubleValue
-8.574

@<SCITEGIC>MOL_PROPERTY
VdW
SciTegic.value.DoubleValue
0.628

@<SCITEGIC>MOL_PROPERTY
VdW6
SciTegic.value.DoubleValue
-3.284

@<SCITEGIC>MOL_PROPERTY
VdW12
SciTegic.value.DoubleValue
3.912

@<SCITEGIC>MOL_PROPERTY
Bond
SciTegic.value.DoubleValue
0.054

@<SCITEGIC>MOL_PROPERTY
Angle
SciTegic.value.DoubleValue
4.034

@<SCITEGIC>MOL_PROPERTY
Pdih
SciTegic.value.DoubleValue
9.702

@<SCITEGIC>MOL_PROPERTY
Idih
SciTegic.value.DoubleValue
0.000

@<SCITEGIC>MOL_PROPERTY
Tether
SciTegic.value.DoubleValue
0.000

@<TRIPOS>MOLECULE
guest-4_confgen4.mol2 : confsearch ligand conformer 323
          16          16           1
SMALL
USER_CHARGES
 
@<TRIPOS>ATOM
       1    C1      19.271223   19.664776   21.333212 C.3        1 MOL1        -0.1689
       2    H1      18.935517   20.710132   21.297263 H          1 MOL1         0.0830
       3    H2      19.686207   19.403173   20.349864 H          1 MOL1         0.0830
       4    C2      18.133065   18.697773   21.687088 C.3        1 MOL1        -0.1689
       5    H3      17.494513   19.147683   22.460077 H          1 MOL1         0.0830
       6    H4      17.504214   18.454657   20.819861 H          1 MOL1         0.0830
       7    C3      18.844635   17.459419   22.262608 C.3        1 MOL1        -0.1765
       8    H5      19.066698   16.752480   21.452664 H          1 MOL1         0.0830
       9    H6      18.217483   16.938102   22.998086 H          1 MOL1         0.0830
      10    C4      20.170871   17.958131   22.872677 C.3        1 MOL1         0.1214
      11    H7      21.001360   17.353145   22.480505 H          1 MOL1         0.0787
      12    C5      20.329920   19.426618   22.425480 C.3        1 MOL1        -0.1765
      13    H8      20.140238   20.104141   23.269141 H          1 MOL1         0.0830
      14    H9      21.342708   19.627448   22.052955 H          1 MOL1         0.0830
      15    O1      20.117755   17.880276   24.292190 O.3        1 MOL1        -0.5512
      16    H10     20.976209   18.217960   24.624689 H          1 MOL1         0.3776
@<TRIPOS>BOND
    1     1     2    1
    2     1     3    1
    3     1     4    1
    4     4     5    1
    5     4     6    1
    6     4     7    1
    7     7     8    1
    8     7     9    1
    9     7    10    1
   10    10    11    1
   11     1    12    1
   12    10    12    1
   13    12    13    1
   14    12    14    1
   15    10    15    1
   16    15    16    1
@<TRIPOS>SUBSTRUCTURE
       1 MOL1            1 RESIDUE      1      MOL     
@<SCITEGIC>MOL_PROPERTY
VConf Rank
SciTegic.value.IntegerValue
323

@<SCITEGIC>MOL_PROPERTY
Conf_Id
SciTegic.value.IntegerValue
33

@<SCITEGIC>MOL_PROPERTY
Delta U+W
SciTegic.value.DoubleValue
0.015

@<SCITEGIC>MOL_PROPERTY
U+W
SciTegic.value.DoubleValue
3.025

@<SCITEGIC>MOL_PROPERTY
Grad RMS
SciTegic.value.DoubleValue
0.000000

@<SCITEGIC>MOL_PROPERTY
U
SciTegic.value.DoubleValue
5.843

@<SCITEGIC>MOL_PROPERTY
W
SciTegic.value.DoubleValue
-2.819

@<SCITEGIC>MOL_PROPERTY
W(PB)
SciTegic.value.DoubleValue
-4.568

@<SCITEGIC>MOL_PROPERTY
W(SA)
SciTegic.value.DoubleValue
1.750

@<SCITEGIC>MOL_PROPERTY
Valence
SciTegic.value.DoubleValue
13.789

@<SCITEGIC>MOL_PROPERTY
Coulomb
SciTegic.value.DoubleValue
-8.574

@<SCITEGIC>MOL_PROPERTY
VdW
SciTegic.value.DoubleValue
0.628

@<SCITEGIC>MOL_PROPERTY
VdW6
SciTegic.value.DoubleValue
-3.284

@<SCITEGIC>MOL_PROPERTY
VdW12
SciTegic.value.DoubleValue
3.913

@<SCITEGIC>MOL_PROPERTY
Bond
SciTegic.value.DoubleValue
0.054

@<SCITEGIC>MOL_PROPERTY
Angle
SciTegic.value.DoubleValue
4.033

@<SCITEGIC>MOL_PROPERTY
Pdih
SciTegic.value.DoubleValue
9.702

@<SCITEGIC>MOL_PROPERTY
Idih
SciTegic.value.DoubleValue
0.000

@<SCITEGIC>MOL_PROPERTY
Tether
SciTegic.value.DoubleValue
0.000

@<TRIPOS>MOLECULE
guest-4_confgen4.mol2 : confsearch ligand conformer 324
          16          16           1
SMALL
USER_CHARGES
 
@<TRIPOS>ATOM
       1    C1      18.138298   18.125172   22.368678 C.3        1 MOL1        -0.1689
       2    H1      17.958368   17.549020   23.286775 H          1 MOL1         0.0830
       3    H2      17.199342   18.145662   21.798645 H          1 MOL1         0.0830
       4    C2      19.281218   17.476845   21.557242 C.3        1 MOL1        -0.1689
       5    H3      19.653709   16.586335   22.082093 H          1 MOL1         0.0830
       6    H4      18.940362   17.159104   20.562327 H          1 MOL1         0.0830
       7    C3      20.397256   18.537562   21.448734 C.3        1 MOL1        -0.1765
       8    H5      20.321642   19.052013   20.481654 H          1 MOL1         0.0830
       9    H6      21.400099   18.094807   21.514149 H          1 MOL1         0.0830
      10    C4      20.133720   19.548454   22.572851 C.3        1 MOL1         0.1214
      11    H7      20.519292   20.546222   22.318339 H          1 MOL1         0.0787
      12    C5      18.606115   19.553737   22.718974 C.3        1 MOL1        -0.1765
      13    H8      18.285321   19.862377   23.722884 H          1 MOL1         0.0830
      14    H9      18.181534   20.265708   21.998939 H          1 MOL1         0.0830
      15    O1      20.717062   19.071807   23.776731 O.3        1 MOL1        -0.5512
      16    H10     20.318414   18.188938   23.920899 H          1 MOL1         0.3776
@<TRIPOS>BOND
    1     1     2    1
    2     1     3    1
    3     1     4    1
    4     4     5    1
    5     4     6    1
    6     4     7    1
    7     7     8    1
    8     7     9    1
    9     7    10    1
   10    10    11    1
   11     1    12    1
   12    10    12    1
   13    12    13    1
   14    12    14    1
   15    10    15    1
   16    15    16    1
@<TRIPOS>SUBSTRUCTURE
       1 MOL1            1 RESIDUE      1      MOL     
@<SCITEGIC>MOL_PROPERTY
VConf Rank
SciTegic.value.IntegerValue
324

@<SCITEGIC>MOL_PROPERTY
Conf_Id
SciTegic.value.IntegerValue
20

@<SCITEGIC>MOL_PROPERTY
Delta U+W
SciTegic.value.DoubleValue
-0.483

@<SCITEGIC>MOL_PROPERTY
U+W
SciTegic.value.DoubleValue
2.527

@<SCITEGIC>MOL_PROPERTY
Grad RMS
SciTegic.value.DoubleValue
0.000000

@<SCITEGIC>MOL_PROPERTY
U
SciTegic.value.DoubleValue
4.508

@<SCITEGIC>MOL_PROPERTY
W
SciTegic.value.DoubleValue
-1.981

@<SCITEGIC>MOL_PROPERTY
W(PB)
SciTegic.value.DoubleValue
-3.712

@<SCITEGIC>MOL_PROPERTY
W(SA)
SciTegic.value.DoubleValue
1.732

@<SCITEGIC>MOL_PROPERTY
Valence
SciTegic.value.DoubleValue
14.705

@<SCITEGIC>MOL_PROPERTY
Coulomb
SciTegic.value.DoubleValue
-10.687

@<SCITEGIC>MOL_PROPERTY
VdW
SciTegic.value.DoubleValue
0.490

@<SCITEGIC>MOL_PROPERTY
VdW6
SciTegic.value.DoubleValue
-3.745

@<SCITEGIC>MOL_PROPERTY
VdW12
SciTegic.value.DoubleValue
4.235

@<SCITEGIC>MOL_PROPERTY
Bond
SciTegic.value.DoubleValue
0.068

@<SCITEGIC>MOL_PROPERTY
Angle
SciTegic.value.DoubleValue
3.901

@<SCITEGIC>MOL_PROPERTY
Pdih
SciTegic.value.DoubleValue
10.737

@<SCITEGIC>MOL_PROPERTY
Idih
SciTegic.value.DoubleValue
0.000

@<SCITEGIC>MOL_PROPERTY
Tether
SciTegic.value.DoubleValue
0.000

@<TRIPOS>MOLECULE
guest-4_confgen4.mol2 : confsearch ligand conformer 325
          16          16           1
SMALL
USER_CHARGES
 
@<TRIPOS>ATOM
       1    C1      19.816436   17.444787   21.493740 C.3        1 MOL1        -0.1689
       2    H1      18.921357   16.831604   21.319045 H          1 MOL1         0.0830
       3    H2      20.652504   16.999542   20.937510 H          1 MOL1         0.0830
       4    C2      20.094732   17.531010   23.000672 C.3        1 MOL1        -0.1689
       5    H3      19.914150   16.576907   23.514322 H          1 MOL1         0.0830
       6    H4      21.142343   17.818029   23.167278 H          1 MOL1         0.0830
       7    C3      19.162373   18.650357   23.498995 C.3        1 MOL1        -0.1765
       8    H5      19.583020   19.163095   24.373638 H          1 MOL1         0.0830
       9    H6      18.197968   18.215163   23.794484 H          1 MOL1         0.0830
      10    C4      18.971193   19.617796   22.311901 C.3        1 MOL1         0.1214
      11    H7      19.539235   20.543390   22.485461 H          1 MOL1         0.0787
      12    C5      19.536430   18.898403   21.069799 C.3        1 MOL1        -0.1765
      13    H8      18.850733   18.944750   20.213240 H          1 MOL1         0.0830
      14    H9      20.475481   19.382762   20.772042 H          1 MOL1         0.0830
      15    O1      17.589448   19.902037   22.127847 O.3        1 MOL1        -0.5512
      16    H10     17.282163   20.345903   22.946437 H          1 MOL1         0.3776
@<TRIPOS>BOND
    1     1     2    1
    2     1     3    1
    3     1     4    1
    4     4     5    1
    5     4     6    1
    6     4     7    1
    7     7     8    1
    8     7     9    1
    9     7    10    1
   10    10    11    1
   11     1    12    1
   12    10    12    1
   13    12    13    1
   14    12    14    1
   15    10    15    1
   16    15    16    1
@<TRIPOS>SUBSTRUCTURE
       1 MOL1            1 RESIDUE      1      MOL     
@<SCITEGIC>MOL_PROPERTY
VConf Rank
SciTegic.value.IntegerValue
325

@<SCITEGIC>MOL_PROPERTY
Conf_Id
SciTegic.value.IntegerValue
59

@<SCITEGIC>MOL_PROPERTY
Delta U+W
SciTegic.value.DoubleValue
0.000

@<SCITEGIC>MOL_PROPERTY
U+W
SciTegic.value.DoubleValue
3.010

@<SCITEGIC>MOL_PROPERTY
Grad RMS
SciTegic.value.DoubleValue
0.000000

@<SCITEGIC>MOL_PROPERTY
U
SciTegic.value.DoubleValue
5.843

@<SCITEGIC>MOL_PROPERTY
W
SciTegic.value.DoubleValue
-2.833

@<SCITEGIC>MOL_PROPERTY
W(PB)
SciTegic.value.DoubleValue
-4.568

@<SCITEGIC>MOL_PROPERTY
W(SA)
SciTegic.value.DoubleValue
1.735

@<SCITEGIC>MOL_PROPERTY
Valence
SciTegic.value.DoubleValue
13.789

@<SCITEGIC>MOL_PROPERTY
Coulomb
SciTegic.value.DoubleValue
-8.574

@<SCITEGIC>MOL_PROPERTY
VdW
SciTegic.value.DoubleValue
0.628

@<SCITEGIC>MOL_PROPERTY
VdW6
SciTegic.value.DoubleValue
-3.284

@<SCITEGIC>MOL_PROPERTY
VdW12
SciTegic.value.DoubleValue
3.912

@<SCITEGIC>MOL_PROPERTY
Bond
SciTegic.value.DoubleValue
0.054

@<SCITEGIC>MOL_PROPERTY
Angle
SciTegic.value.DoubleValue
4.034

@<SCITEGIC>MOL_PROPERTY
Pdih
SciTegic.value.DoubleValue
9.702

@<SCITEGIC>MOL_PROPERTY
Idih
SciTegic.value.DoubleValue
0.000

@<SCITEGIC>MOL_PROPERTY
Tether
SciTegic.value.DoubleValue
0.000

@<TRIPOS>MOLECULE
guest-4_confgen4.mol2 : confsearch ligand conformer 326
          16          16           1
SMALL
USER_CHARGES
 
@<TRIPOS>ATOM
       1    C1      18.268406   19.328717   21.909989 C.3        1 MOL1        -0.1689
       2    H1      17.923208   20.365144   21.794162 H          1 MOL1         0.0830
       3    H2      17.494160   18.661550   21.506190 H          1 MOL1         0.0830
       4    C2      18.548892   18.966905   23.374962 C.3        1 MOL1        -0.1689
       5    H3      19.029550   19.817104   23.878756 H          1 MOL1         0.0830
       6    H4      17.633861   18.712376   23.926846 H          1 MOL1         0.0830
       7    C3      19.536138   17.787691   23.298316 C.3        1 MOL1        -0.1765
       8    H5      18.979166   16.842143   23.269893 H          1 MOL1         0.0830
       9    H6      20.199458   17.758197   24.173048 H          1 MOL1         0.0830
      10    C4      20.315896   17.952055   21.977422 C.3        1 MOL1         0.1214
      11    H7      20.275241   17.009713   21.411861 H          1 MOL1         0.0787
      12    C5      19.604625   19.072213   21.189339 C.3        1 MOL1        -0.1765
      13    H8      20.207667   19.990304   21.204564 H          1 MOL1         0.0830
      14    H9      19.446853   18.789874   20.140417 H          1 MOL1         0.0830
      15    O1      21.663546   18.320359   22.245913 O.3        1 MOL1        -0.5512
      16    H10     22.105950   18.421567   21.376680 H          1 MOL1         0.3776
@<TRIPOS>BOND
    1     1     2    1
    2     1     3    1
    3     1     4    1
    4     4     5    1
    5     4     6    1
    6     4     7    1
    7     7     8    1
    8     7     9    1
    9     7    10    1
   10    10    11    1
   11     1    12    1
   12    10    12    1
   13    12    13    1
   14    12    14    1
   15    10    15    1
   16    15    16    1
@<TRIPOS>SUBSTRUCTURE
       1 MOL1            1 RESIDUE      1      MOL     
@<SCITEGIC>MOL_PROPERTY
VConf Rank
SciTegic.value.IntegerValue
326

@<SCITEGIC>MOL_PROPERTY
Conf_Id
SciTegic.value.IntegerValue
33

@<SCITEGIC>MOL_PROPERTY
Delta U+W
SciTegic.value.DoubleValue
0.015

@<SCITEGIC>MOL_PROPERTY
U+W
SciTegic.value.DoubleValue
3.025

@<SCITEGIC>MOL_PROPERTY
Grad RMS
SciTegic.value.DoubleValue
0.000000

@<SCITEGIC>MOL_PROPERTY
U
SciTegic.value.DoubleValue
5.843

@<SCITEGIC>MOL_PROPERTY
W
SciTegic.value.DoubleValue
-2.819

@<SCITEGIC>MOL_PROPERTY
W(PB)
SciTegic.value.DoubleValue
-4.568

@<SCITEGIC>MOL_PROPERTY
W(SA)
SciTegic.value.DoubleValue
1.750

@<SCITEGIC>MOL_PROPERTY
Valence
SciTegic.value.DoubleValue
13.789

@<SCITEGIC>MOL_PROPERTY
Coulomb
SciTegic.value.DoubleValue
-8.574

@<SCITEGIC>MOL_PROPERTY
VdW
SciTegic.value.DoubleValue
0.628

@<SCITEGIC>MOL_PROPERTY
VdW6
SciTegic.value.DoubleValue
-3.284

@<SCITEGIC>MOL_PROPERTY
VdW12
SciTegic.value.DoubleValue
3.913

@<SCITEGIC>MOL_PROPERTY
Bond
SciTegic.value.DoubleValue
0.054

@<SCITEGIC>MOL_PROPERTY
Angle
SciTegic.value.DoubleValue
4.033

@<SCITEGIC>MOL_PROPERTY
Pdih
SciTegic.value.DoubleValue
9.702

@<SCITEGIC>MOL_PROPERTY
Idih
SciTegic.value.DoubleValue
0.000

@<SCITEGIC>MOL_PROPERTY
Tether
SciTegic.value.DoubleValue
0.000

@<TRIPOS>MOLECULE
guest-4_confgen4.mol2 : confsearch ligand conformer 327
          16          16           1
SMALL
USER_CHARGES
 
@<TRIPOS>ATOM
       1    C1      18.087528   18.382251   22.517062 C.3        1 MOL1        -0.1689
       2    H1      17.780103   18.635982   23.540946 H          1 MOL1         0.0830
       3    H2      17.199540   18.016668   21.983374 H          1 MOL1         0.0830
       4    C2      19.206469   17.318438   22.553029 C.3        1 MOL1        -0.1689
       5    H3      19.439840   17.056543   23.594266 H          1 MOL1         0.0830
       6    H4      18.904167   16.396708   22.037253 H          1 MOL1         0.0830
       7    C3      20.437919   17.955413   21.874625 C.3        1 MOL1        -0.1765
       8    H5      20.488675   17.630491   20.827023 H          1 MOL1         0.0830
       9    H6      21.378393   17.663711   22.360860 H          1 MOL1         0.0830
      10    C4      20.208608   19.472236   21.915330 C.3        1 MOL1         0.1214
      11    H7      20.719356   19.981085   21.085155 H          1 MOL1         0.0787
      12    C5      18.684472   19.621674   21.817173 C.3        1 MOL1        -0.1765
      13    H8      18.329228   20.561500   22.260494 H          1 MOL1         0.0830
      14    H9      18.393585   19.620757   20.758397 H          1 MOL1         0.0830
      15    O1      20.648509   19.978326   23.167195 O.3        1 MOL1        -0.5512
      16    H10     20.145362   19.471980   23.837732 H          1 MOL1         0.3776
@<TRIPOS>BOND
    1     1     2    1
    2     1     3    1
    3     1     4    1
    4     4     5    1
    5     4     6    1
    6     4     7    1
    7     7     8    1
    8     7     9    1
    9     7    10    1
   10    10    11    1
   11     1    12    1
   12    10    12    1
   13    12    13    1
   14    12    14    1
   15    10    15    1
   16    15    16    1
@<TRIPOS>SUBSTRUCTURE
       1 MOL1            1 RESIDUE      1      MOL     
@<SCITEGIC>MOL_PROPERTY
VConf Rank
SciTegic.value.IntegerValue
327

@<SCITEGIC>MOL_PROPERTY
Conf_Id
SciTegic.value.IntegerValue
20

@<SCITEGIC>MOL_PROPERTY
Delta U+W
SciTegic.value.DoubleValue
-0.483

@<SCITEGIC>MOL_PROPERTY
U+W
SciTegic.value.DoubleValue
2.527

@<SCITEGIC>MOL_PROPERTY
Grad RMS
SciTegic.value.DoubleValue
0.000000

@<SCITEGIC>MOL_PROPERTY
U
SciTegic.value.DoubleValue
4.508

@<SCITEGIC>MOL_PROPERTY
W
SciTegic.value.DoubleValue
-1.981

@<SCITEGIC>MOL_PROPERTY
W(PB)
SciTegic.value.DoubleValue
-3.712

@<SCITEGIC>MOL_PROPERTY
W(SA)
SciTegic.value.DoubleValue
1.732

@<SCITEGIC>MOL_PROPERTY
Valence
SciTegic.value.DoubleValue
14.705

@<SCITEGIC>MOL_PROPERTY
Coulomb
SciTegic.value.DoubleValue
-10.687

@<SCITEGIC>MOL_PROPERTY
VdW
SciTegic.value.DoubleValue
0.490

@<SCITEGIC>MOL_PROPERTY
VdW6
SciTegic.value.DoubleValue
-3.745

@<SCITEGIC>MOL_PROPERTY
VdW12
SciTegic.value.DoubleValue
4.235

@<SCITEGIC>MOL_PROPERTY
Bond
SciTegic.value.DoubleValue
0.068

@<SCITEGIC>MOL_PROPERTY
Angle
SciTegic.value.DoubleValue
3.901

@<SCITEGIC>MOL_PROPERTY
Pdih
SciTegic.value.DoubleValue
10.737

@<SCITEGIC>MOL_PROPERTY
Idih
SciTegic.value.DoubleValue
0.000

@<SCITEGIC>MOL_PROPERTY
Tether
SciTegic.value.DoubleValue
0.000

@<TRIPOS>MOLECULE
guest-4_confgen4.mol2 : confsearch ligand conformer 328
          16          16           1
SMALL
USER_CHARGES
 
@<TRIPOS>ATOM
       1    C1      19.187371   18.048125   23.666393 C.3        1 MOL1        -0.1689
       2    H1      18.612297   18.824570   24.189939 H          1 MOL1         0.0830
       3    H2      19.338515   17.207368   24.356993 H          1 MOL1         0.0830
       4    C2      20.511655   18.639594   23.164235 C.3        1 MOL1        -0.1689
       5    H3      20.962510   19.330544   23.889546 H          1 MOL1         0.0830
       6    H4      21.228318   17.829445   22.970129 H          1 MOL1         0.0830
       7    C3      20.142862   19.336772   21.841929 C.3        1 MOL1        -0.1765
       8    H5      20.990382   19.348131   21.144486 H          1 MOL1         0.0830
       9    H6      19.860583   20.378447   22.046909 H          1 MOL1         0.0830
      10    C4      18.941218   18.561367   21.261860 C.3        1 MOL1         0.1214
      11    H7      19.263940   17.954376   20.403413 H          1 MOL1         0.0787
      12    C5      18.441913   17.629833   22.385591 C.3        1 MOL1        -0.1765
      13    H8      17.352788   17.681403   22.516623 H          1 MOL1         0.0830
      14    H9      18.698709   16.593163   22.131716 H          1 MOL1         0.0830
      15    O1      17.911362   19.465653   20.880346 O.3        1 MOL1        -0.5512
      16    H10     18.285143   20.036743   20.176303 H          1 MOL1         0.3776
@<TRIPOS>BOND
    1     1     2    1
    2     1     3    1
    3     1     4    1
    4     4     5    1
    5     4     6    1
    6     4     7    1
    7     7     8    1
    8     7     9    1
    9     7    10    1
   10    10    11    1
   11     1    12    1
   12    10    12    1
   13    12    13    1
   14    12    14    1
   15    10    15    1
   16    15    16    1
@<TRIPOS>SUBSTRUCTURE
       1 MOL1            1 RESIDUE      1      MOL     
@<SCITEGIC>MOL_PROPERTY
VConf Rank
SciTegic.value.IntegerValue
328

@<SCITEGIC>MOL_PROPERTY
Conf_Id
SciTegic.value.IntegerValue
59

@<SCITEGIC>MOL_PROPERTY
Delta U+W
SciTegic.value.DoubleValue
0.000

@<SCITEGIC>MOL_PROPERTY
U+W
SciTegic.value.DoubleValue
3.010

@<SCITEGIC>MOL_PROPERTY
Grad RMS
SciTegic.value.DoubleValue
0.000000

@<SCITEGIC>MOL_PROPERTY
U
SciTegic.value.DoubleValue
5.843

@<SCITEGIC>MOL_PROPERTY
W
SciTegic.value.DoubleValue
-2.833

@<SCITEGIC>MOL_PROPERTY
W(PB)
SciTegic.value.DoubleValue
-4.568

@<SCITEGIC>MOL_PROPERTY
W(SA)
SciTegic.value.DoubleValue
1.735

@<SCITEGIC>MOL_PROPERTY
Valence
SciTegic.value.DoubleValue
13.789

@<SCITEGIC>MOL_PROPERTY
Coulomb
SciTegic.value.DoubleValue
-8.574

@<SCITEGIC>MOL_PROPERTY
VdW
SciTegic.value.DoubleValue
0.628

@<SCITEGIC>MOL_PROPERTY
VdW6
SciTegic.value.DoubleValue
-3.284

@<SCITEGIC>MOL_PROPERTY
VdW12
SciTegic.value.DoubleValue
3.912

@<SCITEGIC>MOL_PROPERTY
Bond
SciTegic.value.DoubleValue
0.054

@<SCITEGIC>MOL_PROPERTY
Angle
SciTegic.value.DoubleValue
4.034

@<SCITEGIC>MOL_PROPERTY
Pdih
SciTegic.value.DoubleValue
9.702

@<SCITEGIC>MOL_PROPERTY
Idih
SciTegic.value.DoubleValue
0.000

@<SCITEGIC>MOL_PROPERTY
Tether
SciTegic.value.DoubleValue
0.000

@<TRIPOS>MOLECULE
guest-4_confgen4.mol2 : confsearch ligand conformer 329
          16          16           1
SMALL
USER_CHARGES
 
@<TRIPOS>ATOM
       1    C1      18.796169   17.390939   21.919836 C.3        1 MOL1        -0.1689
       2    H1      18.037979   17.036297   21.208403 H          1 MOL1         0.0830
       3    H2      19.247221   16.514889   22.406363 H          1 MOL1         0.0830
       4    C2      18.206022   18.325909   22.984395 C.3        1 MOL1        -0.1689
       5    H3      17.464182   18.990691   22.520263 H          1 MOL1         0.0830
       6    H4      17.714238   17.776871   23.798857 H          1 MOL1         0.0830
       7    C3      19.406138   19.156009   23.476055 C.3        1 MOL1        -0.1765
       8    H5      19.883779   18.647048   24.323346 H          1 MOL1         0.0830
       9    H6      19.095784   20.152656   23.817223 H          1 MOL1         0.0830
      10    C4      20.404643   19.223603   22.302081 C.3        1 MOL1         0.1214
      11    H7      21.400614   18.917671   22.654171 H          1 MOL1         0.0787
      12    C5      19.892329   18.230094   21.238028 C.3        1 MOL1        -0.1765
      13    H8      19.457857   18.773386   20.387823 H          1 MOL1         0.0830
      14    H9      20.702389   17.596317   20.854650 H          1 MOL1         0.0830
      15    O1      20.442858   20.540749   21.765832 O.3        1 MOL1        -0.5512
      16    H10     21.080414   20.522784   21.021031 H          1 MOL1         0.3776
@<TRIPOS>BOND
    1     1     2    1
    2     1     3    1
    3     1     4    1
    4     4     5    1
    5     4     6    1
    6     4     7    1
    7     7     8    1
    8     7     9    1
    9     7    10    1
   10    10    11    1
   11     1    12    1
   12    10    12    1
   13    12    13    1
   14    12    14    1
   15    10    15    1
   16    15    16    1
@<TRIPOS>SUBSTRUCTURE
       1 MOL1            1 RESIDUE      1      MOL     
@<SCITEGIC>MOL_PROPERTY
VConf Rank
SciTegic.value.IntegerValue
329

@<SCITEGIC>MOL_PROPERTY
Conf_Id
SciTegic.value.IntegerValue
33

@<SCITEGIC>MOL_PROPERTY
Delta U+W
SciTegic.value.DoubleValue
0.015

@<SCITEGIC>MOL_PROPERTY
U+W
SciTegic.value.DoubleValue
3.025

@<SCITEGIC>MOL_PROPERTY
Grad RMS
SciTegic.value.DoubleValue
0.000000

@<SCITEGIC>MOL_PROPERTY
U
SciTegic.value.DoubleValue
5.843

@<SCITEGIC>MOL_PROPERTY
W
SciTegic.value.DoubleValue
-2.819

@<SCITEGIC>MOL_PROPERTY
W(PB)
SciTegic.value.DoubleValue
-4.568

@<SCITEGIC>MOL_PROPERTY
W(SA)
SciTegic.value.DoubleValue
1.750

@<SCITEGIC>MOL_PROPERTY
Valence
SciTegic.value.DoubleValue
13.789

@<SCITEGIC>MOL_PROPERTY
Coulomb
SciTegic.value.DoubleValue
-8.574

@<SCITEGIC>MOL_PROPERTY
VdW
SciTegic.value.DoubleValue
0.628

@<SCITEGIC>MOL_PROPERTY
VdW6
SciTegic.value.DoubleValue
-3.284

@<SCITEGIC>MOL_PROPERTY
VdW12
SciTegic.value.DoubleValue
3.913

@<SCITEGIC>MOL_PROPERTY
Bond
SciTegic.value.DoubleValue
0.054

@<SCITEGIC>MOL_PROPERTY
Angle
SciTegic.value.DoubleValue
4.033

@<SCITEGIC>MOL_PROPERTY
Pdih
SciTegic.value.DoubleValue
9.702

@<SCITEGIC>MOL_PROPERTY
Idih
SciTegic.value.DoubleValue
0.000

@<SCITEGIC>MOL_PROPERTY
Tether
SciTegic.value.DoubleValue
0.000

@<TRIPOS>MOLECULE
guest-4_confgen4.mol2 : confsearch ligand conformer 330
          16          16           1
SMALL
USER_CHARGES
 
@<TRIPOS>ATOM
       1    C1      18.460606   17.868845   22.885217 C.3        1 MOL1        -0.1689
       2    H1      17.526728   18.401551   23.111761 H          1 MOL1         0.0830
       3    H2      18.350113   16.835793   23.242417 H          1 MOL1         0.0830
       4    C2      19.649910   18.580964   23.565999 C.3        1 MOL1        -0.1689
       5    H3      19.291496   19.457689   24.122883 H          1 MOL1         0.0830
       6    H4      20.162186   17.920070   24.278595 H          1 MOL1         0.0830
       7    C3      20.602547   19.021174   22.434128 C.3        1 MOL1        -0.1765
       8    H5      21.410636   18.285431   22.327845 H          1 MOL1         0.0830
       9    H6      21.063786   19.997469   22.634409 H          1 MOL1         0.0830
      10    C4      19.762490   19.027675   21.149895 C.3        1 MOL1         0.1214
      11    H7      20.381981   18.844021   20.260241 H          1 MOL1         0.0787
      12    C5      18.739845   17.904397   21.367614 C.3        1 MOL1        -0.1765
      13    H8      17.824805   18.055141   20.779410 H          1 MOL1         0.0830
      14    H9      19.185275   16.951016   21.054120 H          1 MOL1         0.0830
      15    O1      19.079255   20.268170   21.044220 O.3        1 MOL1        -0.5512
      16    H10     18.560094   20.344356   21.871161 H          1 MOL1         0.3776
@<TRIPOS>BOND
    1     1     2    1
    2     1     3    1
    3     1     4    1
    4     4     5    1
    5     4     6    1
    6     4     7    1
    7     7     8    1
    8     7     9    1
    9     7    10    1
   10    10    11    1
   11     1    12    1
   12    10    12    1
   13    12    13    1
   14    12    14    1
   15    10    15    1
   16    15    16    1
@<TRIPOS>SUBSTRUCTURE
       1 MOL1            1 RESIDUE      1      MOL     
@<SCITEGIC>MOL_PROPERTY
VConf Rank
SciTegic.value.IntegerValue
330

@<SCITEGIC>MOL_PROPERTY
Conf_Id
SciTegic.value.IntegerValue
20

@<SCITEGIC>MOL_PROPERTY
Delta U+W
SciTegic.value.DoubleValue
-0.483

@<SCITEGIC>MOL_PROPERTY
U+W
SciTegic.value.DoubleValue
2.527

@<SCITEGIC>MOL_PROPERTY
Grad RMS
SciTegic.value.DoubleValue
0.000000

@<SCITEGIC>MOL_PROPERTY
U
SciTegic.value.DoubleValue
4.508

@<SCITEGIC>MOL_PROPERTY
W
SciTegic.value.DoubleValue
-1.981

@<SCITEGIC>MOL_PROPERTY
W(PB)
SciTegic.value.DoubleValue
-3.712

@<SCITEGIC>MOL_PROPERTY
W(SA)
SciTegic.value.DoubleValue
1.732

@<SCITEGIC>MOL_PROPERTY
Valence
SciTegic.value.DoubleValue
14.705

@<SCITEGIC>MOL_PROPERTY
Coulomb
SciTegic.value.DoubleValue
-10.687

@<SCITEGIC>MOL_PROPERTY
VdW
SciTegic.value.DoubleValue
0.490

@<SCITEGIC>MOL_PROPERTY
VdW6
SciTegic.value.DoubleValue
-3.745

@<SCITEGIC>MOL_PROPERTY
VdW12
SciTegic.value.DoubleValue
4.235

@<SCITEGIC>MOL_PROPERTY
Bond
SciTegic.value.DoubleValue
0.068

@<SCITEGIC>MOL_PROPERTY
Angle
SciTegic.value.DoubleValue
3.901

@<SCITEGIC>MOL_PROPERTY
Pdih
SciTegic.value.DoubleValue
10.737

@<SCITEGIC>MOL_PROPERTY
Idih
SciTegic.value.DoubleValue
0.000

@<SCITEGIC>MOL_PROPERTY
Tether
SciTegic.value.DoubleValue
0.000

@<TRIPOS>MOLECULE
guest-4_confgen4.mol2 : confsearch ligand conformer 331
          16          16           1
SMALL
USER_CHARGES
 
@<TRIPOS>ATOM
       1    C1      18.711284   17.296926   22.653077 C.3        1 MOL1        -0.1689
       2    H1      18.715063   17.262363   23.751470 H          1 MOL1         0.0830
       3    H2      18.179133   16.410193   22.282720 H          1 MOL1         0.0830
       4    C2      20.154364   17.373062   22.135919 C.3        1 MOL1        -0.1689
       5    H3      20.838863   16.735234   22.711588 H          1 MOL1         0.0830
       6    H4      20.187916   17.052607   21.085296 H          1 MOL1         0.0830
       7    C3      20.519397   18.865388   22.237264 C.3        1 MOL1        -0.1765
       8    H5      21.256480   19.150665   21.475574 H          1 MOL1         0.0830
       9    H6      20.958990   19.065634   23.223897 H          1 MOL1         0.0830
      10    C4      19.199813   19.648152   22.070953 C.3        1 MOL1         0.1214
      11    H7      19.165362   20.121281   21.078743 H          1 MOL1         0.0787
      12    C5      18.062837   18.611302   22.180783 C.3        1 MOL1        -0.1765
      13    H8      17.266180   18.936987   22.862904 H          1 MOL1         0.0830
      14    H9      17.614374   18.465504   21.189468 H          1 MOL1         0.0830
      15    O1      19.074951   20.623913   23.098663 O.3        1 MOL1        -0.5512
      16    H10     19.824560   21.246322   22.988091 H          1 MOL1         0.3776
@<TRIPOS>BOND
    1     1     2    1
    2     1     3    1
    3     1     4    1
    4     4     5    1
    5     4     6    1
    6     4     7    1
    7     7     8    1
    8     7     9    1
    9     7    10    1
   10    10    11    1
   11     1    12    1
   12    10    12    1
   13    12    13    1
   14    12    14    1
   15    10    15    1
   16    15    16    1
@<TRIPOS>SUBSTRUCTURE
       1 MOL1            1 RESIDUE      1      MOL     
@<SCITEGIC>MOL_PROPERTY
VConf Rank
SciTegic.value.IntegerValue
331

@<SCITEGIC>MOL_PROPERTY
Conf_Id
SciTegic.value.IntegerValue
59

@<SCITEGIC>MOL_PROPERTY
Delta U+W
SciTegic.value.DoubleValue
0.000

@<SCITEGIC>MOL_PROPERTY
U+W
SciTegic.value.DoubleValue
3.010

@<SCITEGIC>MOL_PROPERTY
Grad RMS
SciTegic.value.DoubleValue
0.000000

@<SCITEGIC>MOL_PROPERTY
U
SciTegic.value.DoubleValue
5.843

@<SCITEGIC>MOL_PROPERTY
W
SciTegic.value.DoubleValue
-2.833

@<SCITEGIC>MOL_PROPERTY
W(PB)
SciTegic.value.DoubleValue
-4.568

@<SCITEGIC>MOL_PROPERTY
W(SA)
SciTegic.value.DoubleValue
1.735

@<SCITEGIC>MOL_PROPERTY
Valence
SciTegic.value.DoubleValue
13.789

@<SCITEGIC>MOL_PROPERTY
Coulomb
SciTegic.value.DoubleValue
-8.574

@<SCITEGIC>MOL_PROPERTY
VdW
SciTegic.value.DoubleValue
0.628

@<SCITEGIC>MOL_PROPERTY
VdW6
SciTegic.value.DoubleValue
-3.284

@<SCITEGIC>MOL_PROPERTY
VdW12
SciTegic.value.DoubleValue
3.912

@<SCITEGIC>MOL_PROPERTY
Bond
SciTegic.value.DoubleValue
0.054

@<SCITEGIC>MOL_PROPERTY
Angle
SciTegic.value.DoubleValue
4.034

@<SCITEGIC>MOL_PROPERTY
Pdih
SciTegic.value.DoubleValue
9.702

@<SCITEGIC>MOL_PROPERTY
Idih
SciTegic.value.DoubleValue
0.000

@<SCITEGIC>MOL_PROPERTY
Tether
SciTegic.value.DoubleValue
0.000

@<TRIPOS>MOLECULE
guest-4_confgen4.mol2 : confsearch ligand conformer 332
          16          16           1
SMALL
USER_CHARGES
 
@<TRIPOS>ATOM
       1    C1      20.140305   19.202315   21.179446 C.3        1 MOL1        -0.1689
       2    H1      21.155592   19.513499   20.898172 H          1 MOL1         0.0830
       3    H2      19.499141   19.277493   20.290132 H          1 MOL1         0.0830
       4    C2      19.558120   20.062020   22.309798 C.3        1 MOL1        -0.1689
       5    H3      20.342592   20.280508   23.047731 H          1 MOL1         0.0830
       6    H4      19.153135   21.015883   21.945413 H          1 MOL1         0.0830
       7    C3      18.478283   19.172593   22.953187 C.3        1 MOL1        -0.1765
       8    H5      17.515215   19.343478   22.454807 H          1 MOL1         0.0830
       9    H6      18.347837   19.402082   24.019179 H          1 MOL1         0.0830
      10    C4      18.914211   17.711648   22.717810 C.3        1 MOL1         0.1214
      11    H7      18.079371   17.150559   22.273129 H          1 MOL1         0.0787
      12    C5      20.099577   17.765403   21.731021 C.3        1 MOL1        -0.1765
      13    H8      21.040983   17.550526   22.254818 H          1 MOL1         0.0830
      14    H9      19.986872   17.029301   20.924610 H          1 MOL1         0.0830
      15    O1      19.323080   17.118066   23.944343 O.3        1 MOL1        -0.5512
      16    H10     19.598301   16.200537   23.734762 H          1 MOL1         0.3776
@<TRIPOS>BOND
    1     1     2    1
    2     1     3    1
    3     1     4    1
    4     4     5    1
    5     4     6    1
    6     4     7    1
    7     7     8    1
    8     7     9    1
    9     7    10    1
   10    10    11    1
   11     1    12    1
   12    10    12    1
   13    12    13    1
   14    12    14    1
   15    10    15    1
   16    15    16    1
@<TRIPOS>SUBSTRUCTURE
       1 MOL1            1 RESIDUE      1      MOL     
@<SCITEGIC>MOL_PROPERTY
VConf Rank
SciTegic.value.IntegerValue
332

@<SCITEGIC>MOL_PROPERTY
Conf_Id
SciTegic.value.IntegerValue
33

@<SCITEGIC>MOL_PROPERTY
Delta U+W
SciTegic.value.DoubleValue
0.015

@<SCITEGIC>MOL_PROPERTY
U+W
SciTegic.value.DoubleValue
3.025

@<SCITEGIC>MOL_PROPERTY
Grad RMS
SciTegic.value.DoubleValue
0.000000

@<SCITEGIC>MOL_PROPERTY
U
SciTegic.value.DoubleValue
5.843

@<SCITEGIC>MOL_PROPERTY
W
SciTegic.value.DoubleValue
-2.819

@<SCITEGIC>MOL_PROPERTY
W(PB)
SciTegic.value.DoubleValue
-4.568

@<SCITEGIC>MOL_PROPERTY
W(SA)
SciTegic.value.DoubleValue
1.750

@<SCITEGIC>MOL_PROPERTY
Valence
SciTegic.value.DoubleValue
13.789

@<SCITEGIC>MOL_PROPERTY
Coulomb
SciTegic.value.DoubleValue
-8.574

@<SCITEGIC>MOL_PROPERTY
VdW
SciTegic.value.DoubleValue
0.628

@<SCITEGIC>MOL_PROPERTY
VdW6
SciTegic.value.DoubleValue
-3.284

@<SCITEGIC>MOL_PROPERTY
VdW12
SciTegic.value.DoubleValue
3.913

@<SCITEGIC>MOL_PROPERTY
Bond
SciTegic.value.DoubleValue
0.054

@<SCITEGIC>MOL_PROPERTY
Angle
SciTegic.value.DoubleValue
4.033

@<SCITEGIC>MOL_PROPERTY
Pdih
SciTegic.value.DoubleValue
9.702

@<SCITEGIC>MOL_PROPERTY
Idih
SciTegic.value.DoubleValue
0.000

@<SCITEGIC>MOL_PROPERTY
Tether
SciTegic.value.DoubleValue
0.000

@<TRIPOS>MOLECULE
guest-4_confgen4.mol2 : confsearch ligand conformer 333
          16          16           1
SMALL
USER_CHARGES
 
@<TRIPOS>ATOM
       1    C1      18.835711   17.431652   21.939432 C.3        1 MOL1        -0.1689
       2    H1      17.747040   17.382392   22.079417 H          1 MOL1         0.0830
       3    H2      19.165468   16.460281   21.546118 H          1 MOL1         0.0830
       4    C2      19.523362   17.763861   23.281742 C.3        1 MOL1        -0.1689
       5    H3      18.767588   17.874333   24.071570 H          1 MOL1         0.0830
       6    H4      20.213620   16.966703   23.590095 H          1 MOL1         0.0830
       7    C3      20.273323   19.096415   23.071284 C.3        1 MOL1        -0.1765
       8    H5      21.329735   18.892218   22.852381 H          1 MOL1         0.0830
       9    H6      20.234687   19.740630   23.959823 H          1 MOL1         0.0830
      10    C4      19.629217   19.757729   21.845403 C.3        1 MOL1         0.1214
      11    H7      20.338395   20.413504   21.320038 H          1 MOL1         0.0787
      12    C5      19.196980   18.575313   20.967896 C.3        1 MOL1        -0.1765
      13    H8      18.363298   18.834559   20.301736 H          1 MOL1         0.0830
      14    H9      20.043889   18.269220   20.339664 H          1 MOL1         0.0830
      15    O1      18.478064   20.481431   22.255171 O.3        1 MOL1        -0.5512
      16    H10     17.911375   19.823523   22.708143 H          1 MOL1         0.3776
@<TRIPOS>BOND
    1     1     2    1
    2     1     3    1
    3     1     4    1
    4     4     5    1
    5     4     6    1
    6     4     7    1
    7     7     8    1
    8     7     9    1
    9     7    10    1
   10    10    11    1
   11     1    12    1
   12    10    12    1
   13    12    13    1
   14    12    14    1
   15    10    15    1
   16    15    16    1
@<TRIPOS>SUBSTRUCTURE
       1 MOL1            1 RESIDUE      1      MOL     
@<SCITEGIC>MOL_PROPERTY
VConf Rank
SciTegic.value.IntegerValue
333

@<SCITEGIC>MOL_PROPERTY
Conf_Id
SciTegic.value.IntegerValue
20

@<SCITEGIC>MOL_PROPERTY
Delta U+W
SciTegic.value.DoubleValue
-0.483

@<SCITEGIC>MOL_PROPERTY
U+W
SciTegic.value.DoubleValue
2.527

@<SCITEGIC>MOL_PROPERTY
Grad RMS
SciTegic.value.DoubleValue
0.000000

@<SCITEGIC>MOL_PROPERTY
U
SciTegic.value.DoubleValue
4.508

@<SCITEGIC>MOL_PROPERTY
W
SciTegic.value.DoubleValue
-1.981

@<SCITEGIC>MOL_PROPERTY
W(PB)
SciTegic.value.DoubleValue
-3.712

@<SCITEGIC>MOL_PROPERTY
W(SA)
SciTegic.value.DoubleValue
1.732

@<SCITEGIC>MOL_PROPERTY
Valence
SciTegic.value.DoubleValue
14.705

@<SCITEGIC>MOL_PROPERTY
Coulomb
SciTegic.value.DoubleValue
-10.687

@<SCITEGIC>MOL_PROPERTY
VdW
SciTegic.value.DoubleValue
0.490

@<SCITEGIC>MOL_PROPERTY
VdW6
SciTegic.value.DoubleValue
-3.745

@<SCITEGIC>MOL_PROPERTY
VdW12
SciTegic.value.DoubleValue
4.235

@<SCITEGIC>MOL_PROPERTY
Bond
SciTegic.value.DoubleValue
0.068

@<SCITEGIC>MOL_PROPERTY
Angle
SciTegic.value.DoubleValue
3.901

@<SCITEGIC>MOL_PROPERTY
Pdih
SciTegic.value.DoubleValue
10.737

@<SCITEGIC>MOL_PROPERTY
Idih
SciTegic.value.DoubleValue
0.000

@<SCITEGIC>MOL_PROPERTY
Tether
SciTegic.value.DoubleValue
0.000

@<TRIPOS>MOLECULE
guest-4_confgen4.mol2 : confsearch ligand conformer 334
          16          16           1
SMALL
USER_CHARGES
 
@<TRIPOS>ATOM
       1    C1      18.249886   19.371521   21.847892 C.3        1 MOL1        -0.1689
       2    H1      17.463062   18.654594   21.574762 H          1 MOL1         0.0830
       3    H2      17.853539   20.386634   21.709691 H          1 MOL1         0.0830
       4    C2      19.501255   19.110143   20.998490 C.3        1 MOL1        -0.1689
       5    H3      19.255103   18.860594   19.957388 H          1 MOL1         0.0830
       6    H4      20.139592   20.004651   20.995702 H          1 MOL1         0.0830
       7    C3      20.221919   17.958158   21.722458 C.3        1 MOL1        -0.1765
       8    H5      21.307490   18.003062   21.566359 H          1 MOL1         0.0830
       9    H6      19.863326   16.998744   21.325318 H          1 MOL1         0.0830
      10    C4      19.857805   18.088071   23.216521 C.3        1 MOL1         0.1214
      11    H7      20.720560   18.468745   23.782436 H          1 MOL1         0.0787
      12    C5      18.705346   19.110536   23.295502 C.3        1 MOL1        -0.1765
      13    H8      17.876220   18.756443   23.922550 H          1 MOL1         0.0830
      14    H9      19.082977   20.042161   23.736579 H          1 MOL1         0.0830
      15    O1      19.434159   16.830672   23.729707 O.3        1 MOL1        -0.5512
      16    H10     20.197329   16.220806   23.645057 H          1 MOL1         0.3776
@<TRIPOS>BOND
    1     1     2    1
    2     1     3    1
    3     1     4    1
    4     4     5    1
    5     4     6    1
    6     4     7    1
    7     7     8    1
    8     7     9    1
    9     7    10    1
   10    10    11    1
   11     1    12    1
   12    10    12    1
   13    12    13    1
   14    12    14    1
   15    10    15    1
   16    15    16    1
@<TRIPOS>SUBSTRUCTURE
       1 MOL1            1 RESIDUE      1      MOL     
@<SCITEGIC>MOL_PROPERTY
VConf Rank
SciTegic.value.IntegerValue
334

@<SCITEGIC>MOL_PROPERTY
Conf_Id
SciTegic.value.IntegerValue
59

@<SCITEGIC>MOL_PROPERTY
Delta U+W
SciTegic.value.DoubleValue
0.000

@<SCITEGIC>MOL_PROPERTY
U+W
SciTegic.value.DoubleValue
3.010

@<SCITEGIC>MOL_PROPERTY
Grad RMS
SciTegic.value.DoubleValue
0.000000

@<SCITEGIC>MOL_PROPERTY
U
SciTegic.value.DoubleValue
5.843

@<SCITEGIC>MOL_PROPERTY
W
SciTegic.value.DoubleValue
-2.833

@<SCITEGIC>MOL_PROPERTY
W(PB)
SciTegic.value.DoubleValue
-4.568

@<SCITEGIC>MOL_PROPERTY
W(SA)
SciTegic.value.DoubleValue
1.735

@<SCITEGIC>MOL_PROPERTY
Valence
SciTegic.value.DoubleValue
13.789

@<SCITEGIC>MOL_PROPERTY
Coulomb
SciTegic.value.DoubleValue
-8.574

@<SCITEGIC>MOL_PROPERTY
VdW
SciTegic.value.DoubleValue
0.628

@<SCITEGIC>MOL_PROPERTY
VdW6
SciTegic.value.DoubleValue
-3.284

@<SCITEGIC>MOL_PROPERTY
VdW12
SciTegic.value.DoubleValue
3.912

@<SCITEGIC>MOL_PROPERTY
Bond
SciTegic.value.DoubleValue
0.054

@<SCITEGIC>MOL_PROPERTY
Angle
SciTegic.value.DoubleValue
4.034

@<SCITEGIC>MOL_PROPERTY
Pdih
SciTegic.value.DoubleValue
9.702

@<SCITEGIC>MOL_PROPERTY
Idih
SciTegic.value.DoubleValue
0.000

@<SCITEGIC>MOL_PROPERTY
Tether
SciTegic.value.DoubleValue
0.000

@<TRIPOS>MOLECULE
guest-4_confgen4.mol2 : confsearch ligand conformer 335
          16          16           1
SMALL
USER_CHARGES
 
@<TRIPOS>ATOM
       1    C1      20.238426   19.791459   22.519559 C.3        1 MOL1        -0.1689
       2    H1      21.231692   20.070118   22.897091 H          1 MOL1         0.0830
       3    H2      19.766245   20.690135   22.098790 H          1 MOL1         0.0830
       4    C2      19.340989   19.202194   23.616419 C.3        1 MOL1        -0.1689
       5    H3      19.937391   18.549477   24.269064 H          1 MOL1         0.0830
       6    H4      18.874813   19.978010   24.238860 H          1 MOL1         0.0830
       7    C3      18.303071   18.358822   22.853186 C.3        1 MOL1        -0.1765
       8    H5      17.432632   18.980584   22.606543 H          1 MOL1         0.0830
       9    H6      17.948373   17.511912   23.455641 H          1 MOL1         0.0830
      10    C4      18.982550   17.903177   21.545328 C.3        1 MOL1         0.1214
      11    H7      18.333548   18.151835   20.692987 H          1 MOL1         0.0787
      12    C5      20.307364   18.688669   21.447313 C.3        1 MOL1        -0.1765
      13    H8      21.158506   18.027619   21.660271 H          1 MOL1         0.0830
      14    H9      20.452016   19.112250   20.445064 H          1 MOL1         0.0830
      15    O1      19.242796   16.505227   21.588964 O.3        1 MOL1        -0.5512
      16    H10     19.682202   16.274425   20.743280 H          1 MOL1         0.3776
@<TRIPOS>BOND
    1     1     2    1
    2     1     3    1
    3     1     4    1
    4     4     5    1
    5     4     6    1
    6     4     7    1
    7     7     8    1
    8     7     9    1
    9     7    10    1
   10    10    11    1
   11     1    12    1
   12    10    12    1
   13    12    13    1
   14    12    14    1
   15    10    15    1
   16    15    16    1
@<TRIPOS>SUBSTRUCTURE
       1 MOL1            1 RESIDUE      1      MOL     
@<SCITEGIC>MOL_PROPERTY
VConf Rank
SciTegic.value.IntegerValue
335

@<SCITEGIC>MOL_PROPERTY
Conf_Id
SciTegic.value.IntegerValue
33

@<SCITEGIC>MOL_PROPERTY
Delta U+W
SciTegic.value.DoubleValue
0.015

@<SCITEGIC>MOL_PROPERTY
U+W
SciTegic.value.DoubleValue
3.025

@<SCITEGIC>MOL_PROPERTY
Grad RMS
SciTegic.value.DoubleValue
0.000000

@<SCITEGIC>MOL_PROPERTY
U
SciTegic.value.DoubleValue
5.843

@<SCITEGIC>MOL_PROPERTY
W
SciTegic.value.DoubleValue
-2.819

@<SCITEGIC>MOL_PROPERTY
W(PB)
SciTegic.value.DoubleValue
-4.568

@<SCITEGIC>MOL_PROPERTY
W(SA)
SciTegic.value.DoubleValue
1.750

@<SCITEGIC>MOL_PROPERTY
Valence
SciTegic.value.DoubleValue
13.789

@<SCITEGIC>MOL_PROPERTY
Coulomb
SciTegic.value.DoubleValue
-8.574

@<SCITEGIC>MOL_PROPERTY
VdW
SciTegic.value.DoubleValue
0.628

@<SCITEGIC>MOL_PROPERTY
VdW6
SciTegic.value.DoubleValue
-3.284

@<SCITEGIC>MOL_PROPERTY
VdW12
SciTegic.value.DoubleValue
3.913

@<SCITEGIC>MOL_PROPERTY
Bond
SciTegic.value.DoubleValue
0.054

@<SCITEGIC>MOL_PROPERTY
Angle
SciTegic.value.DoubleValue
4.033

@<SCITEGIC>MOL_PROPERTY
Pdih
SciTegic.value.DoubleValue
9.702

@<SCITEGIC>MOL_PROPERTY
Idih
SciTegic.value.DoubleValue
0.000

@<SCITEGIC>MOL_PROPERTY
Tether
SciTegic.value.DoubleValue
0.000

@<TRIPOS>MOLECULE
guest-4_confgen4.mol2 : confsearch ligand conformer 336
          16          16           1
SMALL
USER_CHARGES
 
@<TRIPOS>ATOM
       1    C1      18.961309   18.107481   23.423608 C.3        1 MOL1        -0.1689
       2    H1      19.416214   17.143090   23.688635 H          1 MOL1         0.0830
       3    H2      18.282417   18.391180   24.239462 H          1 MOL1         0.0830
       4    C2      18.212209   17.982970   22.078853 C.3        1 MOL1        -0.1689
       5    H3      18.303675   16.958065   21.693585 H          1 MOL1         0.0830
       6    H4      17.141604   18.202538   22.191075 H          1 MOL1         0.0830
       7    C3      18.884150   18.978819   21.109721 C.3        1 MOL1        -0.1765
       8    H5      18.301351   19.908817   21.077008 H          1 MOL1         0.0830
       9    H6      18.945027   18.586471   20.085825 H          1 MOL1         0.0830
      10    C4      20.268346   19.278717   21.700532 C.3        1 MOL1         0.1214
      11    H7      20.624945   20.277189   21.409202 H          1 MOL1         0.0787
      12    C5      20.056988   19.174783   23.216937 C.3        1 MOL1        -0.1765
      13    H8      20.984631   18.927741   23.750277 H          1 MOL1         0.0830
      14    H9      19.702100   20.142782   23.594633 H          1 MOL1         0.0830
      15    O1      21.181733   18.273532   21.285642 O.3        1 MOL1        -0.5512
      16    H10     20.785053   17.429588   21.584918 H          1 MOL1         0.3776
@<TRIPOS>BOND
    1     1     2    1
    2     1     3    1
    3     1     4    1
    4     4     5    1
    5     4     6    1
    6     4     7    1
    7     7     8    1
    8     7     9    1
    9     7    10    1
   10    10    11    1
   11     1    12    1
   12    10    12    1
   13    12    13    1
   14    12    14    1
   15    10    15    1
   16    15    16    1
@<TRIPOS>SUBSTRUCTURE
       1 MOL1            1 RESIDUE      1      MOL     
@<SCITEGIC>MOL_PROPERTY
VConf Rank
SciTegic.value.IntegerValue
336

@<SCITEGIC>MOL_PROPERTY
Conf_Id
SciTegic.value.IntegerValue
20

@<SCITEGIC>MOL_PROPERTY
Delta U+W
SciTegic.value.DoubleValue
-0.483

@<SCITEGIC>MOL_PROPERTY
U+W
SciTegic.value.DoubleValue
2.527

@<SCITEGIC>MOL_PROPERTY
Grad RMS
SciTegic.value.DoubleValue
0.000000

@<SCITEGIC>MOL_PROPERTY
U
SciTegic.value.DoubleValue
4.508

@<SCITEGIC>MOL_PROPERTY
W
SciTegic.value.DoubleValue
-1.981

@<SCITEGIC>MOL_PROPERTY
W(PB)
SciTegic.value.DoubleValue
-3.712

@<SCITEGIC>MOL_PROPERTY
W(SA)
SciTegic.value.DoubleValue
1.732

@<SCITEGIC>MOL_PROPERTY
Valence
SciTegic.value.DoubleValue
14.705

@<SCITEGIC>MOL_PROPERTY
Coulomb
SciTegic.value.DoubleValue
-10.687

@<SCITEGIC>MOL_PROPERTY
VdW
SciTegic.value.DoubleValue
0.490

@<SCITEGIC>MOL_PROPERTY
VdW6
SciTegic.value.DoubleValue
-3.745

@<SCITEGIC>MOL_PROPERTY
VdW12
SciTegic.value.DoubleValue
4.235

@<SCITEGIC>MOL_PROPERTY
Bond
SciTegic.value.DoubleValue
0.068

@<SCITEGIC>MOL_PROPERTY
Angle
SciTegic.value.DoubleValue
3.901

@<SCITEGIC>MOL_PROPERTY
Pdih
SciTegic.value.DoubleValue
10.737

@<SCITEGIC>MOL_PROPERTY
Idih
SciTegic.value.DoubleValue
0.000

@<SCITEGIC>MOL_PROPERTY
Tether
SciTegic.value.DoubleValue
0.000

@<TRIPOS>MOLECULE
guest-4_confgen4.mol2 : confsearch ligand conformer 337
          16          16           1
SMALL
USER_CHARGES
 
@<TRIPOS>ATOM
       1    C1      20.763209   18.794571   22.028584 C.3        1 MOL1        -0.1689
       2    H1      21.205302   17.794925   21.914837 H          1 MOL1         0.0830
       3    H2      21.543266   19.540919   21.825801 H          1 MOL1         0.0830
       4    C2      20.167814   18.936522   23.436094 C.3        1 MOL1        -0.1689
       5    H3      20.798367   18.470649   24.205590 H          1 MOL1         0.0830
       6    H4      20.053762   20.001121   23.683574 H          1 MOL1         0.0830
       7    C3      18.781732   18.273970   23.334328 C.3        1 MOL1        -0.1765
       8    H5      18.069815   18.722962   24.038903 H          1 MOL1         0.0830
       9    H6      18.870502   17.206607   23.578543 H          1 MOL1         0.0830
      10    C4      18.321165   18.451458   21.872119 C.3        1 MOL1         0.1214
      11    H7      17.532222   19.215629   21.816153 H          1 MOL1         0.0787
      12    C5      19.555688   18.934937   21.083428 C.3        1 MOL1        -0.1765
      13    H8      19.702983   18.370738   20.152834 H          1 MOL1         0.0830
      14    H9      19.418326   19.990579   20.815411 H          1 MOL1         0.0830
      15    O1      17.859355   17.211733   21.348952 O.3        1 MOL1        -0.5512
      16    H10     17.086056   16.948215   21.891260 H          1 MOL1         0.3776
@<TRIPOS>BOND
    1     1     2    1
    2     1     3    1
    3     1     4    1
    4     4     5    1
    5     4     6    1
    6     4     7    1
    7     7     8    1
    8     7     9    1
    9     7    10    1
   10    10    11    1
   11     1    12    1
   12    10    12    1
   13    12    13    1
   14    12    14    1
   15    10    15    1
   16    15    16    1
@<TRIPOS>SUBSTRUCTURE
       1 MOL1            1 RESIDUE      1      MOL     
@<SCITEGIC>MOL_PROPERTY
VConf Rank
SciTegic.value.IntegerValue
337

@<SCITEGIC>MOL_PROPERTY
Conf_Id
SciTegic.value.IntegerValue
59

@<SCITEGIC>MOL_PROPERTY
Delta U+W
SciTegic.value.DoubleValue
0.000

@<SCITEGIC>MOL_PROPERTY
U+W
SciTegic.value.DoubleValue
3.010

@<SCITEGIC>MOL_PROPERTY
Grad RMS
SciTegic.value.DoubleValue
0.000000

@<SCITEGIC>MOL_PROPERTY
U
SciTegic.value.DoubleValue
5.843

@<SCITEGIC>MOL_PROPERTY
W
SciTegic.value.DoubleValue
-2.833

@<SCITEGIC>MOL_PROPERTY
W(PB)
SciTegic.value.DoubleValue
-4.568

@<SCITEGIC>MOL_PROPERTY
W(SA)
SciTegic.value.DoubleValue
1.735

@<SCITEGIC>MOL_PROPERTY
Valence
SciTegic.value.DoubleValue
13.789

@<SCITEGIC>MOL_PROPERTY
Coulomb
SciTegic.value.DoubleValue
-8.574

@<SCITEGIC>MOL_PROPERTY
VdW
SciTegic.value.DoubleValue
0.628

@<SCITEGIC>MOL_PROPERTY
VdW6
SciTegic.value.DoubleValue
-3.284

@<SCITEGIC>MOL_PROPERTY
VdW12
SciTegic.value.DoubleValue
3.912

@<SCITEGIC>MOL_PROPERTY
Bond
SciTegic.value.DoubleValue
0.054

@<SCITEGIC>MOL_PROPERTY
Angle
SciTegic.value.DoubleValue
4.034

@<SCITEGIC>MOL_PROPERTY
Pdih
SciTegic.value.DoubleValue
9.702

@<SCITEGIC>MOL_PROPERTY
Idih
SciTegic.value.DoubleValue
0.000

@<SCITEGIC>MOL_PROPERTY
Tether
SciTegic.value.DoubleValue
0.000

@<TRIPOS>MOLECULE
guest-4_confgen4.mol2 : confsearch ligand conformer 338
          16          16           1
SMALL
USER_CHARGES
 
@<TRIPOS>ATOM
       1    C1      18.158188   19.205768   22.107368 C.3        1 MOL1        -0.1689
       2    H1      17.632354   20.143711   22.332138 H          1 MOL1         0.0830
       3    H2      17.515310   18.599504   21.454089 H          1 MOL1         0.0830
       4    C2      18.502373   18.411112   23.374564 C.3        1 MOL1        -0.1689
       5    H3      18.823814   19.101894   24.166509 H          1 MOL1         0.0830
       6    H4      17.649123   17.830116   23.750131 H          1 MOL1         0.0830
       7    C3      19.685016   17.516779   22.959114 C.3        1 MOL1        -0.1765
       8    H5      19.306691   16.560196   22.575833 H          1 MOL1         0.0830
       9    H6      20.344848   17.298211   23.809331 H          1 MOL1         0.0830
      10    C4      20.419621   18.258549   21.823363 C.3        1 MOL1         0.1214
      11    H7      20.547434   17.578588   20.968474 H          1 MOL1         0.0787
      12    C5      19.517105   19.445096   21.424230 C.3        1 MOL1        -0.1765
      13    H8      19.945650   20.388719   21.788521 H          1 MOL1         0.0830
      14    H9      19.410174   19.521905   20.334499 H          1 MOL1         0.0830
      15    O1      21.679916   18.733001   22.282111 O.3        1 MOL1        -0.5512
      16    H10     22.095001   19.202761   21.528082 H          1 MOL1         0.3776
@<TRIPOS>BOND
    1     1     2    1
    2     1     3    1
    3     1     4    1
    4     4     5    1
    5     4     6    1
    6     4     7    1
    7     7     8    1
    8     7     9    1
    9     7    10    1
   10    10    11    1
   11     1    12    1
   12    10    12    1
   13    12    13    1
   14    12    14    1
   15    10    15    1
   16    15    16    1
@<TRIPOS>SUBSTRUCTURE
       1 MOL1            1 RESIDUE      1      MOL     
@<SCITEGIC>MOL_PROPERTY
VConf Rank
SciTegic.value.IntegerValue
338

@<SCITEGIC>MOL_PROPERTY
Conf_Id
SciTegic.value.IntegerValue
33

@<SCITEGIC>MOL_PROPERTY
Delta U+W
SciTegic.value.DoubleValue
0.015

@<SCITEGIC>MOL_PROPERTY
U+W
SciTegic.value.DoubleValue
3.025

@<SCITEGIC>MOL_PROPERTY
Grad RMS
SciTegic.value.DoubleValue
0.000000

@<SCITEGIC>MOL_PROPERTY
U
SciTegic.value.DoubleValue
5.843

@<SCITEGIC>MOL_PROPERTY
W
SciTegic.value.DoubleValue
-2.819

@<SCITEGIC>MOL_PROPERTY
W(PB)
SciTegic.value.DoubleValue
-4.568

@<SCITEGIC>MOL_PROPERTY
W(SA)
SciTegic.value.DoubleValue
1.750

@<SCITEGIC>MOL_PROPERTY
Valence
SciTegic.value.DoubleValue
13.789

@<SCITEGIC>MOL_PROPERTY
Coulomb
SciTegic.value.DoubleValue
-8.574

@<SCITEGIC>MOL_PROPERTY
VdW
SciTegic.value.DoubleValue
0.628

@<SCITEGIC>MOL_PROPERTY
VdW6
SciTegic.value.DoubleValue
-3.284

@<SCITEGIC>MOL_PROPERTY
VdW12
SciTegic.value.DoubleValue
3.913

@<SCITEGIC>MOL_PROPERTY
Bond
SciTegic.value.DoubleValue
0.054

@<SCITEGIC>MOL_PROPERTY
Angle
SciTegic.value.DoubleValue
4.033

@<SCITEGIC>MOL_PROPERTY
Pdih
SciTegic.value.DoubleValue
9.702

@<SCITEGIC>MOL_PROPERTY
Idih
SciTegic.value.DoubleValue
0.000

@<SCITEGIC>MOL_PROPERTY
Tether
SciTegic.value.DoubleValue
0.000

@<TRIPOS>MOLECULE
guest-4_confgen4.mol2 : confsearch ligand conformer 339
          16          16           1
SMALL
USER_CHARGES
 
@<TRIPOS>ATOM
       1    C1      18.627378   17.821764   23.032381 C.3        1 MOL1        -0.1689
       2    H1      18.951036   17.777562   24.081437 H          1 MOL1         0.0830
       3    H2      17.734006   17.190203   22.932316 H          1 MOL1         0.0830
       4    C2      19.768849   17.341120   22.109859 C.3        1 MOL1        -0.1689
       5    H3      20.644562   17.063302   22.712496 H          1 MOL1         0.0830
       6    H4      19.472221   16.458712   21.526450 H          1 MOL1         0.0830
       7    C3      20.112989   18.527784   21.184746 C.3        1 MOL1        -0.1765
       8    H5      19.601207   18.402378   20.221433 H          1 MOL1         0.0830
       9    H6      21.190211   18.600188   20.983860 H          1 MOL1         0.0830
      10    C4      19.565836   19.781575   21.880179 C.3        1 MOL1         0.1214
      11    H7      19.311152   20.567881   21.155031 H          1 MOL1         0.0787
      12    C5      18.323785   19.280420   22.629252 C.3        1 MOL1        -0.1765
      13    H8      18.078527   19.909260   23.495515 H          1 MOL1         0.0830
      14    H9      17.463578   19.301072   21.947168 H          1 MOL1         0.0830
      15    O1      20.521767   20.249741   22.820299 O.3        1 MOL1        -0.5512
      16    H10     20.684650   19.490801   23.417493 H          1 MOL1         0.3776
@<TRIPOS>BOND
    1     1     2    1
    2     1     3    1
    3     1     4    1
    4     4     5    1
    5     4     6    1
    6     4     7    1
    7     7     8    1
    8     7     9    1
    9     7    10    1
   10    10    11    1
   11     1    12    1
   12    10    12    1
   13    12    13    1
   14    12    14    1
   15    10    15    1
   16    15    16    1
@<TRIPOS>SUBSTRUCTURE
       1 MOL1            1 RESIDUE      1      MOL     
@<SCITEGIC>MOL_PROPERTY
VConf Rank
SciTegic.value.IntegerValue
339

@<SCITEGIC>MOL_PROPERTY
Conf_Id
SciTegic.value.IntegerValue
20

@<SCITEGIC>MOL_PROPERTY
Delta U+W
SciTegic.value.DoubleValue
-0.483

@<SCITEGIC>MOL_PROPERTY
U+W
SciTegic.value.DoubleValue
2.527

@<SCITEGIC>MOL_PROPERTY
Grad RMS
SciTegic.value.DoubleValue
0.000000

@<SCITEGIC>MOL_PROPERTY
U
SciTegic.value.DoubleValue
4.508

@<SCITEGIC>MOL_PROPERTY
W
SciTegic.value.DoubleValue
-1.981

@<SCITEGIC>MOL_PROPERTY
W(PB)
SciTegic.value.DoubleValue
-3.712

@<SCITEGIC>MOL_PROPERTY
W(SA)
SciTegic.value.DoubleValue
1.732

@<SCITEGIC>MOL_PROPERTY
Valence
SciTegic.value.DoubleValue
14.705

@<SCITEGIC>MOL_PROPERTY
Coulomb
SciTegic.value.DoubleValue
-10.687

@<SCITEGIC>MOL_PROPERTY
VdW
SciTegic.value.DoubleValue
0.490

@<SCITEGIC>MOL_PROPERTY
VdW6
SciTegic.value.DoubleValue
-3.745

@<SCITEGIC>MOL_PROPERTY
VdW12
SciTegic.value.DoubleValue
4.235

@<SCITEGIC>MOL_PROPERTY
Bond
SciTegic.value.DoubleValue
0.068

@<SCITEGIC>MOL_PROPERTY
Angle
SciTegic.value.DoubleValue
3.901

@<SCITEGIC>MOL_PROPERTY
Pdih
SciTegic.value.DoubleValue
10.737

@<SCITEGIC>MOL_PROPERTY
Idih
SciTegic.value.DoubleValue
0.000

@<SCITEGIC>MOL_PROPERTY
Tether
SciTegic.value.DoubleValue
0.000

@<TRIPOS>MOLECULE
guest-4_confgen4.mol2 : confsearch ligand conformer 340
          16          16           1
SMALL
USER_CHARGES
 
@<TRIPOS>ATOM
       1    C1      20.180043   19.252039   23.289342 C.3        1 MOL1        -0.1689
       2    H1      19.816561   18.906149   24.267053 H          1 MOL1         0.0830
       3    H2      21.033197   19.923300   23.457211 H          1 MOL1         0.0830
       4    C2      19.036430   19.936606   22.528260 C.3        1 MOL1        -0.1689
       5    H3      18.407885   20.553591   23.184780 H          1 MOL1         0.0830
       6    H4      19.450563   20.583233   21.742135 H          1 MOL1         0.0830
       7    C3      18.252931   18.775677   21.888782 C.3        1 MOL1        -0.1765
       8    H5      17.766750   19.086202   20.954947 H          1 MOL1         0.0830
       9    H6      17.469294   18.440909   22.582056 H          1 MOL1         0.0830
      10    C4      19.273168   17.643106   21.647786 C.3        1 MOL1         0.1214
      11    H7      19.504581   17.566933   20.575329 H          1 MOL1         0.0787
      12    C5      20.550315   18.037739   22.417846 C.3        1 MOL1        -0.1765
      13    H8      20.944245   17.210611   23.023405 H          1 MOL1         0.0830
      14    H9      21.328119   18.324230   21.698106 H          1 MOL1         0.0830
      15    O1      18.763688   16.410097   22.141757 O.3        1 MOL1        -0.5512
      16    H10     17.951795   16.215112   21.627616 H          1 MOL1         0.3776
@<TRIPOS>BOND
    1     1     2    1
    2     1     3    1
    3     1     4    1
    4     4     5    1
    5     4     6    1
    6     4     7    1
    7     7     8    1
    8     7     9    1
    9     7    10    1
   10    10    11    1
   11     1    12    1
   12    10    12    1
   13    12    13    1
   14    12    14    1
   15    10    15    1
   16    15    16    1
@<TRIPOS>SUBSTRUCTURE
       1 MOL1            1 RESIDUE      1      MOL     
@<SCITEGIC>MOL_PROPERTY
VConf Rank
SciTegic.value.IntegerValue
340

@<SCITEGIC>MOL_PROPERTY
Conf_Id
SciTegic.value.IntegerValue
59

@<SCITEGIC>MOL_PROPERTY
Delta U+W
SciTegic.value.DoubleValue
0.000

@<SCITEGIC>MOL_PROPERTY
U+W
SciTegic.value.DoubleValue
3.010

@<SCITEGIC>MOL_PROPERTY
Grad RMS
SciTegic.value.DoubleValue
0.000000

@<SCITEGIC>MOL_PROPERTY
U
SciTegic.value.DoubleValue
5.843

@<SCITEGIC>MOL_PROPERTY
W
SciTegic.value.DoubleValue
-2.833

@<SCITEGIC>MOL_PROPERTY
W(PB)
SciTegic.value.DoubleValue
-4.568

@<SCITEGIC>MOL_PROPERTY
W(SA)
SciTegic.value.DoubleValue
1.735

@<SCITEGIC>MOL_PROPERTY
Valence
SciTegic.value.DoubleValue
13.789

@<SCITEGIC>MOL_PROPERTY
Coulomb
SciTegic.value.DoubleValue
-8.574

@<SCITEGIC>MOL_PROPERTY
VdW
SciTegic.value.DoubleValue
0.628

@<SCITEGIC>MOL_PROPERTY
VdW6
SciTegic.value.DoubleValue
-3.284

@<SCITEGIC>MOL_PROPERTY
VdW12
SciTegic.value.DoubleValue
3.912

@<SCITEGIC>MOL_PROPERTY
Bond
SciTegic.value.DoubleValue
0.054

@<SCITEGIC>MOL_PROPERTY
Angle
SciTegic.value.DoubleValue
4.034

@<SCITEGIC>MOL_PROPERTY
Pdih
SciTegic.value.DoubleValue
9.702

@<SCITEGIC>MOL_PROPERTY
Idih
SciTegic.value.DoubleValue
0.000

@<SCITEGIC>MOL_PROPERTY
Tether
SciTegic.value.DoubleValue
0.000

@<TRIPOS>MOLECULE
guest-4_confgen4.mol2 : confsearch ligand conformer 341
          16          16           1
SMALL
USER_CHARGES
 
@<TRIPOS>ATOM
       1    C1      20.099583   19.889311   22.190708 C.3        1 MOL1        -0.1689
       2    H1      19.908371   20.889556   21.778754 H          1 MOL1         0.0830
       3    H2      21.020004   19.934490   22.789379 H          1 MOL1         0.0830
       4    C2      20.248240   18.825045   21.094823 C.3        1 MOL1        -0.1689
       5    H3      19.516345   19.013262   20.296961 H          1 MOL1         0.0830
       6    H4      21.251496   18.820746   20.647497 H          1 MOL1         0.0830
       7    C3      19.913188   17.497382   21.799187 C.3        1 MOL1        -0.1765
       8    H5      20.829610   17.060183   22.216456 H          1 MOL1         0.0830
       9    H6      19.482588   16.766885   21.101350 H          1 MOL1         0.0830
      10    C4      18.949852   17.842800   22.953513 C.3        1 MOL1         0.1214
      11    H7      19.329397   17.403063   23.887374 H          1 MOL1         0.0787
      12    C5      18.935835   19.382206   23.061997 C.3        1 MOL1        -0.1765
      13    H8      17.989638   19.782619   22.673201 H          1 MOL1         0.0830
      14    H9      19.039955   19.714227   24.103039 H          1 MOL1         0.0830
      15    O1      17.643690   17.359204   22.663734 O.3        1 MOL1        -0.5512
      16    H10     17.074824   17.614932   23.420387 H          1 MOL1         0.3776
@<TRIPOS>BOND
    1     1     2    1
    2     1     3    1
    3     1     4    1
    4     4     5    1
    5     4     6    1
    6     4     7    1
    7     7     8    1
    8     7     9    1
    9     7    10    1
   10    10    11    1
   11     1    12    1
   12    10    12    1
   13    12    13    1
   14    12    14    1
   15    10    15    1
   16    15    16    1
@<TRIPOS>SUBSTRUCTURE
       1 MOL1            1 RESIDUE      1      MOL     
@<SCITEGIC>MOL_PROPERTY
VConf Rank
SciTegic.value.IntegerValue
341

@<SCITEGIC>MOL_PROPERTY
Conf_Id
SciTegic.value.IntegerValue
33

@<SCITEGIC>MOL_PROPERTY
Delta U+W
SciTegic.value.DoubleValue
0.015

@<SCITEGIC>MOL_PROPERTY
U+W
SciTegic.value.DoubleValue
3.025

@<SCITEGIC>MOL_PROPERTY
Grad RMS
SciTegic.value.DoubleValue
0.000000

@<SCITEGIC>MOL_PROPERTY
U
SciTegic.value.DoubleValue
5.843

@<SCITEGIC>MOL_PROPERTY
W
SciTegic.value.DoubleValue
-2.819

@<SCITEGIC>MOL_PROPERTY
W(PB)
SciTegic.value.DoubleValue
-4.568

@<SCITEGIC>MOL_PROPERTY
W(SA)
SciTegic.value.DoubleValue
1.750

@<SCITEGIC>MOL_PROPERTY
Valence
SciTegic.value.DoubleValue
13.789

@<SCITEGIC>MOL_PROPERTY
Coulomb
SciTegic.value.DoubleValue
-8.574

@<SCITEGIC>MOL_PROPERTY
VdW
SciTegic.value.DoubleValue
0.628

@<SCITEGIC>MOL_PROPERTY
VdW6
SciTegic.value.DoubleValue
-3.284

@<SCITEGIC>MOL_PROPERTY
VdW12
SciTegic.value.DoubleValue
3.913

@<SCITEGIC>MOL_PROPERTY
Bond
SciTegic.value.DoubleValue
0.054

@<SCITEGIC>MOL_PROPERTY
Angle
SciTegic.value.DoubleValue
4.033

@<SCITEGIC>MOL_PROPERTY
Pdih
SciTegic.value.DoubleValue
9.702

@<SCITEGIC>MOL_PROPERTY
Idih
SciTegic.value.DoubleValue
0.000

@<SCITEGIC>MOL_PROPERTY
Tether
SciTegic.value.DoubleValue
0.000

@<TRIPOS>MOLECULE
guest-4_confgen4.mol2 : confsearch ligand conformer 342
          16          16           1
SMALL
USER_CHARGES
 
@<TRIPOS>ATOM
       1    C1      18.898831   17.989794   23.339867 C.3        1 MOL1        -0.1689
       2    H1      19.446410   18.209218   24.266818 H          1 MOL1         0.0830
       3    H2      18.074301   17.309288   23.592966 H          1 MOL1         0.0830
       4    C2      19.854358   17.362576   22.301316 C.3        1 MOL1        -0.1689
       5    H3      20.864125   17.277469   22.725997 H          1 MOL1         0.0830
       6    H4      19.529087   16.354333   22.010376 H          1 MOL1         0.0830
       7    C3      19.865508   18.314152   21.086074 C.3        1 MOL1        -0.1765
       8    H5      19.171345   17.940975   20.321550 H          1 MOL1         0.0830
       9    H6      20.859792   18.390180   20.626048 H          1 MOL1         0.0830
      10    C4      19.358433   19.667779   21.601402 C.3        1 MOL1         0.1214
      11    H7      18.872840   20.248248   20.803757 H          1 MOL1         0.0787
      12    C5      18.367512   19.296205   22.712692 C.3        1 MOL1        -0.1765
      13    H8      18.254427   20.098109   23.454424 H          1 MOL1         0.0830
      14    H9      17.381669   19.113760   22.264977 H          1 MOL1         0.0830
      15    O1      20.443667   20.390074   22.164752 O.3        1 MOL1        -0.5512
      16    H10     20.809447   19.801603   22.856900 H          1 MOL1         0.3776
@<TRIPOS>BOND
    1     1     2    1
    2     1     3    1
    3     1     4    1
    4     4     5    1
    5     4     6    1
    6     4     7    1
    7     7     8    1
    8     7     9    1
    9     7    10    1
   10    10    11    1
   11     1    12    1
   12    10    12    1
   13    12    13    1
   14    12    14    1
   15    10    15    1
   16    15    16    1
@<TRIPOS>SUBSTRUCTURE
       1 MOL1            1 RESIDUE      1      MOL     
@<SCITEGIC>MOL_PROPERTY
VConf Rank
SciTegic.value.IntegerValue
342

@<SCITEGIC>MOL_PROPERTY
Conf_Id
SciTegic.value.IntegerValue
20

@<SCITEGIC>MOL_PROPERTY
Delta U+W
SciTegic.value.DoubleValue
-0.483

@<SCITEGIC>MOL_PROPERTY
U+W
SciTegic.value.DoubleValue
2.527

@<SCITEGIC>MOL_PROPERTY
Grad RMS
SciTegic.value.DoubleValue
0.000000

@<SCITEGIC>MOL_PROPERTY
U
SciTegic.value.DoubleValue
4.508

@<SCITEGIC>MOL_PROPERTY
W
SciTegic.value.DoubleValue
-1.981

@<SCITEGIC>MOL_PROPERTY
W(PB)
SciTegic.value.DoubleValue
-3.712

@<SCITEGIC>MOL_PROPERTY
W(SA)
SciTegic.value.DoubleValue
1.732

@<SCITEGIC>MOL_PROPERTY
Valence
SciTegic.value.DoubleValue
14.705

@<SCITEGIC>MOL_PROPERTY
Coulomb
SciTegic.value.DoubleValue
-10.687

@<SCITEGIC>MOL_PROPERTY
VdW
SciTegic.value.DoubleValue
0.490

@<SCITEGIC>MOL_PROPERTY
VdW6
SciTegic.value.DoubleValue
-3.745

@<SCITEGIC>MOL_PROPERTY
VdW12
SciTegic.value.DoubleValue
4.235

@<SCITEGIC>MOL_PROPERTY
Bond
SciTegic.value.DoubleValue
0.068

@<SCITEGIC>MOL_PROPERTY
Angle
SciTegic.value.DoubleValue
3.901

@<SCITEGIC>MOL_PROPERTY
Pdih
SciTegic.value.DoubleValue
10.737

@<SCITEGIC>MOL_PROPERTY
Idih
SciTegic.value.DoubleValue
0.000

@<SCITEGIC>MOL_PROPERTY
Tether
SciTegic.value.DoubleValue
0.000

@<TRIPOS>MOLECULE
guest-4_confgen4.mol2 : confsearch ligand conformer 343
          16          16           1
SMALL
USER_CHARGES
 
@<TRIPOS>ATOM
       1    C1      19.573962   19.145315   23.624715 C.3        1 MOL1        -0.1689
       2    H1      20.044330   18.350982   24.220924 H          1 MOL1         0.0830
       3    H2      19.518549   20.052082   24.242248 H          1 MOL1         0.0830
       4    C2      18.193246   18.678325   23.143809 C.3        1 MOL1        -0.1689
       5    H3      17.653523   18.108700   23.912565 H          1 MOL1         0.0830
       6    H4      17.582757   19.550146   22.870207 H          1 MOL1         0.0830
       7    C3      18.489243   17.835442   21.889819 C.3        1 MOL1        -0.1765
       8    H5      17.654523   17.868895   21.177801 H          1 MOL1         0.0830
       9    H6      18.640300   16.787770   22.183672 H          1 MOL1         0.0830
      10    C4      19.782774   18.410162   21.274877 C.3        1 MOL1         0.1214
      11    H7      19.545996   18.978922   20.363852 H          1 MOL1         0.0787
      12    C5      20.379121   19.364037   22.330493 C.3        1 MOL1        -0.1765
      13    H8      21.452329   19.192653   22.488207 H          1 MOL1         0.0830
      14    H9      20.253296   20.399668   21.988853 H          1 MOL1         0.0830
      15    O1      20.699107   17.360159   20.989015 O.3        1 MOL1        -0.5512
      16    H10     20.266510   16.782278   20.325354 H          1 MOL1         0.3776
@<TRIPOS>BOND
    1     1     2    1
    2     1     3    1
    3     1     4    1
    4     4     5    1
    5     4     6    1
    6     4     7    1
    7     7     8    1
    8     7     9    1
    9     7    10    1
   10    10    11    1
   11     1    12    1
   12    10    12    1
   13    12    13    1
   14    12    14    1
   15    10    15    1
   16    15    16    1
@<TRIPOS>SUBSTRUCTURE
       1 MOL1            1 RESIDUE      1      MOL     
@<SCITEGIC>MOL_PROPERTY
VConf Rank
SciTegic.value.IntegerValue
343

@<SCITEGIC>MOL_PROPERTY
Conf_Id
SciTegic.value.IntegerValue
59

@<SCITEGIC>MOL_PROPERTY
Delta U+W
SciTegic.value.DoubleValue
0.000

@<SCITEGIC>MOL_PROPERTY
U+W
SciTegic.value.DoubleValue
3.010

@<SCITEGIC>MOL_PROPERTY
Grad RMS
SciTegic.value.DoubleValue
0.000000

@<SCITEGIC>MOL_PROPERTY
U
SciTegic.value.DoubleValue
5.843

@<SCITEGIC>MOL_PROPERTY
W
SciTegic.value.DoubleValue
-2.833

@<SCITEGIC>MOL_PROPERTY
W(PB)
SciTegic.value.DoubleValue
-4.568

@<SCITEGIC>MOL_PROPERTY
W(SA)
SciTegic.value.DoubleValue
1.735

@<SCITEGIC>MOL_PROPERTY
Valence
SciTegic.value.DoubleValue
13.789

@<SCITEGIC>MOL_PROPERTY
Coulomb
SciTegic.value.DoubleValue
-8.574

@<SCITEGIC>MOL_PROPERTY
VdW
SciTegic.value.DoubleValue
0.628

@<SCITEGIC>MOL_PROPERTY
VdW6
SciTegic.value.DoubleValue
-3.284

@<SCITEGIC>MOL_PROPERTY
VdW12
SciTegic.value.DoubleValue
3.912

@<SCITEGIC>MOL_PROPERTY
Bond
SciTegic.value.DoubleValue
0.054

@<SCITEGIC>MOL_PROPERTY
Angle
SciTegic.value.DoubleValue
4.034

@<SCITEGIC>MOL_PROPERTY
Pdih
SciTegic.value.DoubleValue
9.702

@<SCITEGIC>MOL_PROPERTY
Idih
SciTegic.value.DoubleValue
0.000

@<SCITEGIC>MOL_PROPERTY
Tether
SciTegic.value.DoubleValue
0.000

@<TRIPOS>MOLECULE
guest-4_confgen4.mol2 : confsearch ligand conformer 344
          16          16           1
SMALL
USER_CHARGES
 
@<TRIPOS>ATOM
       1    C1      18.355289   17.715910   22.525379 C.3        1 MOL1        -0.1689
       2    H1      18.179893   16.654153   22.745987 H          1 MOL1         0.0830
       3    H2      17.399243   18.249223   22.621165 H          1 MOL1         0.0830
       4    C2      18.928840   17.933008   21.118384 C.3        1 MOL1        -0.1689
       5    H3      19.663042   17.146535   20.894581 H          1 MOL1         0.0830
       6    H4      18.153026   17.910822   20.341041 H          1 MOL1         0.0830
       7    C3      19.641306   19.295725   21.198841 C.3        1 MOL1        -0.1765
       8    H5      18.937901   20.095491   20.932983 H          1 MOL1         0.0830
       9    H6      20.488327   19.350896   20.502040 H          1 MOL1         0.0830
      10    C4      20.078159   19.477610   22.667130 C.3        1 MOL1         0.1214
      11    H7      19.730753   20.455560   23.031056 H          1 MOL1         0.0787
      12    C5      19.399267   18.345098   23.466041 C.3        1 MOL1        -0.1765
      13    H8      20.138337   17.583504   23.749824 H          1 MOL1         0.0830
      14    H9      18.934337   18.722888   24.385802 H          1 MOL1         0.0830
      15    O1      21.492965   19.374099   22.774394 O.3        1 MOL1        -0.5512
      16    H10     21.711930   19.485388   23.723709 H          1 MOL1         0.3776
@<TRIPOS>BOND
    1     1     2    1
    2     1     3    1
    3     1     4    1
    4     4     5    1
    5     4     6    1
    6     4     7    1
    7     7     8    1
    8     7     9    1
    9     7    10    1
   10    10    11    1
   11     1    12    1
   12    10    12    1
   13    12    13    1
   14    12    14    1
   15    10    15    1
   16    15    16    1
@<TRIPOS>SUBSTRUCTURE
       1 MOL1            1 RESIDUE      1      MOL     
@<SCITEGIC>MOL_PROPERTY
VConf Rank
SciTegic.value.IntegerValue
344

@<SCITEGIC>MOL_PROPERTY
Conf_Id
SciTegic.value.IntegerValue
33

@<SCITEGIC>MOL_PROPERTY
Delta U+W
SciTegic.value.DoubleValue
0.015

@<SCITEGIC>MOL_PROPERTY
U+W
SciTegic.value.DoubleValue
3.025

@<SCITEGIC>MOL_PROPERTY
Grad RMS
SciTegic.value.DoubleValue
0.000000

@<SCITEGIC>MOL_PROPERTY
U
SciTegic.value.DoubleValue
5.843

@<SCITEGIC>MOL_PROPERTY
W
SciTegic.value.DoubleValue
-2.819

@<SCITEGIC>MOL_PROPERTY
W(PB)
SciTegic.value.DoubleValue
-4.568

@<SCITEGIC>MOL_PROPERTY
W(SA)
SciTegic.value.DoubleValue
1.750

@<SCITEGIC>MOL_PROPERTY
Valence
SciTegic.value.DoubleValue
13.789

@<SCITEGIC>MOL_PROPERTY
Coulomb
SciTegic.value.DoubleValue
-8.574

@<SCITEGIC>MOL_PROPERTY
VdW
SciTegic.value.DoubleValue
0.628

@<SCITEGIC>MOL_PROPERTY
VdW6
SciTegic.value.DoubleValue
-3.284

@<SCITEGIC>MOL_PROPERTY
VdW12
SciTegic.value.DoubleValue
3.913

@<SCITEGIC>MOL_PROPERTY
Bond
SciTegic.value.DoubleValue
0.054

@<SCITEGIC>MOL_PROPERTY
Angle
SciTegic.value.DoubleValue
4.033

@<SCITEGIC>MOL_PROPERTY
Pdih
SciTegic.value.DoubleValue
9.702

@<SCITEGIC>MOL_PROPERTY
Idih
SciTegic.value.DoubleValue
0.000

@<SCITEGIC>MOL_PROPERTY
Tether
SciTegic.value.DoubleValue
0.000

@<TRIPOS>MOLECULE
guest-4_confgen4.mol2 : confsearch ligand conformer 345
          16          16           1
SMALL
USER_CHARGES
 
@<TRIPOS>ATOM
       1    C1      20.712308   18.621963   22.329267 C.3        1 MOL1        -0.1689
       2    H1      21.118449   18.224749   23.269744 H          1 MOL1         0.0830
       3    H2      21.561717   18.907106   21.693503 H          1 MOL1         0.0830
       4    C2      19.792310   19.827328   22.622044 C.3        1 MOL1        -0.1689
       5    H3      19.754035   20.014135   23.704109 H          1 MOL1         0.0830
       6    H4      20.159927   20.742814   22.138575 H          1 MOL1         0.0830
       7    C3      18.391715   19.446632   22.096838 C.3        1 MOL1        -0.1765
       8    H5      18.244239   19.879193   21.098459 H          1 MOL1         0.0830
       9    H6      17.588177   19.820858   22.745134 H          1 MOL1         0.0830
      10    C4      18.381767   17.916273   21.983277 C.3        1 MOL1         0.1214
      11    H7      17.683997   17.572747   21.206045 H          1 MOL1         0.0787
      12    C5      19.833377   17.558646   21.637028 C.3        1 MOL1        -0.1765
      13    H8      20.095060   16.537551   21.945073 H          1 MOL1         0.0830
      14    H9      19.966901   17.623990   20.549129 H          1 MOL1         0.0830
      15    O1      18.050285   17.355780   23.245329 O.3        1 MOL1        -0.5512
      16    H10     18.717489   17.713999   23.866361 H          1 MOL1         0.3776
@<TRIPOS>BOND
    1     1     2    1
    2     1     3    1
    3     1     4    1
    4     4     5    1
    5     4     6    1
    6     4     7    1
    7     7     8    1
    8     7     9    1
    9     7    10    1
   10    10    11    1
   11     1    12    1
   12    10    12    1
   13    12    13    1
   14    12    14    1
   15    10    15    1
   16    15    16    1
@<TRIPOS>SUBSTRUCTURE
       1 MOL1            1 RESIDUE      1      MOL     
@<SCITEGIC>MOL_PROPERTY
VConf Rank
SciTegic.value.IntegerValue
345

@<SCITEGIC>MOL_PROPERTY
Conf_Id
SciTegic.value.IntegerValue
20

@<SCITEGIC>MOL_PROPERTY
Delta U+W
SciTegic.value.DoubleValue
-0.483

@<SCITEGIC>MOL_PROPERTY
U+W
SciTegic.value.DoubleValue
2.527

@<SCITEGIC>MOL_PROPERTY
Grad RMS
SciTegic.value.DoubleValue
0.000000

@<SCITEGIC>MOL_PROPERTY
U
SciTegic.value.DoubleValue
4.508

@<SCITEGIC>MOL_PROPERTY
W
SciTegic.value.DoubleValue
-1.981

@<SCITEGIC>MOL_PROPERTY
W(PB)
SciTegic.value.DoubleValue
-3.712

@<SCITEGIC>MOL_PROPERTY
W(SA)
SciTegic.value.DoubleValue
1.732

@<SCITEGIC>MOL_PROPERTY
Valence
SciTegic.value.DoubleValue
14.705

@<SCITEGIC>MOL_PROPERTY
Coulomb
SciTegic.value.DoubleValue
-10.687

@<SCITEGIC>MOL_PROPERTY
VdW
SciTegic.value.DoubleValue
0.490

@<SCITEGIC>MOL_PROPERTY
VdW6
SciTegic.value.DoubleValue
-3.745

@<SCITEGIC>MOL_PROPERTY
VdW12
SciTegic.value.DoubleValue
4.235

@<SCITEGIC>MOL_PROPERTY
Bond
SciTegic.value.DoubleValue
0.068

@<SCITEGIC>MOL_PROPERTY
Angle
SciTegic.value.DoubleValue
3.901

@<SCITEGIC>MOL_PROPERTY
Pdih
SciTegic.value.DoubleValue
10.737

@<SCITEGIC>MOL_PROPERTY
Idih
SciTegic.value.DoubleValue
0.000

@<SCITEGIC>MOL_PROPERTY
Tether
SciTegic.value.DoubleValue
0.000

@<TRIPOS>MOLECULE
guest-4_confgen4.mol2 : confsearch ligand conformer 346
          16          16           1
SMALL
USER_CHARGES
 
@<TRIPOS>ATOM
       1    C1      20.240610   18.238527   23.425593 C.3        1 MOL1        -0.1689
       2    H1      20.191047   17.145340   23.526404 H          1 MOL1         0.0830
       3    H2      20.966713   18.618964   24.156816 H          1 MOL1         0.0830
       4    C2      18.841224   18.837225   23.623091 C.3        1 MOL1        -0.1689
       5    H3      18.281190   18.335529   24.423980 H          1 MOL1         0.0830
       6    H4      18.927651   19.902326   23.879443 H          1 MOL1         0.0830
       7    C3      18.162268   18.685438   22.249579 C.3        1 MOL1        -0.1765
       8    H5      17.419143   19.475281   22.079991 H          1 MOL1         0.0830
       9    H6      17.642822   17.718451   22.206018 H          1 MOL1         0.0830
      10    C4      19.291344   18.733744   21.198611 C.3        1 MOL1         0.1214
      11    H7      19.272290   19.697855   20.669796 H          1 MOL1         0.0787
      12    C5      20.616366   18.606367   21.978308 C.3        1 MOL1        -0.1765
      13    H8      21.291365   17.862507   21.534382 H          1 MOL1         0.0830
      14    H9      21.133098   19.574835   21.966592 H          1 MOL1         0.0830
      15    O1      19.155571   17.654070   20.282228 O.3        1 MOL1        -0.5512
      16    H10     18.296864   17.779076   19.825578 H          1 MOL1         0.3776
@<TRIPOS>BOND
    1     1     2    1
    2     1     3    1
    3     1     4    1
    4     4     5    1
    5     4     6    1
    6     4     7    1
    7     7     8    1
    8     7     9    1
    9     7    10    1
   10    10    11    1
   11     1    12    1
   12    10    12    1
   13    12    13    1
   14    12    14    1
   15    10    15    1
   16    15    16    1
@<TRIPOS>SUBSTRUCTURE
       1 MOL1            1 RESIDUE      1      MOL     
@<SCITEGIC>MOL_PROPERTY
VConf Rank
SciTegic.value.IntegerValue
346

@<SCITEGIC>MOL_PROPERTY
Conf_Id
SciTegic.value.IntegerValue
59

@<SCITEGIC>MOL_PROPERTY
Delta U+W
SciTegic.value.DoubleValue
0.000

@<SCITEGIC>MOL_PROPERTY
U+W
SciTegic.value.DoubleValue
3.010

@<SCITEGIC>MOL_PROPERTY
Grad RMS
SciTegic.value.DoubleValue
0.000000

@<SCITEGIC>MOL_PROPERTY
U
SciTegic.value.DoubleValue
5.843

@<SCITEGIC>MOL_PROPERTY
W
SciTegic.value.DoubleValue
-2.833

@<SCITEGIC>MOL_PROPERTY
W(PB)
SciTegic.value.DoubleValue
-4.568

@<SCITEGIC>MOL_PROPERTY
W(SA)
SciTegic.value.DoubleValue
1.735

@<SCITEGIC>MOL_PROPERTY
Valence
SciTegic.value.DoubleValue
13.789

@<SCITEGIC>MOL_PROPERTY
Coulomb
SciTegic.value.DoubleValue
-8.574

@<SCITEGIC>MOL_PROPERTY
VdW
SciTegic.value.DoubleValue
0.628

@<SCITEGIC>MOL_PROPERTY
VdW6
SciTegic.value.DoubleValue
-3.284

@<SCITEGIC>MOL_PROPERTY
VdW12
SciTegic.value.DoubleValue
3.912

@<SCITEGIC>MOL_PROPERTY
Bond
SciTegic.value.DoubleValue
0.054

@<SCITEGIC>MOL_PROPERTY
Angle
SciTegic.value.DoubleValue
4.034

@<SCITEGIC>MOL_PROPERTY
Pdih
SciTegic.value.DoubleValue
9.702

@<SCITEGIC>MOL_PROPERTY
Idih
SciTegic.value.DoubleValue
0.000

@<SCITEGIC>MOL_PROPERTY
Tether
SciTegic.value.DoubleValue
0.000

@<TRIPOS>MOLECULE
guest-4_confgen4.mol2 : confsearch ligand conformer 347
          16          16           1
SMALL
USER_CHARGES
 
@<TRIPOS>ATOM
       1    C1      18.060514   18.260048   22.305462 C.3        1 MOL1        -0.1689
       2    H1      17.179860   18.320972   21.651630 H          1 MOL1         0.0830
       3    H2      17.797174   17.649720   23.180546 H          1 MOL1         0.0830
       4    C2      18.542413   19.642471   22.766337 C.3        1 MOL1        -0.1689
       5    H3      18.463501   20.356200   21.934446 H          1 MOL1         0.0830
       6    H4      17.956319   20.031277   23.610118 H          1 MOL1         0.0830
       7    C3      20.024627   19.433153   23.127313 C.3        1 MOL1        -0.1765
       8    H5      20.110296   19.154777   24.185733 H          1 MOL1         0.0830
       9    H6      20.611210   20.348895   22.974486 H          1 MOL1         0.0830
      10    C4      20.528228   18.263129   22.257125 C.3        1 MOL1         0.1214
      11    H7      21.018262   17.517140   22.899687 H          1 MOL1         0.0787
      12    C5      19.279365   17.647872   21.591142 C.3        1 MOL1        -0.1765
      13    H8      19.246753   17.912706   20.525505 H          1 MOL1         0.0830
      14    H9      19.280148   16.552806   21.666486 H          1 MOL1         0.0830
      15    O1      21.428224   18.741796   21.264763 O.3        1 MOL1        -0.5512
      16    H10     21.705723   17.962951   20.737578 H          1 MOL1         0.3776
@<TRIPOS>BOND
    1     1     2    1
    2     1     3    1
    3     1     4    1
    4     4     5    1
    5     4     6    1
    6     4     7    1
    7     7     8    1
    8     7     9    1
    9     7    10    1
   10    10    11    1
   11     1    12    1
   12    10    12    1
   13    12    13    1
   14    12    14    1
   15    10    15    1
   16    15    16    1
@<TRIPOS>SUBSTRUCTURE
       1 MOL1            1 RESIDUE      1      MOL     
@<SCITEGIC>MOL_PROPERTY
VConf Rank
SciTegic.value.IntegerValue
347

@<SCITEGIC>MOL_PROPERTY
Conf_Id
SciTegic.value.IntegerValue
33

@<SCITEGIC>MOL_PROPERTY
Delta U+W
SciTegic.value.DoubleValue
0.015

@<SCITEGIC>MOL_PROPERTY
U+W
SciTegic.value.DoubleValue
3.025

@<SCITEGIC>MOL_PROPERTY
Grad RMS
SciTegic.value.DoubleValue
0.000000

@<SCITEGIC>MOL_PROPERTY
U
SciTegic.value.DoubleValue
5.843

@<SCITEGIC>MOL_PROPERTY
W
SciTegic.value.DoubleValue
-2.819

@<SCITEGIC>MOL_PROPERTY
W(PB)
SciTegic.value.DoubleValue
-4.568

@<SCITEGIC>MOL_PROPERTY
W(SA)
SciTegic.value.DoubleValue
1.750

@<SCITEGIC>MOL_PROPERTY
Valence
SciTegic.value.DoubleValue
13.789

@<SCITEGIC>MOL_PROPERTY
Coulomb
SciTegic.value.DoubleValue
-8.574

@<SCITEGIC>MOL_PROPERTY
VdW
SciTegic.value.DoubleValue
0.628

@<SCITEGIC>MOL_PROPERTY
VdW6
SciTegic.value.DoubleValue
-3.284

@<SCITEGIC>MOL_PROPERTY
VdW12
SciTegic.value.DoubleValue
3.913

@<SCITEGIC>MOL_PROPERTY
Bond
SciTegic.value.DoubleValue
0.054

@<SCITEGIC>MOL_PROPERTY
Angle
SciTegic.value.DoubleValue
4.033

@<SCITEGIC>MOL_PROPERTY
Pdih
SciTegic.value.DoubleValue
9.702

@<SCITEGIC>MOL_PROPERTY
Idih
SciTegic.value.DoubleValue
0.000

@<SCITEGIC>MOL_PROPERTY
Tether
SciTegic.value.DoubleValue
0.000

@<TRIPOS>MOLECULE
guest-4_confgen4.mol2 : confsearch ligand conformer 348
          16          16           1
SMALL
USER_CHARGES
 
@<TRIPOS>ATOM
       1    C1      19.320298   18.597962   20.923412 C.3        1 MOL1        -0.1689
       2    H1      18.385957   18.188631   20.515143 H          1 MOL1         0.0830
       3    H2      19.948621   18.903900   20.075704 H          1 MOL1         0.0830
       4    C2      20.022425   17.534713   21.796076 C.3        1 MOL1        -0.1689
       5    H3      19.428440   16.610466   21.809293 H          1 MOL1         0.0830
       6    H4      21.018482   17.285201   21.405418 H          1 MOL1         0.0830
       7    C3      20.116804   18.128221   23.217792 C.3        1 MOL1        -0.1765
       8    H5      21.112768   18.565605   23.367361 H          1 MOL1         0.0830
       9    H6      19.964849   17.369110   23.996679 H          1 MOL1         0.0830
      10    C4      19.066997   19.245677   23.282528 C.3        1 MOL1         0.1214
      11    H7      19.349535   20.024914   24.004986 H          1 MOL1         0.0787
      12    C5      19.017871   19.794535   21.850293 C.3        1 MOL1        -0.1765
      13    H8      18.054039   20.267221   21.618777 H          1 MOL1         0.0830
      14    H9      19.800140   20.556104   21.733289 H          1 MOL1         0.0830
      15    O1      17.805075   18.683387   23.611452 O.3        1 MOL1        -0.5512
      16    H10     17.639453   18.008116   22.921712 H          1 MOL1         0.3776
@<TRIPOS>BOND
    1     1     2    1
    2     1     3    1
    3     1     4    1
    4     4     5    1
    5     4     6    1
    6     4     7    1
    7     7     8    1
    8     7     9    1
    9     7    10    1
   10    10    11    1
   11     1    12    1
   12    10    12    1
   13    12    13    1
   14    12    14    1
   15    10    15    1
   16    15    16    1
@<TRIPOS>SUBSTRUCTURE
       1 MOL1            1 RESIDUE      1      MOL     
@<SCITEGIC>MOL_PROPERTY
VConf Rank
SciTegic.value.IntegerValue
348

@<SCITEGIC>MOL_PROPERTY
Conf_Id
SciTegic.value.IntegerValue
20

@<SCITEGIC>MOL_PROPERTY
Delta U+W
SciTegic.value.DoubleValue
-0.483

@<SCITEGIC>MOL_PROPERTY
U+W
SciTegic.value.DoubleValue
2.527

@<SCITEGIC>MOL_PROPERTY
Grad RMS
SciTegic.value.DoubleValue
0.000000

@<SCITEGIC>MOL_PROPERTY
U
SciTegic.value.DoubleValue
4.508

@<SCITEGIC>MOL_PROPERTY
W
SciTegic.value.DoubleValue
-1.981

@<SCITEGIC>MOL_PROPERTY
W(PB)
SciTegic.value.DoubleValue
-3.712

@<SCITEGIC>MOL_PROPERTY
W(SA)
SciTegic.value.DoubleValue
1.732

@<SCITEGIC>MOL_PROPERTY
Valence
SciTegic.value.DoubleValue
14.705

@<SCITEGIC>MOL_PROPERTY
Coulomb
SciTegic.value.DoubleValue
-10.687

@<SCITEGIC>MOL_PROPERTY
VdW
SciTegic.value.DoubleValue
0.490

@<SCITEGIC>MOL_PROPERTY
VdW6
SciTegic.value.DoubleValue
-3.745

@<SCITEGIC>MOL_PROPERTY
VdW12
SciTegic.value.DoubleValue
4.235

@<SCITEGIC>MOL_PROPERTY
Bond
SciTegic.value.DoubleValue
0.068

@<SCITEGIC>MOL_PROPERTY
Angle
SciTegic.value.DoubleValue
3.901

@<SCITEGIC>MOL_PROPERTY
Pdih
SciTegic.value.DoubleValue
10.737

@<SCITEGIC>MOL_PROPERTY
Idih
SciTegic.value.DoubleValue
0.000

@<SCITEGIC>MOL_PROPERTY
Tether
SciTegic.value.DoubleValue
0.000

@<TRIPOS>MOLECULE
guest-4_confgen4.mol2 : confsearch ligand conformer 349
          16          16           1
SMALL
USER_CHARGES
 
@<TRIPOS>ATOM
       1    C1      18.106468   17.950453   22.741646 C.3        1 MOL1        -0.1689
       2    H1      17.929094   18.348141   23.750635 H          1 MOL1         0.0830
       3    H2      17.250084   17.320829   22.464471 H          1 MOL1         0.0830
       4    C2      19.433057   17.178852   22.718789 C.3        1 MOL1        -0.1689
       5    H3      19.587583   16.586105   23.630673 H          1 MOL1         0.0830
       6    H4      19.448552   16.495687   21.858167 H          1 MOL1         0.0830
       7    C3      20.506557   18.267790   22.538875 C.3        1 MOL1        -0.1765
       8    H5      21.386883   17.879776   22.010372 H          1 MOL1         0.0830
       9    H6      20.834293   18.621395   23.525960 H          1 MOL1         0.0830
      10    C4      19.834884   19.415440   21.755654 C.3        1 MOL1         0.1214
      11    H7      20.200754   19.427918   20.718590 H          1 MOL1         0.0787
      12    C5      18.321574   19.115910   21.758504 C.3        1 MOL1        -0.1765
      13    H8      17.723354   19.994191   22.035592 H          1 MOL1         0.0830
      14    H9      18.015636   18.808495   20.750050 H          1 MOL1         0.0830
      15    O1      20.089750   20.660753   22.394504 O.3        1 MOL1        -0.5512
      16    H10     21.061042   20.793800   22.373928 H          1 MOL1         0.3776
@<TRIPOS>BOND
    1     1     2    1
    2     1     3    1
    3     1     4    1
    4     4     5    1
    5     4     6    1
    6     4     7    1
    7     7     8    1
    8     7     9    1
    9     7    10    1
   10    10    11    1
   11     1    12    1
   12    10    12    1
   13    12    13    1
   14    12    14    1
   15    10    15    1
   16    15    16    1
@<TRIPOS>SUBSTRUCTURE
       1 MOL1            1 RESIDUE      1      MOL     
@<SCITEGIC>MOL_PROPERTY
VConf Rank
SciTegic.value.IntegerValue
349

@<SCITEGIC>MOL_PROPERTY
Conf_Id
SciTegic.value.IntegerValue
59

@<SCITEGIC>MOL_PROPERTY
Delta U+W
SciTegic.value.DoubleValue
0.000

@<SCITEGIC>MOL_PROPERTY
U+W
SciTegic.value.DoubleValue
3.010

@<SCITEGIC>MOL_PROPERTY
Grad RMS
SciTegic.value.DoubleValue
0.000000

@<SCITEGIC>MOL_PROPERTY
U
SciTegic.value.DoubleValue
5.843

@<SCITEGIC>MOL_PROPERTY
W
SciTegic.value.DoubleValue
-2.833

@<SCITEGIC>MOL_PROPERTY
W(PB)
SciTegic.value.DoubleValue
-4.568

@<SCITEGIC>MOL_PROPERTY
W(SA)
SciTegic.value.DoubleValue
1.735

@<SCITEGIC>MOL_PROPERTY
Valence
SciTegic.value.DoubleValue
13.789

@<SCITEGIC>MOL_PROPERTY
Coulomb
SciTegic.value.DoubleValue
-8.574

@<SCITEGIC>MOL_PROPERTY
VdW
SciTegic.value.DoubleValue
0.628

@<SCITEGIC>MOL_PROPERTY
VdW6
SciTegic.value.DoubleValue
-3.284

@<SCITEGIC>MOL_PROPERTY
VdW12
SciTegic.value.DoubleValue
3.912

@<SCITEGIC>MOL_PROPERTY
Bond
SciTegic.value.DoubleValue
0.054

@<SCITEGIC>MOL_PROPERTY
Angle
SciTegic.value.DoubleValue
4.034

@<SCITEGIC>MOL_PROPERTY
Pdih
SciTegic.value.DoubleValue
9.702

@<SCITEGIC>MOL_PROPERTY
Idih
SciTegic.value.DoubleValue
0.000

@<SCITEGIC>MOL_PROPERTY
Tether
SciTegic.value.DoubleValue
0.000

@<TRIPOS>MOLECULE
guest-4_confgen4.mol2 : confsearch ligand conformer 350
          16          16           1
SMALL
USER_CHARGES
 
@<TRIPOS>ATOM
       1    C1      20.458292   18.873137   23.282319 C.3        1 MOL1        -0.1689
       2    H1      21.520944   18.663103   23.465112 H          1 MOL1         0.0830
       3    H2      20.112470   19.584452   24.045248 H          1 MOL1         0.0830
       4    C2      19.595618   17.604591   23.330388 C.3        1 MOL1        -0.1689
       5    H3      20.132728   16.775497   22.848937 H          1 MOL1         0.0830
       6    H4      19.348359   17.304048   24.357607 H          1 MOL1         0.0830
       7    C3      18.345045   17.957631   22.504248 C.3        1 MOL1        -0.1765
       8    H5      17.579196   18.389637   23.161462 H          1 MOL1         0.0830
       9    H6      17.911983   17.068768   22.026336 H          1 MOL1         0.0830
      10    C4      18.783062   19.020679   21.475720 C.3        1 MOL1         0.1214
      11    H7      18.099705   19.880755   21.528731 H          1 MOL1         0.0787
      12    C5      20.208807   19.453218   21.878084 C.3        1 MOL1        -0.1765
      13    H8      20.945003   19.036939   21.177007 H          1 MOL1         0.0830
      14    H9      20.316228   20.545578   21.870499 H          1 MOL1         0.0830
      15    O1      18.790198   18.463235   20.166865 O.3        1 MOL1        -0.5512
      16    H10     19.084977   19.174643   19.559795 H          1 MOL1         0.3776
@<TRIPOS>BOND
    1     1     2    1
    2     1     3    1
    3     1     4    1
    4     4     5    1
    5     4     6    1
    6     4     7    1
    7     7     8    1
    8     7     9    1
    9     7    10    1
   10    10    11    1
   11     1    12    1
   12    10    12    1
   13    12    13    1
   14    12    14    1
   15    10    15    1
   16    15    16    1
@<TRIPOS>SUBSTRUCTURE
       1 MOL1            1 RESIDUE      1      MOL     
@<SCITEGIC>MOL_PROPERTY
VConf Rank
SciTegic.value.IntegerValue
350

@<SCITEGIC>MOL_PROPERTY
Conf_Id
SciTegic.value.IntegerValue
33

@<SCITEGIC>MOL_PROPERTY
Delta U+W
SciTegic.value.DoubleValue
0.015

@<SCITEGIC>MOL_PROPERTY
U+W
SciTegic.value.DoubleValue
3.025

@<SCITEGIC>MOL_PROPERTY
Grad RMS
SciTegic.value.DoubleValue
0.000000

@<SCITEGIC>MOL_PROPERTY
U
SciTegic.value.DoubleValue
5.843

@<SCITEGIC>MOL_PROPERTY
W
SciTegic.value.DoubleValue
-2.819

@<SCITEGIC>MOL_PROPERTY
W(PB)
SciTegic.value.DoubleValue
-4.568

@<SCITEGIC>MOL_PROPERTY
W(SA)
SciTegic.value.DoubleValue
1.750

@<SCITEGIC>MOL_PROPERTY
Valence
SciTegic.value.DoubleValue
13.789

@<SCITEGIC>MOL_PROPERTY
Coulomb
SciTegic.value.DoubleValue
-8.574

@<SCITEGIC>MOL_PROPERTY
VdW
SciTegic.value.DoubleValue
0.628

@<SCITEGIC>MOL_PROPERTY
VdW6
SciTegic.value.DoubleValue
-3.284

@<SCITEGIC>MOL_PROPERTY
VdW12
SciTegic.value.DoubleValue
3.913

@<SCITEGIC>MOL_PROPERTY
Bond
SciTegic.value.DoubleValue
0.054

@<SCITEGIC>MOL_PROPERTY
Angle
SciTegic.value.DoubleValue
4.033

@<SCITEGIC>MOL_PROPERTY
Pdih
SciTegic.value.DoubleValue
9.702

@<SCITEGIC>MOL_PROPERTY
Idih
SciTegic.value.DoubleValue
0.000

@<SCITEGIC>MOL_PROPERTY
Tether
SciTegic.value.DoubleValue
0.000

@<TRIPOS>MOLECULE
guest-4_confgen4.mol2 : confsearch ligand conformer 351
          16          16           1
SMALL
USER_CHARGES
 
@<TRIPOS>ATOM
       1    C1      18.727743   19.706723   22.657529 C.3        1 MOL1        -0.1689
       2    H1      19.282949   20.325259   23.376129 H          1 MOL1         0.0830
       3    H2      17.768530   20.204749   22.460353 H          1 MOL1         0.0830
       4    C2      18.523390   18.288332   23.233226 C.3        1 MOL1        -0.1689
       5    H3      18.978762   18.220719   24.230870 H          1 MOL1         0.0830
       6    H4      17.457235   18.044001   23.336250 H          1 MOL1         0.0830
       7    C3      19.223873   17.316033   22.260398 C.3        1 MOL1        -0.1765
       8    H5      18.482533   16.886864   21.573485 H          1 MOL1         0.0830
       9    H6      19.714667   16.484852   22.784101 H          1 MOL1         0.0830
      10    C4      20.217868   18.163341   21.454771 C.3        1 MOL1         0.1214
      11    H7      20.403580   17.732708   20.460261 H          1 MOL1         0.0787
      12    C5      19.542982   19.538143   21.357789 C.3        1 MOL1        -0.1765
      13    H8      20.269518   20.348990   21.213993 H          1 MOL1         0.0830
      14    H9      18.863364   19.541663   20.495392 H          1 MOL1         0.0830
      15    O1      21.428176   18.287100   22.187331 O.3        1 MOL1        -0.5512
      16    H10     21.166583   18.674288   23.048038 H          1 MOL1         0.3776
@<TRIPOS>BOND
    1     1     2    1
    2     1     3    1
    3     1     4    1
    4     4     5    1
    5     4     6    1
    6     4     7    1
    7     7     8    1
    8     7     9    1
    9     7    10    1
   10    10    11    1
   11     1    12    1
   12    10    12    1
   13    12    13    1
   14    12    14    1
   15    10    15    1
   16    15    16    1
@<TRIPOS>SUBSTRUCTURE
       1 MOL1            1 RESIDUE      1      MOL     
@<SCITEGIC>MOL_PROPERTY
VConf Rank
SciTegic.value.IntegerValue
351

@<SCITEGIC>MOL_PROPERTY
Conf_Id
SciTegic.value.IntegerValue
20

@<SCITEGIC>MOL_PROPERTY
Delta U+W
SciTegic.value.DoubleValue
-0.483

@<SCITEGIC>MOL_PROPERTY
U+W
SciTegic.value.DoubleValue
2.527

@<SCITEGIC>MOL_PROPERTY
Grad RMS
SciTegic.value.DoubleValue
0.000000

@<SCITEGIC>MOL_PROPERTY
U
SciTegic.value.DoubleValue
4.508

@<SCITEGIC>MOL_PROPERTY
W
SciTegic.value.DoubleValue
-1.981

@<SCITEGIC>MOL_PROPERTY
W(PB)
SciTegic.value.DoubleValue
-3.712

@<SCITEGIC>MOL_PROPERTY
W(SA)
SciTegic.value.DoubleValue
1.732

@<SCITEGIC>MOL_PROPERTY
Valence
SciTegic.value.DoubleValue
14.705

@<SCITEGIC>MOL_PROPERTY
Coulomb
SciTegic.value.DoubleValue
-10.687

@<SCITEGIC>MOL_PROPERTY
VdW
SciTegic.value.DoubleValue
0.490

@<SCITEGIC>MOL_PROPERTY
VdW6
SciTegic.value.DoubleValue
-3.745

@<SCITEGIC>MOL_PROPERTY
VdW12
SciTegic.value.DoubleValue
4.235

@<SCITEGIC>MOL_PROPERTY
Bond
SciTegic.value.DoubleValue
0.068

@<SCITEGIC>MOL_PROPERTY
Angle
SciTegic.value.DoubleValue
3.901

@<SCITEGIC>MOL_PROPERTY
Pdih
SciTegic.value.DoubleValue
10.737

@<SCITEGIC>MOL_PROPERTY
Idih
SciTegic.value.DoubleValue
0.000

@<SCITEGIC>MOL_PROPERTY
Tether
SciTegic.value.DoubleValue
0.000

@<TRIPOS>MOLECULE
guest-4_confgen4.mol2 : confsearch ligand conformer 352
          16          16           1
SMALL
USER_CHARGES
 
@<TRIPOS>ATOM
       1    C1      19.524662   19.967923   22.019083 C.3        1 MOL1        -0.1689
       2    H1      20.299375   20.314652   22.717134 H          1 MOL1         0.0830
       3    H2      19.248963   20.807334   21.366378 H          1 MOL1         0.0830
       4    C2      18.327436   19.422005   22.809242 C.3        1 MOL1        -0.1689
       5    H3      18.103363   20.026095   23.698975 H          1 MOL1         0.0830
       6    H4      17.435218   19.410987   22.167797 H          1 MOL1         0.0830
       7    C3      18.729936   17.979492   23.166602 C.3        1 MOL1        -0.1765
       8    H5      17.850833   17.328449   23.256966 H          1 MOL1         0.0830
       9    H6      19.252443   17.976958   24.132917 H          1 MOL1         0.0830
      10    C4      19.676782   17.501761   22.045471 C.3        1 MOL1         0.1214
      11    H7      19.156846   16.784259   21.394029 H          1 MOL1         0.0787
      12    C5      20.049028   18.755648   21.227527 C.3        1 MOL1        -0.1765
      13    H8      21.129485   18.828658   21.045034 H          1 MOL1         0.0830
      14    H9      19.548304   18.708167   20.251769 H          1 MOL1         0.0830
      15    O1      20.846056   16.916921   22.606406 O.3        1 MOL1        -0.5512
      16    H10     20.550837   16.136225   23.121082 H          1 MOL1         0.3776
@<TRIPOS>BOND
    1     1     2    1
    2     1     3    1
    3     1     4    1
    4     4     5    1
    5     4     6    1
    6     4     7    1
    7     7     8    1
    8     7     9    1
    9     7    10    1
   10    10    11    1
   11     1    12    1
   12    10    12    1
   13    12    13    1
   14    12    14    1
   15    10    15    1
   16    15    16    1
@<TRIPOS>SUBSTRUCTURE
       1 MOL1            1 RESIDUE      1      MOL     
@<SCITEGIC>MOL_PROPERTY
VConf Rank
SciTegic.value.IntegerValue
352

@<SCITEGIC>MOL_PROPERTY
Conf_Id
SciTegic.value.IntegerValue
59

@<SCITEGIC>MOL_PROPERTY
Delta U+W
SciTegic.value.DoubleValue
0.000

@<SCITEGIC>MOL_PROPERTY
U+W
SciTegic.value.DoubleValue
3.010

@<SCITEGIC>MOL_PROPERTY
Grad RMS
SciTegic.value.DoubleValue
0.000000

@<SCITEGIC>MOL_PROPERTY
U
SciTegic.value.DoubleValue
5.843

@<SCITEGIC>MOL_PROPERTY
W
SciTegic.value.DoubleValue
-2.833

@<SCITEGIC>MOL_PROPERTY
W(PB)
SciTegic.value.DoubleValue
-4.568

@<SCITEGIC>MOL_PROPERTY
W(SA)
SciTegic.value.DoubleValue
1.735

@<SCITEGIC>MOL_PROPERTY
Valence
SciTegic.value.DoubleValue
13.789

@<SCITEGIC>MOL_PROPERTY
Coulomb
SciTegic.value.DoubleValue
-8.574

@<SCITEGIC>MOL_PROPERTY
VdW
SciTegic.value.DoubleValue
0.628

@<SCITEGIC>MOL_PROPERTY
VdW6
SciTegic.value.DoubleValue
-3.284

@<SCITEGIC>MOL_PROPERTY
VdW12
SciTegic.value.DoubleValue
3.912

@<SCITEGIC>MOL_PROPERTY
Bond
SciTegic.value.DoubleValue
0.054

@<SCITEGIC>MOL_PROPERTY
Angle
SciTegic.value.DoubleValue
4.034

@<SCITEGIC>MOL_PROPERTY
Pdih
SciTegic.value.DoubleValue
9.702

@<SCITEGIC>MOL_PROPERTY
Idih
SciTegic.value.DoubleValue
0.000

@<SCITEGIC>MOL_PROPERTY
Tether
SciTegic.value.DoubleValue
0.000

@<TRIPOS>MOLECULE
guest-4_confgen4.mol2 : confsearch ligand conformer 353
          16          16           1
SMALL
USER_CHARGES
 
@<TRIPOS>ATOM
       1    C1      20.652350   18.138149   22.920920 C.3        1 MOL1        -0.1689
       2    H1      21.001951   17.813595   23.910467 H          1 MOL1         0.0830
       3    H2      21.445931   17.928278   22.190300 H          1 MOL1         0.0830
       4    C2      20.300959   19.631829   22.886692 C.3        1 MOL1        -0.1689
       5    H3      19.795584   19.912782   23.821219 H          1 MOL1         0.0830
       6    H4      21.188157   20.268981   22.770243 H          1 MOL1         0.0830
       7    C3      19.319591   19.769806   21.708153 C.3        1 MOL1        -0.1765
       8    H5      19.878052   19.976626   20.785965 H          1 MOL1         0.0830
       9    H6      18.614373   20.597097   21.863965 H          1 MOL1         0.0830
      10    C4      18.605128   18.409646   21.569206 C.3        1 MOL1         0.1214
      11    H7      18.674115   18.067909   20.526145 H          1 MOL1         0.0787
      12    C5      19.353122   17.429038   22.496917 C.3        1 MOL1        -0.1765
      13    H8      18.749312   17.213215   23.388889 H          1 MOL1         0.0830
      14    H9      19.562154   16.476661   21.992803 H          1 MOL1         0.0830
      15    O1      17.245676   18.526242   21.971939 O.3        1 MOL1        -0.5512
      16    H10     16.846162   17.636057   21.874536 H          1 MOL1         0.3776
@<TRIPOS>BOND
    1     1     2    1
    2     1     3    1
    3     1     4    1
    4     4     5    1
    5     4     6    1
    6     4     7    1
    7     7     8    1
    8     7     9    1
    9     7    10    1
   10    10    11    1
   11     1    12    1
   12    10    12    1
   13    12    13    1
   14    12    14    1
   15    10    15    1
   16    15    16    1
@<TRIPOS>SUBSTRUCTURE
       1 MOL1            1 RESIDUE      1      MOL     
@<SCITEGIC>MOL_PROPERTY
VConf Rank
SciTegic.value.IntegerValue
353

@<SCITEGIC>MOL_PROPERTY
Conf_Id
SciTegic.value.IntegerValue
33

@<SCITEGIC>MOL_PROPERTY
Delta U+W
SciTegic.value.DoubleValue
0.015

@<SCITEGIC>MOL_PROPERTY
U+W
SciTegic.value.DoubleValue
3.025

@<SCITEGIC>MOL_PROPERTY
Grad RMS
SciTegic.value.DoubleValue
0.000000

@<SCITEGIC>MOL_PROPERTY
U
SciTegic.value.DoubleValue
5.843

@<SCITEGIC>MOL_PROPERTY
W
SciTegic.value.DoubleValue
-2.819

@<SCITEGIC>MOL_PROPERTY
W(PB)
SciTegic.value.DoubleValue
-4.568

@<SCITEGIC>MOL_PROPERTY
W(SA)
SciTegic.value.DoubleValue
1.750

@<SCITEGIC>MOL_PROPERTY
Valence
SciTegic.value.DoubleValue
13.789

@<SCITEGIC>MOL_PROPERTY
Coulomb
SciTegic.value.DoubleValue
-8.574

@<SCITEGIC>MOL_PROPERTY
VdW
SciTegic.value.DoubleValue
0.628

@<SCITEGIC>MOL_PROPERTY
VdW6
SciTegic.value.DoubleValue
-3.284

@<SCITEGIC>MOL_PROPERTY
VdW12
SciTegic.value.DoubleValue
3.913

@<SCITEGIC>MOL_PROPERTY
Bond
SciTegic.value.DoubleValue
0.054

@<SCITEGIC>MOL_PROPERTY
Angle
SciTegic.value.DoubleValue
4.033

@<SCITEGIC>MOL_PROPERTY
Pdih
SciTegic.value.DoubleValue
9.702

@<SCITEGIC>MOL_PROPERTY
Idih
SciTegic.value.DoubleValue
0.000

@<SCITEGIC>MOL_PROPERTY
Tether
SciTegic.value.DoubleValue
0.000

@<TRIPOS>MOLECULE
guest-4_confgen4.mol2 : confsearch ligand conformer 354
          16          16           1
SMALL
USER_CHARGES
 
@<TRIPOS>ATOM
       1    C1      18.997004   19.487114   21.325007 C.3        1 MOL1        -0.1689
       2    H1      19.795990   20.159242   20.982820 H          1 MOL1         0.0830
       3    H2      18.087602   19.736257   20.761169 H          1 MOL1         0.0830
       4    C2      18.785832   19.653770   22.845748 C.3        1 MOL1        -0.1689
       5    H3      19.481876   20.407305   23.239365 H          1 MOL1         0.0830
       6    H4      17.765619   19.989126   23.077484 H          1 MOL1         0.0830
       7    C3      19.075093   18.277205   23.481226 C.3        1 MOL1        -0.1765
       8    H5      18.129712   17.744299   23.648213 H          1 MOL1         0.0830
       9    H6      19.584884   18.364811   24.449959 H          1 MOL1         0.0830
      10    C4      19.909608   17.501354   22.453298 C.3        1 MOL1         0.1214
      11    H7      19.766669   16.415683   22.552636 H          1 MOL1         0.0787
      12    C5      19.404744   18.015785   21.098518 C.3        1 MOL1        -0.1765
      13    H8      20.157929   17.909765   20.306384 H          1 MOL1         0.0830
      14    H9      18.523228   17.432346   20.801618 H          1 MOL1         0.0830
      15    O1      21.278433   17.848089   22.604630 O.3        1 MOL1        -0.5512
      16    H10     21.307531   18.821614   22.501839 H          1 MOL1         0.3776
@<TRIPOS>BOND
    1     1     2    1
    2     1     3    1
    3     1     4    1
    4     4     5    1
    5     4     6    1
    6     4     7    1
    7     7     8    1
    8     7     9    1
    9     7    10    1
   10    10    11    1
   11     1    12    1
   12    10    12    1
   13    12    13    1
   14    12    14    1
   15    10    15    1
   16    15    16    1
@<TRIPOS>SUBSTRUCTURE
       1 MOL1            1 RESIDUE      1      MOL     
@<SCITEGIC>MOL_PROPERTY
VConf Rank
SciTegic.value.IntegerValue
354

@<SCITEGIC>MOL_PROPERTY
Conf_Id
SciTegic.value.IntegerValue
20

@<SCITEGIC>MOL_PROPERTY
Delta U+W
SciTegic.value.DoubleValue
-0.483

@<SCITEGIC>MOL_PROPERTY
U+W
SciTegic.value.DoubleValue
2.527

@<SCITEGIC>MOL_PROPERTY
Grad RMS
SciTegic.value.DoubleValue
0.000000

@<SCITEGIC>MOL_PROPERTY
U
SciTegic.value.DoubleValue
4.508

@<SCITEGIC>MOL_PROPERTY
W
SciTegic.value.DoubleValue
-1.981

@<SCITEGIC>MOL_PROPERTY
W(PB)
SciTegic.value.DoubleValue
-3.712

@<SCITEGIC>MOL_PROPERTY
W(SA)
SciTegic.value.DoubleValue
1.732

@<SCITEGIC>MOL_PROPERTY
Valence
SciTegic.value.DoubleValue
14.705

@<SCITEGIC>MOL_PROPERTY
Coulomb
SciTegic.value.DoubleValue
-10.687

@<SCITEGIC>MOL_PROPERTY
VdW
SciTegic.value.DoubleValue
0.490

@<SCITEGIC>MOL_PROPERTY
VdW6
SciTegic.value.DoubleValue
-3.745

@<SCITEGIC>MOL_PROPERTY
VdW12
SciTegic.value.DoubleValue
4.235

@<SCITEGIC>MOL_PROPERTY
Bond
SciTegic.value.DoubleValue
0.068

@<SCITEGIC>MOL_PROPERTY
Angle
SciTegic.value.DoubleValue
3.901

@<SCITEGIC>MOL_PROPERTY
Pdih
SciTegic.value.DoubleValue
10.737

@<SCITEGIC>MOL_PROPERTY
Idih
SciTegic.value.DoubleValue
0.000

@<SCITEGIC>MOL_PROPERTY
Tether
SciTegic.value.DoubleValue
0.000

@<TRIPOS>MOLECULE
guest-4_confgen4.mol2 : confsearch ligand conformer 355
          16          16           1
SMALL
USER_CHARGES
 
@<TRIPOS>ATOM
       1    C1      20.227222   17.502200   21.812302 C.3        1 MOL1        -0.1689
       2    H1      19.763035   17.174558   20.871633 H          1 MOL1         0.0830
       3    H2      21.165321   16.946319   21.945012 H          1 MOL1         0.0830
       4    C2      19.247064   17.283569   22.972998 C.3        1 MOL1        -0.1689
       5    H3      18.689776   16.341707   22.877679 H          1 MOL1         0.0830
       6    H4      19.798438   17.261899   23.923336 H          1 MOL1         0.0830
       7    C3      18.325412   18.516271   22.933471 C.3        1 MOL1        -0.1765
       8    H5      17.943831   18.764013   23.932404 H          1 MOL1         0.0830
       9    H6      17.463569   18.304843   22.285930 H          1 MOL1         0.0830
      10    C4      19.166065   19.669133   22.345347 C.3        1 MOL1         0.1214
      11    H7      19.438611   20.379376   23.139572 H          1 MOL1         0.0787
      12    C5      20.447163   19.025814   21.775467 C.3        1 MOL1        -0.1765
      13    H8      20.673762   19.377121   20.759958 H          1 MOL1         0.0830
      14    H9      21.297050   19.291035   22.417674 H          1 MOL1         0.0830
      15    O1      18.443786   20.324690   21.309757 O.3        1 MOL1        -0.5512
      16    H10     17.639463   20.702986   21.723869 H          1 MOL1         0.3776
@<TRIPOS>BOND
    1     1     2    1
    2     1     3    1
    3     1     4    1
    4     4     5    1
    5     4     6    1
    6     4     7    1
    7     7     8    1
    8     7     9    1
    9     7    10    1
   10    10    11    1
   11     1    12    1
   12    10    12    1
   13    12    13    1
   14    12    14    1
   15    10    15    1
   16    15    16    1
@<TRIPOS>SUBSTRUCTURE
       1 MOL1            1 RESIDUE      1      MOL     
@<SCITEGIC>MOL_PROPERTY
VConf Rank
SciTegic.value.IntegerValue
355

@<SCITEGIC>MOL_PROPERTY
Conf_Id
SciTegic.value.IntegerValue
59

@<SCITEGIC>MOL_PROPERTY
Delta U+W
SciTegic.value.DoubleValue
0.000

@<SCITEGIC>MOL_PROPERTY
U+W
SciTegic.value.DoubleValue
3.010

@<SCITEGIC>MOL_PROPERTY
Grad RMS
SciTegic.value.DoubleValue
0.000000

@<SCITEGIC>MOL_PROPERTY
U
SciTegic.value.DoubleValue
5.843

@<SCITEGIC>MOL_PROPERTY
W
SciTegic.value.DoubleValue
-2.833

@<SCITEGIC>MOL_PROPERTY
W(PB)
SciTegic.value.DoubleValue
-4.568

@<SCITEGIC>MOL_PROPERTY
W(SA)
SciTegic.value.DoubleValue
1.735

@<SCITEGIC>MOL_PROPERTY
Valence
SciTegic.value.DoubleValue
13.789

@<SCITEGIC>MOL_PROPERTY
Coulomb
SciTegic.value.DoubleValue
-8.574

@<SCITEGIC>MOL_PROPERTY
VdW
SciTegic.value.DoubleValue
0.628

@<SCITEGIC>MOL_PROPERTY
VdW6
SciTegic.value.DoubleValue
-3.284

@<SCITEGIC>MOL_PROPERTY
VdW12
SciTegic.value.DoubleValue
3.912

@<SCITEGIC>MOL_PROPERTY
Bond
SciTegic.value.DoubleValue
0.054

@<SCITEGIC>MOL_PROPERTY
Angle
SciTegic.value.DoubleValue
4.034

@<SCITEGIC>MOL_PROPERTY
Pdih
SciTegic.value.DoubleValue
9.702

@<SCITEGIC>MOL_PROPERTY
Idih
SciTegic.value.DoubleValue
0.000

@<SCITEGIC>MOL_PROPERTY
Tether
SciTegic.value.DoubleValue
0.000

@<TRIPOS>MOLECULE
guest-4_confgen4.mol2 : confsearch ligand conformer 356
          16          16           1
SMALL
USER_CHARGES
 
@<TRIPOS>ATOM
       1    C1      18.760447   17.424372   21.878615 C.3        1 MOL1        -0.1689
       2    H1      17.735604   17.031952   21.828989 H          1 MOL1         0.0830
       3    H2      19.422742   16.723114   21.352094 H          1 MOL1         0.0830
       4    C2      19.246239   17.607749   23.322951 C.3        1 MOL1        -0.1689
       5    H3      18.425683   17.998637   23.940668 H          1 MOL1         0.0830
       6    H4      19.596142   16.667568   23.770466 H          1 MOL1         0.0830
       7    C3      20.363669   18.662430   23.222582 C.3        1 MOL1        -0.1765
       8    H5      21.328020   18.163274   23.061477 H          1 MOL1         0.0830
       9    H6      20.444288   19.254985   24.143668 H          1 MOL1         0.0830
      10    C4      20.036668   19.533939   21.992403 C.3        1 MOL1         0.1214
      11    H7      20.921681   19.591032   21.342010 H          1 MOL1         0.0787
      12    C5      18.882206   18.825734   21.252540 C.3        1 MOL1        -0.1765
      13    H8      17.941669   19.373327   21.401924 H          1 MOL1         0.0830
      14    H9      19.070593   18.767599   20.172736 H          1 MOL1         0.0830
      15    O1      19.630909   20.833347   22.405676 O.3        1 MOL1        -0.5512
      16    H10     19.426055   21.336851   21.589558 H          1 MOL1         0.3776
@<TRIPOS>BOND
    1     1     2    1
    2     1     3    1
    3     1     4    1
    4     4     5    1
    5     4     6    1
    6     4     7    1
    7     7     8    1
    8     7     9    1
    9     7    10    1
   10    10    11    1
   11     1    12    1
   12    10    12    1
   13    12    13    1
   14    12    14    1
   15    10    15    1
   16    15    16    1
@<TRIPOS>SUBSTRUCTURE
       1 MOL1            1 RESIDUE      1      MOL     
@<SCITEGIC>MOL_PROPERTY
VConf Rank
SciTegic.value.IntegerValue
356

@<SCITEGIC>MOL_PROPERTY
Conf_Id
SciTegic.value.IntegerValue
33

@<SCITEGIC>MOL_PROPERTY
Delta U+W
SciTegic.value.DoubleValue
0.015

@<SCITEGIC>MOL_PROPERTY
U+W
SciTegic.value.DoubleValue
3.025

@<SCITEGIC>MOL_PROPERTY
Grad RMS
SciTegic.value.DoubleValue
0.000000

@<SCITEGIC>MOL_PROPERTY
U
SciTegic.value.DoubleValue
5.843

@<SCITEGIC>MOL_PROPERTY
W
SciTegic.value.DoubleValue
-2.819

@<SCITEGIC>MOL_PROPERTY
W(PB)
SciTegic.value.DoubleValue
-4.568

@<SCITEGIC>MOL_PROPERTY
W(SA)
SciTegic.value.DoubleValue
1.750

@<SCITEGIC>MOL_PROPERTY
Valence
SciTegic.value.DoubleValue
13.789

@<SCITEGIC>MOL_PROPERTY
Coulomb
SciTegic.value.DoubleValue
-8.574

@<SCITEGIC>MOL_PROPERTY
VdW
SciTegic.value.DoubleValue
0.628

@<SCITEGIC>MOL_PROPERTY
VdW6
SciTegic.value.DoubleValue
-3.284

@<SCITEGIC>MOL_PROPERTY
VdW12
SciTegic.value.DoubleValue
3.913

@<SCITEGIC>MOL_PROPERTY
Bond
SciTegic.value.DoubleValue
0.054

@<SCITEGIC>MOL_PROPERTY
Angle
SciTegic.value.DoubleValue
4.033

@<SCITEGIC>MOL_PROPERTY
Pdih
SciTegic.value.DoubleValue
9.702

@<SCITEGIC>MOL_PROPERTY
Idih
SciTegic.value.DoubleValue
0.000

@<SCITEGIC>MOL_PROPERTY
Tether
SciTegic.value.DoubleValue
0.000

@<TRIPOS>MOLECULE
guest-4_confgen4.mol2 : confsearch ligand conformer 357
          16          16           1
SMALL
USER_CHARGES
 
@<TRIPOS>ATOM
       1    C1      20.443742   17.808398   22.176253 C.3        1 MOL1        -0.1689
       2    H1      20.207478   16.736358   22.222478 H          1 MOL1         0.0830
       3    H2      21.531299   17.905051   22.054282 H          1 MOL1         0.0830
       4    C2      19.951741   18.510523   23.460767 C.3        1 MOL1        -0.1689
       5    H3      19.478318   17.778121   24.129112 H          1 MOL1         0.0830
       6    H4      20.781827   18.975347   24.010218 H          1 MOL1         0.0830
       7    C3      18.920864   19.568746   23.013674 C.3        1 MOL1        -0.1765
       8    H5      19.408065   20.550526   22.947611 H          1 MOL1         0.0830
       9    H6      18.083543   19.658019   23.718606 H          1 MOL1         0.0830
      10    C4      18.458624   19.146566   21.612570 C.3        1 MOL1         0.1214
      11    H7      18.134169   20.011258   21.015896 H          1 MOL1         0.0787
      12    C5      19.692601   18.469555   21.001086 C.3        1 MOL1        -0.1765
      13    H8      19.425633   17.746928   20.218437 H          1 MOL1         0.0830
      14    H9      20.330434   19.237269   20.543476 H          1 MOL1         0.0830
      15    O1      17.413218   18.192871   21.732566 O.3        1 MOL1        -0.5512
      16    H10     17.790196   17.468228   22.272883 H          1 MOL1         0.3776
@<TRIPOS>BOND
    1     1     2    1
    2     1     3    1
    3     1     4    1
    4     4     5    1
    5     4     6    1
    6     4     7    1
    7     7     8    1
    8     7     9    1
    9     7    10    1
   10    10    11    1
   11     1    12    1
   12    10    12    1
   13    12    13    1
   14    12    14    1
   15    10    15    1
   16    15    16    1
@<TRIPOS>SUBSTRUCTURE
       1 MOL1            1 RESIDUE      1      MOL     
@<SCITEGIC>MOL_PROPERTY
VConf Rank
SciTegic.value.IntegerValue
357

@<SCITEGIC>MOL_PROPERTY
Conf_Id
SciTegic.value.IntegerValue
20

@<SCITEGIC>MOL_PROPERTY
Delta U+W
SciTegic.value.DoubleValue
-0.483

@<SCITEGIC>MOL_PROPERTY
U+W
SciTegic.value.DoubleValue
2.527

@<SCITEGIC>MOL_PROPERTY
Grad RMS
SciTegic.value.DoubleValue
0.000000

@<SCITEGIC>MOL_PROPERTY
U
SciTegic.value.DoubleValue
4.508

@<SCITEGIC>MOL_PROPERTY
W
SciTegic.value.DoubleValue
-1.981

@<SCITEGIC>MOL_PROPERTY
W(PB)
SciTegic.value.DoubleValue
-3.712

@<SCITEGIC>MOL_PROPERTY
W(SA)
SciTegic.value.DoubleValue
1.732

@<SCITEGIC>MOL_PROPERTY
Valence
SciTegic.value.DoubleValue
14.705

@<SCITEGIC>MOL_PROPERTY
Coulomb
SciTegic.value.DoubleValue
-10.687

@<SCITEGIC>MOL_PROPERTY
VdW
SciTegic.value.DoubleValue
0.490

@<SCITEGIC>MOL_PROPERTY
VdW6
SciTegic.value.DoubleValue
-3.745

@<SCITEGIC>MOL_PROPERTY
VdW12
SciTegic.value.DoubleValue
4.235

@<SCITEGIC>MOL_PROPERTY
Bond
SciTegic.value.DoubleValue
0.068

@<SCITEGIC>MOL_PROPERTY
Angle
SciTegic.value.DoubleValue
3.901

@<SCITEGIC>MOL_PROPERTY
Pdih
SciTegic.value.DoubleValue
10.737

@<SCITEGIC>MOL_PROPERTY
Idih
SciTegic.value.DoubleValue
0.000

@<SCITEGIC>MOL_PROPERTY
Tether
SciTegic.value.DoubleValue
0.000

@<TRIPOS>MOLECULE
guest-4_confgen4.mol2 : confsearch ligand conformer 358
          16          16           1
SMALL
USER_CHARGES
 
@<TRIPOS>ATOM
       1    C1      20.653446   17.926155   22.517811 C.3        1 MOL1        -0.1689
       2    H1      21.309024   18.373910   21.757936 H          1 MOL1         0.0830
       3    H2      21.256707   17.247584   23.136084 H          1 MOL1         0.0830
       4    C2      19.483983   17.208624   21.829893 C.3        1 MOL1        -0.1689
       5    H3      19.796580   16.676176   20.921300 H          1 MOL1         0.0830
       6    H4      19.040594   16.478134   22.520846 H          1 MOL1         0.0830
       7    C3      18.469037   18.327757   21.533272 C.3        1 MOL1        -0.1765
       8    H5      17.440021   17.945705   21.530697 H          1 MOL1         0.0830
       9    H6      18.674439   18.750635   20.540413 H          1 MOL1         0.0830
      10    C4      18.673195   19.400308   22.623975 C.3        1 MOL1         0.1214
      11    H7      17.842573   19.367682   23.344059 H          1 MOL1         0.0787
      12    C5      19.988069   19.040683   23.346201 C.3        1 MOL1        -0.1765
      13    H8      20.650787   19.908655   23.462183 H          1 MOL1         0.0830
      14    H9      19.753459   18.663526   24.350090 H          1 MOL1         0.0830
      15    O1      18.775618   20.689658   22.031544 O.3        1 MOL1        -0.5512
      16    H10     17.922034   20.860341   21.580107 H          1 MOL1         0.3776
@<TRIPOS>BOND
    1     1     2    1
    2     1     3    1
    3     1     4    1
    4     4     5    1
    5     4     6    1
    6     4     7    1
    7     7     8    1
    8     7     9    1
    9     7    10    1
   10    10    11    1
   11     1    12    1
   12    10    12    1
   13    12    13    1
   14    12    14    1
   15    10    15    1
   16    15    16    1
@<TRIPOS>SUBSTRUCTURE
       1 MOL1            1 RESIDUE      1      MOL     
@<SCITEGIC>MOL_PROPERTY
VConf Rank
SciTegic.value.IntegerValue
358

@<SCITEGIC>MOL_PROPERTY
Conf_Id
SciTegic.value.IntegerValue
59

@<SCITEGIC>MOL_PROPERTY
Delta U+W
SciTegic.value.DoubleValue
0.000

@<SCITEGIC>MOL_PROPERTY
U+W
SciTegic.value.DoubleValue
3.010

@<SCITEGIC>MOL_PROPERTY
Grad RMS
SciTegic.value.DoubleValue
0.000000

@<SCITEGIC>MOL_PROPERTY
U
SciTegic.value.DoubleValue
5.843

@<SCITEGIC>MOL_PROPERTY
W
SciTegic.value.DoubleValue
-2.833

@<SCITEGIC>MOL_PROPERTY
W(PB)
SciTegic.value.DoubleValue
-4.568

@<SCITEGIC>MOL_PROPERTY
W(SA)
SciTegic.value.DoubleValue
1.735

@<SCITEGIC>MOL_PROPERTY
Valence
SciTegic.value.DoubleValue
13.789

@<SCITEGIC>MOL_PROPERTY
Coulomb
SciTegic.value.DoubleValue
-8.574

@<SCITEGIC>MOL_PROPERTY
VdW
SciTegic.value.DoubleValue
0.628

@<SCITEGIC>MOL_PROPERTY
VdW6
SciTegic.value.DoubleValue
-3.284

@<SCITEGIC>MOL_PROPERTY
VdW12
SciTegic.value.DoubleValue
3.912

@<SCITEGIC>MOL_PROPERTY
Bond
SciTegic.value.DoubleValue
0.054

@<SCITEGIC>MOL_PROPERTY
Angle
SciTegic.value.DoubleValue
4.034

@<SCITEGIC>MOL_PROPERTY
Pdih
SciTegic.value.DoubleValue
9.702

@<SCITEGIC>MOL_PROPERTY
Idih
SciTegic.value.DoubleValue
0.000

@<SCITEGIC>MOL_PROPERTY
Tether
SciTegic.value.DoubleValue
0.000

@<TRIPOS>MOLECULE
guest-4_confgen4.mol2 : confsearch ligand conformer 359
          16          16           1
SMALL
USER_CHARGES
 
@<TRIPOS>ATOM
       1    C1      18.449786   17.743554   22.841416 C.3        1 MOL1        -0.1689
       2    H1      18.288962   16.673828   23.032678 H          1 MOL1         0.0830
       3    H2      17.632406   18.304130   23.316039 H          1 MOL1         0.0830
       4    C2      18.495887   18.068222   21.342019 C.3        1 MOL1        -0.1689
       5    H3      19.042684   17.276907   20.810500 H          1 MOL1         0.0830
       6    H4      17.493831   18.150862   20.899641 H          1 MOL1         0.0830
       7    C3      19.286135   19.387105   21.257554 C.3        1 MOL1        -0.1765
       8    H5      18.593737   20.236376   21.323955 H          1 MOL1         0.0830
       9    H6      19.829322   19.472822   20.306965 H          1 MOL1         0.0830
      10    C4      20.231386   19.412281   22.476432 C.3        1 MOL1         0.1214
      11    H7      20.108629   20.365102   23.011765 H          1 MOL1         0.0787
      12    C5      19.803667   18.238429   23.382448 C.3        1 MOL1        -0.1765
      13    H8      20.538433   17.423990   23.322543 H          1 MOL1         0.0830
      14    H9      19.727178   18.546844   24.433103 H          1 MOL1         0.0830
      15    O1      21.579490   19.241432   22.055336 O.3        1 MOL1        -0.5512
      16    H10     22.131083   19.254028   22.865963 H          1 MOL1         0.3776
@<TRIPOS>BOND
    1     1     2    1
    2     1     3    1
    3     1     4    1
    4     4     5    1
    5     4     6    1
    6     4     7    1
    7     7     8    1
    8     7     9    1
    9     7    10    1
   10    10    11    1
   11     1    12    1
   12    10    12    1
   13    12    13    1
   14    12    14    1
   15    10    15    1
   16    15    16    1
@<TRIPOS>SUBSTRUCTURE
       1 MOL1            1 RESIDUE      1      MOL     
@<SCITEGIC>MOL_PROPERTY
VConf Rank
SciTegic.value.IntegerValue
359

@<SCITEGIC>MOL_PROPERTY
Conf_Id
SciTegic.value.IntegerValue
33

@<SCITEGIC>MOL_PROPERTY
Delta U+W
SciTegic.value.DoubleValue
0.015

@<SCITEGIC>MOL_PROPERTY
U+W
SciTegic.value.DoubleValue
3.025

@<SCITEGIC>MOL_PROPERTY
Grad RMS
SciTegic.value.DoubleValue
0.000000

@<SCITEGIC>MOL_PROPERTY
U
SciTegic.value.DoubleValue
5.843

@<SCITEGIC>MOL_PROPERTY
W
SciTegic.value.DoubleValue
-2.819

@<SCITEGIC>MOL_PROPERTY
W(PB)
SciTegic.value.DoubleValue
-4.568

@<SCITEGIC>MOL_PROPERTY
W(SA)
SciTegic.value.DoubleValue
1.750

@<SCITEGIC>MOL_PROPERTY
Valence
SciTegic.value.DoubleValue
13.789

@<SCITEGIC>MOL_PROPERTY
Coulomb
SciTegic.value.DoubleValue
-8.574

@<SCITEGIC>MOL_PROPERTY
VdW
SciTegic.value.DoubleValue
0.628

@<SCITEGIC>MOL_PROPERTY
VdW6
SciTegic.value.DoubleValue
-3.284

@<SCITEGIC>MOL_PROPERTY
VdW12
SciTegic.value.DoubleValue
3.913

@<SCITEGIC>MOL_PROPERTY
Bond
SciTegic.value.DoubleValue
0.054

@<SCITEGIC>MOL_PROPERTY
Angle
SciTegic.value.DoubleValue
4.033

@<SCITEGIC>MOL_PROPERTY
Pdih
SciTegic.value.DoubleValue
9.702

@<SCITEGIC>MOL_PROPERTY
Idih
SciTegic.value.DoubleValue
0.000

@<SCITEGIC>MOL_PROPERTY
Tether
SciTegic.value.DoubleValue
0.000

@<TRIPOS>MOLECULE
guest-4_confgen4.mol2 : confsearch ligand conformer 360
          16          16           1
SMALL
USER_CHARGES
 
@<TRIPOS>ATOM
       1    C1      19.859818   19.120186   21.121027 C.3        1 MOL1        -0.1689
       2    H1      19.352080   18.762897   20.214510 H          1 MOL1         0.0830
       3    H2      20.634666   19.834079   20.809636 H          1 MOL1         0.0830
       4    C2      20.464638   17.925156   21.889869 C.3        1 MOL1        -0.1689
       5    H3      20.250532   16.989632   21.354911 H          1 MOL1         0.0830
       6    H4      21.555794   18.014442   21.981547 H          1 MOL1         0.0830
       7    C3      19.790516   17.911669   23.278326 C.3        1 MOL1        -0.1765
       8    H5      20.444248   18.406965   24.008351 H          1 MOL1         0.0830
       9    H6      19.599711   16.891930   23.638508 H          1 MOL1         0.0830
      10    C4      18.499051   18.727541   23.131816 C.3        1 MOL1         0.1214
      11    H7      18.202269   19.189848   24.084273 H          1 MOL1         0.0787
      12    C5      18.843828   19.784687   22.074212 C.3        1 MOL1        -0.1765
      13    H8      17.953423   20.149429   21.544924 H          1 MOL1         0.0830
      14    H9      19.313676   20.644609   22.569591 H          1 MOL1         0.0830
      15    O1      17.468561   17.886666   22.633995 O.3        1 MOL1        -0.5512
      16    H10     17.818941   17.524026   21.794419 H          1 MOL1         0.3776
@<TRIPOS>BOND
    1     1     2    1
    2     1     3    1
    3     1     4    1
    4     4     5    1
    5     4     6    1
    6     4     7    1
    7     7     8    1
    8     7     9    1
    9     7    10    1
   10    10    11    1
   11     1    12    1
   12    10    12    1
   13    12    13    1
   14    12    14    1
   15    10    15    1
   16    15    16    1
@<TRIPOS>SUBSTRUCTURE
       1 MOL1            1 RESIDUE      1      MOL     
@<SCITEGIC>MOL_PROPERTY
VConf Rank
SciTegic.value.IntegerValue
360

@<SCITEGIC>MOL_PROPERTY
Conf_Id
SciTegic.value.IntegerValue
20

@<SCITEGIC>MOL_PROPERTY
Delta U+W
SciTegic.value.DoubleValue
-0.483

@<SCITEGIC>MOL_PROPERTY
U+W
SciTegic.value.DoubleValue
2.527

@<SCITEGIC>MOL_PROPERTY
Grad RMS
SciTegic.value.DoubleValue
0.000000

@<SCITEGIC>MOL_PROPERTY
U
SciTegic.value.DoubleValue
4.508

@<SCITEGIC>MOL_PROPERTY
W
SciTegic.value.DoubleValue
-1.981

@<SCITEGIC>MOL_PROPERTY
W(PB)
SciTegic.value.DoubleValue
-3.712

@<SCITEGIC>MOL_PROPERTY
W(SA)
SciTegic.value.DoubleValue
1.732

@<SCITEGIC>MOL_PROPERTY
Valence
SciTegic.value.DoubleValue
14.705

@<SCITEGIC>MOL_PROPERTY
Coulomb
SciTegic.value.DoubleValue
-10.687

@<SCITEGIC>MOL_PROPERTY
VdW
SciTegic.value.DoubleValue
0.490

@<SCITEGIC>MOL_PROPERTY
VdW6
SciTegic.value.DoubleValue
-3.745

@<SCITEGIC>MOL_PROPERTY
VdW12
SciTegic.value.DoubleValue
4.235

@<SCITEGIC>MOL_PROPERTY
Bond
SciTegic.value.DoubleValue
0.068

@<SCITEGIC>MOL_PROPERTY
Angle
SciTegic.value.DoubleValue
3.901

@<SCITEGIC>MOL_PROPERTY
Pdih
SciTegic.value.DoubleValue
10.737

@<SCITEGIC>MOL_PROPERTY
Idih
SciTegic.value.DoubleValue
0.000

@<SCITEGIC>MOL_PROPERTY
Tether
SciTegic.value.DoubleValue
0.000

@<TRIPOS>MOLECULE
guest-4_confgen4.mol2 : confsearch ligand conformer 361
          16          16           1
SMALL
USER_CHARGES
 
@<TRIPOS>ATOM
       1    C1      19.185489   18.700047   23.750333 C.3        1 MOL1        -0.1689
       2    H1      18.180768   18.305919   23.957397 H          1 MOL1         0.0830
       3    H2      19.648981   18.980095   24.706049 H          1 MOL1         0.0830
       4    C2      19.083407   19.884131   22.779121 C.3        1 MOL1        -0.1689
       5    H3      18.221121   20.529315   22.995821 H          1 MOL1         0.0830
       6    H4      19.994553   20.495056   22.844007 H          1 MOL1         0.0830
       7    C3      18.991825   19.231482   21.387640 C.3        1 MOL1        -0.1765
       8    H5      19.416906   19.880698   20.611322 H          1 MOL1         0.0830
       9    H6      17.936771   19.053844   21.138461 H          1 MOL1         0.0830
      10    C4      19.751225   17.891511   21.484941 C.3        1 MOL1         0.1214
      11    H7      20.714967   17.966140   20.960391 H          1 MOL1         0.0787
      12    C5      20.006035   17.644580   22.986250 C.3        1 MOL1        -0.1765
      13    H8      19.737709   16.624610   23.292330 H          1 MOL1         0.0830
      14    H9      21.074298   17.785715   23.195956 H          1 MOL1         0.0830
      15    O1      18.962409   16.839604   20.941662 O.3        1 MOL1        -0.5512
      16    H10     18.823102   17.052785   19.994730 H          1 MOL1         0.3776
@<TRIPOS>BOND
    1     1     2    1
    2     1     3    1
    3     1     4    1
    4     4     5    1
    5     4     6    1
    6     4     7    1
    7     7     8    1
    8     7     9    1
    9     7    10    1
   10    10    11    1
   11     1    12    1
   12    10    12    1
   13    12    13    1
   14    12    14    1
   15    10    15    1
   16    15    16    1
@<TRIPOS>SUBSTRUCTURE
       1 MOL1            1 RESIDUE      1      MOL     
@<SCITEGIC>MOL_PROPERTY
VConf Rank
SciTegic.value.IntegerValue
361

@<SCITEGIC>MOL_PROPERTY
Conf_Id
SciTegic.value.IntegerValue
59

@<SCITEGIC>MOL_PROPERTY
Delta U+W
SciTegic.value.DoubleValue
0.000

@<SCITEGIC>MOL_PROPERTY
U+W
SciTegic.value.DoubleValue
3.010

@<SCITEGIC>MOL_PROPERTY
Grad RMS
SciTegic.value.DoubleValue
0.000000

@<SCITEGIC>MOL_PROPERTY
U
SciTegic.value.DoubleValue
5.843

@<SCITEGIC>MOL_PROPERTY
W
SciTegic.value.DoubleValue
-2.833

@<SCITEGIC>MOL_PROPERTY
W(PB)
SciTegic.value.DoubleValue
-4.568

@<SCITEGIC>MOL_PROPERTY
W(SA)
SciTegic.value.DoubleValue
1.735

@<SCITEGIC>MOL_PROPERTY
Valence
SciTegic.value.DoubleValue
13.789

@<SCITEGIC>MOL_PROPERTY
Coulomb
SciTegic.value.DoubleValue
-8.574

@<SCITEGIC>MOL_PROPERTY
VdW
SciTegic.value.DoubleValue
0.628

@<SCITEGIC>MOL_PROPERTY
VdW6
SciTegic.value.DoubleValue
-3.284

@<SCITEGIC>MOL_PROPERTY
VdW12
SciTegic.value.DoubleValue
3.912

@<SCITEGIC>MOL_PROPERTY
Bond
SciTegic.value.DoubleValue
0.054

@<SCITEGIC>MOL_PROPERTY
Angle
SciTegic.value.DoubleValue
4.034

@<SCITEGIC>MOL_PROPERTY
Pdih
SciTegic.value.DoubleValue
9.702

@<SCITEGIC>MOL_PROPERTY
Idih
SciTegic.value.DoubleValue
0.000

@<SCITEGIC>MOL_PROPERTY
Tether
SciTegic.value.DoubleValue
0.000

@<TRIPOS>MOLECULE
guest-4_confgen4.mol2 : confsearch ligand conformer 362
          16          16           1
SMALL
USER_CHARGES
 
@<TRIPOS>ATOM
       1    C1      20.085943   18.750574   21.011935 C.3        1 MOL1        -0.1689
       2    H1      19.849478   19.105619   19.999617 H          1 MOL1         0.0830
       3    H2      21.164126   18.543699   21.060367 H          1 MOL1         0.0830
       4    C2      19.300344   17.486099   21.385651 C.3        1 MOL1        -0.1689
       5    H3      18.272653   17.564897   21.004442 H          1 MOL1         0.0830
       6    H4      19.751831   16.574106   20.972044 H          1 MOL1         0.0830
       7    C3      19.280575   17.485834   22.925354 C.3        1 MOL1        -0.1765
       8    H5      20.154663   16.940885   23.304940 H          1 MOL1         0.0830
       9    H6      18.382300   16.990985   23.318095 H          1 MOL1         0.0830
      10    C4      19.376818   18.960879   23.366690 C.3        1 MOL1         0.1214
      11    H7      20.188543   19.068190   24.100929 H          1 MOL1         0.0787
      12    C5      19.702728   19.774263   22.096286 C.3        1 MOL1        -0.1765
      13    H8      18.818738   20.337682   21.767802 H          1 MOL1         0.0830
      14    H9      20.513416   20.492602   22.274107 H          1 MOL1         0.0830
      15    O1      18.137984   19.389323   23.919522 O.3        1 MOL1        -0.5512
      16    H10     18.252477   20.330276   24.170577 H          1 MOL1         0.3776
@<TRIPOS>BOND
    1     1     2    1
    2     1     3    1
    3     1     4    1
    4     4     5    1
    5     4     6    1
    6     4     7    1
    7     7     8    1
    8     7     9    1
    9     7    10    1
   10    10    11    1
   11     1    12    1
   12    10    12    1
   13    12    13    1
   14    12    14    1
   15    10    15    1
   16    15    16    1
@<TRIPOS>SUBSTRUCTURE
       1 MOL1            1 RESIDUE      1      MOL     
@<SCITEGIC>MOL_PROPERTY
VConf Rank
SciTegic.value.IntegerValue
362

@<SCITEGIC>MOL_PROPERTY
Conf_Id
SciTegic.value.IntegerValue
33

@<SCITEGIC>MOL_PROPERTY
Delta U+W
SciTegic.value.DoubleValue
0.015

@<SCITEGIC>MOL_PROPERTY
U+W
SciTegic.value.DoubleValue
3.025

@<SCITEGIC>MOL_PROPERTY
Grad RMS
SciTegic.value.DoubleValue
0.000000

@<SCITEGIC>MOL_PROPERTY
U
SciTegic.value.DoubleValue
5.843

@<SCITEGIC>MOL_PROPERTY
W
SciTegic.value.DoubleValue
-2.819

@<SCITEGIC>MOL_PROPERTY
W(PB)
SciTegic.value.DoubleValue
-4.568

@<SCITEGIC>MOL_PROPERTY
W(SA)
SciTegic.value.DoubleValue
1.750

@<SCITEGIC>MOL_PROPERTY
Valence
SciTegic.value.DoubleValue
13.789

@<SCITEGIC>MOL_PROPERTY
Coulomb
SciTegic.value.DoubleValue
-8.574

@<SCITEGIC>MOL_PROPERTY
VdW
SciTegic.value.DoubleValue
0.628

@<SCITEGIC>MOL_PROPERTY
VdW6
SciTegic.value.DoubleValue
-3.284

@<SCITEGIC>MOL_PROPERTY
VdW12
SciTegic.value.DoubleValue
3.913

@<SCITEGIC>MOL_PROPERTY
Bond
SciTegic.value.DoubleValue
0.054

@<SCITEGIC>MOL_PROPERTY
Angle
SciTegic.value.DoubleValue
4.033

@<SCITEGIC>MOL_PROPERTY
Pdih
SciTegic.value.DoubleValue
9.702

@<SCITEGIC>MOL_PROPERTY
Idih
SciTegic.value.DoubleValue
0.000

@<SCITEGIC>MOL_PROPERTY
Tether
SciTegic.value.DoubleValue
0.000

@<TRIPOS>MOLECULE
guest-4_confgen4.mol2 : confsearch ligand conformer 363
          16          16           1
SMALL
USER_CHARGES
 
@<TRIPOS>ATOM
       1    C1      20.165556   18.445879   23.324921 C.3        1 MOL1        -0.1689
       2    H1      19.630378   18.167571   24.243265 H          1 MOL1         0.0830
       3    H2      21.236824   18.491539   23.564288 H          1 MOL1         0.0830
       4    C2      19.642150   19.801607   22.802359 C.3        1 MOL1        -0.1689
       5    H3      18.854414   20.179935   23.468366 H          1 MOL1         0.0830
       6    H4      20.439882   20.556194   22.767411 H          1 MOL1         0.0830
       7    C3      19.067880   19.535803   21.394525 C.3        1 MOL1        -0.1765
       8    H5      19.816582   19.801810   20.636696 H          1 MOL1         0.0830
       9    H6      18.165044   20.128190   21.194598 H          1 MOL1         0.0830
      10    C4      18.800475   18.026399   21.322492 C.3        1 MOL1         0.1214
      11    H7      18.863610   17.653109   20.290188 H          1 MOL1         0.0787
      12    C5      19.889024   17.411993   22.212730 C.3        1 MOL1        -0.1765
      13    H8      19.593221   16.434733   22.617041 H          1 MOL1         0.0830
      14    H9      20.797877   17.264816   21.614444 H          1 MOL1         0.0830
      15    O1      17.525754   17.749917   21.884143 O.3        1 MOL1        -0.5512
      16    H10     17.563082   18.114270   22.792447 H          1 MOL1         0.3776
@<TRIPOS>BOND
    1     1     2    1
    2     1     3    1
    3     1     4    1
    4     4     5    1
    5     4     6    1
    6     4     7    1
    7     7     8    1
    8     7     9    1
    9     7    10    1
   10    10    11    1
   11     1    12    1
   12    10    12    1
   13    12    13    1
   14    12    14    1
   15    10    15    1
   16    15    16    1
@<TRIPOS>SUBSTRUCTURE
       1 MOL1            1 RESIDUE      1      MOL     
@<SCITEGIC>MOL_PROPERTY
VConf Rank
SciTegic.value.IntegerValue
363

@<SCITEGIC>MOL_PROPERTY
Conf_Id
SciTegic.value.IntegerValue
20

@<SCITEGIC>MOL_PROPERTY
Delta U+W
SciTegic.value.DoubleValue
-0.483

@<SCITEGIC>MOL_PROPERTY
U+W
SciTegic.value.DoubleValue
2.527

@<SCITEGIC>MOL_PROPERTY
Grad RMS
SciTegic.value.DoubleValue
0.000000

@<SCITEGIC>MOL_PROPERTY
U
SciTegic.value.DoubleValue
4.508

@<SCITEGIC>MOL_PROPERTY
W
SciTegic.value.DoubleValue
-1.981

@<SCITEGIC>MOL_PROPERTY
W(PB)
SciTegic.value.DoubleValue
-3.712

@<SCITEGIC>MOL_PROPERTY
W(SA)
SciTegic.value.DoubleValue
1.732

@<SCITEGIC>MOL_PROPERTY
Valence
SciTegic.value.DoubleValue
14.705

@<SCITEGIC>MOL_PROPERTY
Coulomb
SciTegic.value.DoubleValue
-10.687

@<SCITEGIC>MOL_PROPERTY
VdW
SciTegic.value.DoubleValue
0.490

@<SCITEGIC>MOL_PROPERTY
VdW6
SciTegic.value.DoubleValue
-3.745

@<SCITEGIC>MOL_PROPERTY
VdW12
SciTegic.value.DoubleValue
4.235

@<SCITEGIC>MOL_PROPERTY
Bond
SciTegic.value.DoubleValue
0.068

@<SCITEGIC>MOL_PROPERTY
Angle
SciTegic.value.DoubleValue
3.901

@<SCITEGIC>MOL_PROPERTY
Pdih
SciTegic.value.DoubleValue
10.737

@<SCITEGIC>MOL_PROPERTY
Idih
SciTegic.value.DoubleValue
0.000

@<SCITEGIC>MOL_PROPERTY
Tether
SciTegic.value.DoubleValue
0.000

@<TRIPOS>MOLECULE
guest-4_confgen4.mol2 : confsearch ligand conformer 364
          16          16           1
SMALL
USER_CHARGES
 
@<TRIPOS>ATOM
       1    C1      19.386393   17.488623   21.325372 C.3        1 MOL1        -0.1689
       2    H1      20.394346   17.531847   20.889667 H          1 MOL1         0.0830
       3    H2      18.854528   16.637712   20.878478 H          1 MOL1         0.0830
       4    C2      18.664966   18.822024   21.085969 C.3        1 MOL1        -0.1689
       5    H3      18.867603   19.233556   20.087802 H          1 MOL1         0.0830
       6    H4      17.579968   18.678189   21.184546 H          1 MOL1         0.0830
       7    C3      19.173202   19.740231   22.212534 C.3        1 MOL1        -0.1765
       8    H5      18.422257   20.492524   22.486366 H          1 MOL1         0.0830
       9    H6      20.072853   20.270211   21.871162 H          1 MOL1         0.0830
      10    C4      19.514374   18.819683   23.403278 C.3        1 MOL1         0.1214
      11    H7      18.752127   18.922957   24.189301 H          1 MOL1         0.0787
      12    C5      19.491330   17.376939   22.857575 C.3        1 MOL1        -0.1765
      13    H8      20.376454   16.802218   23.161340 H          1 MOL1         0.0830
      14    H9      18.606530   16.859621   23.250757 H          1 MOL1         0.0830
      15    O1      20.806304   19.131752   23.910643 O.3        1 MOL1        -0.5512
      16    H10     20.766330   20.057446   24.231619 H          1 MOL1         0.3776
@<TRIPOS>BOND
    1     1     2    1
    2     1     3    1
    3     1     4    1
    4     4     5    1
    5     4     6    1
    6     4     7    1
    7     7     8    1
    8     7     9    1
    9     7    10    1
   10    10    11    1
   11     1    12    1
   12    10    12    1
   13    12    13    1
   14    12    14    1
   15    10    15    1
   16    15    16    1
@<TRIPOS>SUBSTRUCTURE
       1 MOL1            1 RESIDUE      1      MOL     
@<SCITEGIC>MOL_PROPERTY
VConf Rank
SciTegic.value.IntegerValue
364

@<SCITEGIC>MOL_PROPERTY
Conf_Id
SciTegic.value.IntegerValue
59

@<SCITEGIC>MOL_PROPERTY
Delta U+W
SciTegic.value.DoubleValue
0.000

@<SCITEGIC>MOL_PROPERTY
U+W
SciTegic.value.DoubleValue
3.010

@<SCITEGIC>MOL_PROPERTY
Grad RMS
SciTegic.value.DoubleValue
0.000000

@<SCITEGIC>MOL_PROPERTY
U
SciTegic.value.DoubleValue
5.843

@<SCITEGIC>MOL_PROPERTY
W
SciTegic.value.DoubleValue
-2.833

@<SCITEGIC>MOL_PROPERTY
W(PB)
SciTegic.value.DoubleValue
-4.568

@<SCITEGIC>MOL_PROPERTY
W(SA)
SciTegic.value.DoubleValue
1.735

@<SCITEGIC>MOL_PROPERTY
Valence
SciTegic.value.DoubleValue
13.789

@<SCITEGIC>MOL_PROPERTY
Coulomb
SciTegic.value.DoubleValue
-8.574

@<SCITEGIC>MOL_PROPERTY
VdW
SciTegic.value.DoubleValue
0.628

@<SCITEGIC>MOL_PROPERTY
VdW6
SciTegic.value.DoubleValue
-3.284

@<SCITEGIC>MOL_PROPERTY
VdW12
SciTegic.value.DoubleValue
3.912

@<SCITEGIC>MOL_PROPERTY
Bond
SciTegic.value.DoubleValue
0.054

@<SCITEGIC>MOL_PROPERTY
Angle
SciTegic.value.DoubleValue
4.034

@<SCITEGIC>MOL_PROPERTY
Pdih
SciTegic.value.DoubleValue
9.702

@<SCITEGIC>MOL_PROPERTY
Idih
SciTegic.value.DoubleValue
0.000

@<SCITEGIC>MOL_PROPERTY
Tether
SciTegic.value.DoubleValue
0.000

@<TRIPOS>MOLECULE
guest-4_confgen4.mol2 : confsearch ligand conformer 365
          16          16           1
SMALL
USER_CHARGES
 
@<TRIPOS>ATOM
       1    C1      18.059341   18.370444   22.542362 C.3        1 MOL1        -0.1689
       2    H1      17.413279   17.964682   23.332754 H          1 MOL1         0.0830
       3    H2      17.417796   18.812845   21.767557 H          1 MOL1         0.0830
       4    C2      18.960034   17.297096   21.915940 C.3        1 MOL1        -0.1689
       5    H3      19.327670   16.621089   22.700503 H          1 MOL1         0.0830
       6    H4      18.433980   16.695639   21.162176 H          1 MOL1         0.0830
       7    C3      20.140791   18.085176   21.319437 C.3        1 MOL1        -0.1765
       8    H5      19.911627   18.363600   20.282592 H          1 MOL1         0.0830
       9    H6      21.061798   17.487137   21.308687 H          1 MOL1         0.0830
      10    C4      20.285241   19.367701   22.164459 C.3        1 MOL1         0.1214
      11    H7      20.308695   20.241660   21.497252 H          1 MOL1         0.0787
      12    C5      19.040406   19.431102   23.074460 C.3        1 MOL1        -0.1765
      13    H8      19.313124   19.186624   24.110142 H          1 MOL1         0.0830
      14    H9      18.589350   20.431796   23.071885 H          1 MOL1         0.0830
      15    O1      21.467375   19.304751   22.953441 O.3        1 MOL1        -0.5512
      16    H10     21.502111   20.134569   23.474713 H          1 MOL1         0.3776
@<TRIPOS>BOND
    1     1     2    1
    2     1     3    1
    3     1     4    1
    4     4     5    1
    5     4     6    1
    6     4     7    1
    7     7     8    1
    8     7     9    1
    9     7    10    1
   10    10    11    1
   11     1    12    1
   12    10    12    1
   13    12    13    1
   14    12    14    1
   15    10    15    1
   16    15    16    1
@<TRIPOS>SUBSTRUCTURE
       1 MOL1            1 RESIDUE      1      MOL     
@<SCITEGIC>MOL_PROPERTY
VConf Rank
SciTegic.value.IntegerValue
365

@<SCITEGIC>MOL_PROPERTY
Conf_Id
SciTegic.value.IntegerValue
33

@<SCITEGIC>MOL_PROPERTY
Delta U+W
SciTegic.value.DoubleValue
0.015

@<SCITEGIC>MOL_PROPERTY
U+W
SciTegic.value.DoubleValue
3.025

@<SCITEGIC>MOL_PROPERTY
Grad RMS
SciTegic.value.DoubleValue
0.000000

@<SCITEGIC>MOL_PROPERTY
U
SciTegic.value.DoubleValue
5.843

@<SCITEGIC>MOL_PROPERTY
W
SciTegic.value.DoubleValue
-2.819

@<SCITEGIC>MOL_PROPERTY
W(PB)
SciTegic.value.DoubleValue
-4.568

@<SCITEGIC>MOL_PROPERTY
W(SA)
SciTegic.value.DoubleValue
1.750

@<SCITEGIC>MOL_PROPERTY
Valence
SciTegic.value.DoubleValue
13.789

@<SCITEGIC>MOL_PROPERTY
Coulomb
SciTegic.value.DoubleValue
-8.574

@<SCITEGIC>MOL_PROPERTY
VdW
SciTegic.value.DoubleValue
0.628

@<SCITEGIC>MOL_PROPERTY
VdW6
SciTegic.value.DoubleValue
-3.284

@<SCITEGIC>MOL_PROPERTY
VdW12
SciTegic.value.DoubleValue
3.913

@<SCITEGIC>MOL_PROPERTY
Bond
SciTegic.value.DoubleValue
0.054

@<SCITEGIC>MOL_PROPERTY
Angle
SciTegic.value.DoubleValue
4.033

@<SCITEGIC>MOL_PROPERTY
Pdih
SciTegic.value.DoubleValue
9.702

@<SCITEGIC>MOL_PROPERTY
Idih
SciTegic.value.DoubleValue
0.000

@<SCITEGIC>MOL_PROPERTY
Tether
SciTegic.value.DoubleValue
0.000

@<TRIPOS>MOLECULE
guest-4_confgen4.mol2 : confsearch ligand conformer 366
          16          16           1
SMALL
USER_CHARGES
 
@<TRIPOS>ATOM
       1    C1      20.055685   18.589579   21.106779 C.3        1 MOL1        -0.1689
       2    H1      20.567916   17.639676   20.900547 H          1 MOL1         0.0830
       3    H2      20.247845   19.262575   20.259933 H          1 MOL1         0.0830
       4    C2      20.570685   19.186501   22.434740 C.3        1 MOL1        -0.1689
       5    H3      21.332907   18.526035   22.870663 H          1 MOL1         0.0830
       6    H4      21.031346   20.172235   22.282697 H          1 MOL1         0.0830
       7    C3      19.349424   19.283742   23.373624 C.3        1 MOL1        -0.1765
       8    H5      18.945815   20.304505   23.345998 H          1 MOL1         0.0830
       9    H6      19.606669   19.054272   24.416301 H          1 MOL1         0.0830
      10    C4      18.300094   18.317518   22.807664 C.3        1 MOL1         0.1214
      11    H7      17.278592   18.635898   23.060942 H          1 MOL1         0.0787
      12    C5      18.542326   18.349678   21.292657 C.3        1 MOL1        -0.1765
      13    H8      18.202709   17.430192   20.797472 H          1 MOL1         0.0830
      14    H9      17.981962   19.188836   20.859727 H          1 MOL1         0.0830
      15    O1      18.558353   17.008819   23.294917 O.3        1 MOL1        -0.5512
      16    H10     19.479425   16.813703   23.025254 H          1 MOL1         0.3776
@<TRIPOS>BOND
    1     1     2    1
    2     1     3    1
    3     1     4    1
    4     4     5    1
    5     4     6    1
    6     4     7    1
    7     7     8    1
    8     7     9    1
    9     7    10    1
   10    10    11    1
   11     1    12    1
   12    10    12    1
   13    12    13    1
   14    12    14    1
   15    10    15    1
   16    15    16    1
@<TRIPOS>SUBSTRUCTURE
       1 MOL1            1 RESIDUE      1      MOL     
@<SCITEGIC>MOL_PROPERTY
VConf Rank
SciTegic.value.IntegerValue
366

@<SCITEGIC>MOL_PROPERTY
Conf_Id
SciTegic.value.IntegerValue
20

@<SCITEGIC>MOL_PROPERTY
Delta U+W
SciTegic.value.DoubleValue
-0.483

@<SCITEGIC>MOL_PROPERTY
U+W
SciTegic.value.DoubleValue
2.527

@<SCITEGIC>MOL_PROPERTY
Grad RMS
SciTegic.value.DoubleValue
0.000000

@<SCITEGIC>MOL_PROPERTY
U
SciTegic.value.DoubleValue
4.508

@<SCITEGIC>MOL_PROPERTY
W
SciTegic.value.DoubleValue
-1.981

@<SCITEGIC>MOL_PROPERTY
W(PB)
SciTegic.value.DoubleValue
-3.712

@<SCITEGIC>MOL_PROPERTY
W(SA)
SciTegic.value.DoubleValue
1.732

@<SCITEGIC>MOL_PROPERTY
Valence
SciTegic.value.DoubleValue
14.705

@<SCITEGIC>MOL_PROPERTY
Coulomb
SciTegic.value.DoubleValue
-10.687

@<SCITEGIC>MOL_PROPERTY
VdW
SciTegic.value.DoubleValue
0.490

@<SCITEGIC>MOL_PROPERTY
VdW6
SciTegic.value.DoubleValue
-3.745

@<SCITEGIC>MOL_PROPERTY
VdW12
SciTegic.value.DoubleValue
4.235

@<SCITEGIC>MOL_PROPERTY
Bond
SciTegic.value.DoubleValue
0.068

@<SCITEGIC>MOL_PROPERTY
Angle
SciTegic.value.DoubleValue
3.901

@<SCITEGIC>MOL_PROPERTY
Pdih
SciTegic.value.DoubleValue
10.737

@<SCITEGIC>MOL_PROPERTY
Idih
SciTegic.value.DoubleValue
0.000

@<SCITEGIC>MOL_PROPERTY
Tether
SciTegic.value.DoubleValue
0.000

@<TRIPOS>MOLECULE
guest-4_confgen4.mol2 : confsearch ligand conformer 367
          16          16           1
SMALL
USER_CHARGES
 
@<TRIPOS>ATOM
       1    C1      20.558151   19.093130   21.695258 C.3        1 MOL1        -0.1689
       2    H1      20.974140   18.261413   21.109701 H          1 MOL1         0.0830
       3    H2      21.181915   19.980826   21.523331 H          1 MOL1         0.0830
       4    C2      20.496098   18.698366   23.177162 C.3        1 MOL1        -0.1689
       5    H3      21.378588   18.126370   23.494639 H          1 MOL1         0.0830
       6    H4      20.431094   19.602648   23.798188 H          1 MOL1         0.0830
       7    C3      19.194607   17.885426   23.302877 C.3        1 MOL1        -0.1765
       8    H5      18.760612   17.975822   24.307030 H          1 MOL1         0.0830
       9    H6      19.410822   16.823488   23.123089 H          1 MOL1         0.0830
      10    C4      18.237301   18.426960   22.220294 C.3        1 MOL1         0.1214
      11    H7      17.447420   19.034187   22.686000 H          1 MOL1         0.0787
      12    C5      19.088714   19.321038   21.295331 C.3        1 MOL1        -0.1765
      13    H8      18.920224   19.101266   20.232631 H          1 MOL1         0.0830
      14    H9      18.819181   20.371483   21.465619 H          1 MOL1         0.0830
      15    O1      17.674292   17.350545   21.479862 O.3        1 MOL1        -0.5512
      16    H10     17.156408   16.812566   22.115399 H          1 MOL1         0.3776
@<TRIPOS>BOND
    1     1     2    1
    2     1     3    1
    3     1     4    1
    4     4     5    1
    5     4     6    1
    6     4     7    1
    7     7     8    1
    8     7     9    1
    9     7    10    1
   10    10    11    1
   11     1    12    1
   12    10    12    1
   13    12    13    1
   14    12    14    1
   15    10    15    1
   16    15    16    1
@<TRIPOS>SUBSTRUCTURE
       1 MOL1            1 RESIDUE      1      MOL     
@<SCITEGIC>MOL_PROPERTY
VConf Rank
SciTegic.value.IntegerValue
367

@<SCITEGIC>MOL_PROPERTY
Conf_Id
SciTegic.value.IntegerValue
59

@<SCITEGIC>MOL_PROPERTY
Delta U+W
SciTegic.value.DoubleValue
0.000

@<SCITEGIC>MOL_PROPERTY
U+W
SciTegic.value.DoubleValue
3.010

@<SCITEGIC>MOL_PROPERTY
Grad RMS
SciTegic.value.DoubleValue
0.000000

@<SCITEGIC>MOL_PROPERTY
U
SciTegic.value.DoubleValue
5.843

@<SCITEGIC>MOL_PROPERTY
W
SciTegic.value.DoubleValue
-2.833

@<SCITEGIC>MOL_PROPERTY
W(PB)
SciTegic.value.DoubleValue
-4.568

@<SCITEGIC>MOL_PROPERTY
W(SA)
SciTegic.value.DoubleValue
1.735

@<SCITEGIC>MOL_PROPERTY
Valence
SciTegic.value.DoubleValue
13.789

@<SCITEGIC>MOL_PROPERTY
Coulomb
SciTegic.value.DoubleValue
-8.574

@<SCITEGIC>MOL_PROPERTY
VdW
SciTegic.value.DoubleValue
0.628

@<SCITEGIC>MOL_PROPERTY
VdW6
SciTegic.value.DoubleValue
-3.284

@<SCITEGIC>MOL_PROPERTY
VdW12
SciTegic.value.DoubleValue
3.912

@<SCITEGIC>MOL_PROPERTY
Bond
SciTegic.value.DoubleValue
0.054

@<SCITEGIC>MOL_PROPERTY
Angle
SciTegic.value.DoubleValue
4.034

@<SCITEGIC>MOL_PROPERTY
Pdih
SciTegic.value.DoubleValue
9.702

@<SCITEGIC>MOL_PROPERTY
Idih
SciTegic.value.DoubleValue
0.000

@<SCITEGIC>MOL_PROPERTY
Tether
SciTegic.value.DoubleValue
0.000

@<TRIPOS>MOLECULE
guest-4_confgen4.mol2 : confsearch ligand conformer 368
          16          16           1
SMALL
USER_CHARGES
 
@<TRIPOS>ATOM
       1    C1      19.987975   18.981901   21.013069 C.3        1 MOL1        -0.1689
       2    H1      20.850363   18.750664   20.373088 H          1 MOL1         0.0830
       3    H2      19.288349   19.602376   20.435872 H          1 MOL1         0.0830
       4    C2      20.394193   19.719374   22.296365 C.3        1 MOL1        -0.1689
       5    H3      21.330203   19.294318   22.684812 H          1 MOL1         0.0830
       6    H4      20.546729   20.794700   22.131903 H          1 MOL1         0.0830
       7    C3      19.248548   19.432713   23.284494 C.3        1 MOL1        -0.1765
       8    H5      18.479739   20.210950   23.193031 H          1 MOL1         0.0830
       9    H6      19.601849   19.433100   24.324301 H          1 MOL1         0.0830
      10    C4      18.641853   18.075453   22.872711 C.3        1 MOL1         0.1214
      11    H7      17.552212   18.181381   22.767925 H          1 MOL1         0.0787
      12    C5      19.270809   17.713561   21.510660 C.3        1 MOL1        -0.1765
      13    H8      20.004872   16.905499   21.633006 H          1 MOL1         0.0830
      14    H9      18.512304   17.374218   20.793468 H          1 MOL1         0.0830
      15    O1      18.960419   17.082055   23.839962 O.3        1 MOL1        -0.5512
      16    H10     18.562201   16.243649   23.523691 H          1 MOL1         0.3776
@<TRIPOS>BOND
    1     1     2    1
    2     1     3    1
    3     1     4    1
    4     4     5    1
    5     4     6    1
    6     4     7    1
    7     7     8    1
    8     7     9    1
    9     7    10    1
   10    10    11    1
   11     1    12    1
   12    10    12    1
   13    12    13    1
   14    12    14    1
   15    10    15    1
   16    15    16    1
@<TRIPOS>SUBSTRUCTURE
       1 MOL1            1 RESIDUE      1      MOL     
@<SCITEGIC>MOL_PROPERTY
VConf Rank
SciTegic.value.IntegerValue
368

@<SCITEGIC>MOL_PROPERTY
Conf_Id
SciTegic.value.IntegerValue
33

@<SCITEGIC>MOL_PROPERTY
Delta U+W
SciTegic.value.DoubleValue
0.015

@<SCITEGIC>MOL_PROPERTY
U+W
SciTegic.value.DoubleValue
3.025

@<SCITEGIC>MOL_PROPERTY
Grad RMS
SciTegic.value.DoubleValue
0.000000

@<SCITEGIC>MOL_PROPERTY
U
SciTegic.value.DoubleValue
5.843

@<SCITEGIC>MOL_PROPERTY
W
SciTegic.value.DoubleValue
-2.819

@<SCITEGIC>MOL_PROPERTY
W(PB)
SciTegic.value.DoubleValue
-4.568

@<SCITEGIC>MOL_PROPERTY
W(SA)
SciTegic.value.DoubleValue
1.750

@<SCITEGIC>MOL_PROPERTY
Valence
SciTegic.value.DoubleValue
13.789

@<SCITEGIC>MOL_PROPERTY
Coulomb
SciTegic.value.DoubleValue
-8.574

@<SCITEGIC>MOL_PROPERTY
VdW
SciTegic.value.DoubleValue
0.628

@<SCITEGIC>MOL_PROPERTY
VdW6
SciTegic.value.DoubleValue
-3.284

@<SCITEGIC>MOL_PROPERTY
VdW12
SciTegic.value.DoubleValue
3.913

@<SCITEGIC>MOL_PROPERTY
Bond
SciTegic.value.DoubleValue
0.054

@<SCITEGIC>MOL_PROPERTY
Angle
SciTegic.value.DoubleValue
4.033

@<SCITEGIC>MOL_PROPERTY
Pdih
SciTegic.value.DoubleValue
9.702

@<SCITEGIC>MOL_PROPERTY
Idih
SciTegic.value.DoubleValue
0.000

@<SCITEGIC>MOL_PROPERTY
Tether
SciTegic.value.DoubleValue
0.000

@<TRIPOS>MOLECULE
guest-4_confgen4.mol2 : confsearch ligand conformer 369
          16          16           1
SMALL
USER_CHARGES
 
@<TRIPOS>ATOM
       1    C1      19.409269   19.234180   21.077153 C.3        1 MOL1        -0.1689
       2    H1      18.864338   18.714723   20.276877 H          1 MOL1         0.0830
       3    H2      19.820856   20.160418   20.653271 H          1 MOL1         0.0830
       4    C2      20.523010   18.320155   21.633175 C.3        1 MOL1        -0.1689
       5    H3      20.517786   17.358752   21.101289 H          1 MOL1         0.0830
       6    H4      21.517151   18.768741   21.501061 H          1 MOL1         0.0830
       7    C3      20.206129   18.104063   23.128276 C.3        1 MOL1        -0.1765
       8    H5      20.802108   18.799563   23.733841 H          1 MOL1         0.0830
       9    H6      20.442585   17.084477   23.460748 H          1 MOL1         0.0830
      10    C4      18.719058   18.441499   23.300752 C.3        1 MOL1         0.1214
      11    H7      18.499394   18.793016   24.319166 H          1 MOL1         0.0787
      12    C5      18.461885   19.537086   22.257436 C.3        1 MOL1        -0.1765
      13    H8      17.409320   19.576812   21.946738 H          1 MOL1         0.0830
      14    H9      18.718633   20.511689   22.693155 H          1 MOL1         0.0830
      15    O1      17.939832   17.298299   22.980275 O.3        1 MOL1        -0.5512
      16    H10     18.200399   17.060291   22.066700 H          1 MOL1         0.3776
@<TRIPOS>BOND
    1     1     2    1
    2     1     3    1
    3     1     4    1
    4     4     5    1
    5     4     6    1
    6     4     7    1
    7     7     8    1
    8     7     9    1
    9     7    10    1
   10    10    11    1
   11     1    12    1
   12    10    12    1
   13    12    13    1
   14    12    14    1
   15    10    15    1
   16    15    16    1
@<TRIPOS>SUBSTRUCTURE
       1 MOL1            1 RESIDUE      1      MOL     
@<SCITEGIC>MOL_PROPERTY
VConf Rank
SciTegic.value.IntegerValue
369

@<SCITEGIC>MOL_PROPERTY
Conf_Id
SciTegic.value.IntegerValue
20

@<SCITEGIC>MOL_PROPERTY
Delta U+W
SciTegic.value.DoubleValue
-0.483

@<SCITEGIC>MOL_PROPERTY
U+W
SciTegic.value.DoubleValue
2.527

@<SCITEGIC>MOL_PROPERTY
Grad RMS
SciTegic.value.DoubleValue
0.000000

@<SCITEGIC>MOL_PROPERTY
U
SciTegic.value.DoubleValue
4.508

@<SCITEGIC>MOL_PROPERTY
W
SciTegic.value.DoubleValue
-1.981

@<SCITEGIC>MOL_PROPERTY
W(PB)
SciTegic.value.DoubleValue
-3.712

@<SCITEGIC>MOL_PROPERTY
W(SA)
SciTegic.value.DoubleValue
1.732

@<SCITEGIC>MOL_PROPERTY
Valence
SciTegic.value.DoubleValue
14.705

@<SCITEGIC>MOL_PROPERTY
Coulomb
SciTegic.value.DoubleValue
-10.687

@<SCITEGIC>MOL_PROPERTY
VdW
SciTegic.value.DoubleValue
0.490

@<SCITEGIC>MOL_PROPERTY
VdW6
SciTegic.value.DoubleValue
-3.745

@<SCITEGIC>MOL_PROPERTY
VdW12
SciTegic.value.DoubleValue
4.235

@<SCITEGIC>MOL_PROPERTY
Bond
SciTegic.value.DoubleValue
0.068

@<SCITEGIC>MOL_PROPERTY
Angle
SciTegic.value.DoubleValue
3.901

@<SCITEGIC>MOL_PROPERTY
Pdih
SciTegic.value.DoubleValue
10.737

@<SCITEGIC>MOL_PROPERTY
Idih
SciTegic.value.DoubleValue
0.000

@<SCITEGIC>MOL_PROPERTY
Tether
SciTegic.value.DoubleValue
0.000

@<TRIPOS>MOLECULE
guest-4_confgen4.mol2 : confsearch ligand conformer 370
          16          16           1
SMALL
USER_CHARGES
 
@<TRIPOS>ATOM
       1    C1      20.230243   17.651105   21.580881 C.3        1 MOL1        -0.1689
       2    H1      20.995810   17.343393   22.306758 H          1 MOL1         0.0830
       3    H2      20.410738   17.111959   20.640994 H          1 MOL1         0.0830
       4    C2      20.275198   19.174662   21.400657 C.3        1 MOL1        -0.1689
       5    H3      21.302390   19.563838   21.387312 H          1 MOL1         0.0830
       6    H4      19.791406   19.449219   20.452929 H          1 MOL1         0.0830
       7    C3      19.455607   19.724558   22.582368 C.3        1 MOL1        -0.1765
       8    H5      18.977619   20.679648   22.329039 H          1 MOL1         0.0830
       9    H6      20.122713   19.897544   23.437838 H          1 MOL1         0.0830
      10    C4      18.411650   18.642018   22.928695 C.3        1 MOL1         0.1214
      11    H7      17.414240   18.959314   22.591034 H          1 MOL1         0.0787
      12    C5      18.830330   17.372558   22.158622 C.3        1 MOL1        -0.1765
      13    H8      18.826626   16.478214   22.795928 H          1 MOL1         0.0830
      14    H9      18.120824   17.200939   21.338727 H          1 MOL1         0.0830
      15    O1      18.412467   18.389249   24.328693 O.3        1 MOL1        -0.5512
      16    H10     18.151702   19.227315   24.765936 H          1 MOL1         0.3776
@<TRIPOS>BOND
    1     1     2    1
    2     1     3    1
    3     1     4    1
    4     4     5    1
    5     4     6    1
    6     4     7    1
    7     7     8    1
    8     7     9    1
    9     7    10    1
   10    10    11    1
   11     1    12    1
   12    10    12    1
   13    12    13    1
   14    12    14    1
   15    10    15    1
   16    15    16    1
@<TRIPOS>SUBSTRUCTURE
       1 MOL1            1 RESIDUE      1      MOL     
@<SCITEGIC>MOL_PROPERTY
VConf Rank
SciTegic.value.IntegerValue
370

@<SCITEGIC>MOL_PROPERTY
Conf_Id
SciTegic.value.IntegerValue
59

@<SCITEGIC>MOL_PROPERTY
Delta U+W
SciTegic.value.DoubleValue
0.000

@<SCITEGIC>MOL_PROPERTY
U+W
SciTegic.value.DoubleValue
3.010

@<SCITEGIC>MOL_PROPERTY
Grad RMS
SciTegic.value.DoubleValue
0.000000

@<SCITEGIC>MOL_PROPERTY
U
SciTegic.value.DoubleValue
5.843

@<SCITEGIC>MOL_PROPERTY
W
SciTegic.value.DoubleValue
-2.833

@<SCITEGIC>MOL_PROPERTY
W(PB)
SciTegic.value.DoubleValue
-4.568

@<SCITEGIC>MOL_PROPERTY
W(SA)
SciTegic.value.DoubleValue
1.735

@<SCITEGIC>MOL_PROPERTY
Valence
SciTegic.value.DoubleValue
13.789

@<SCITEGIC>MOL_PROPERTY
Coulomb
SciTegic.value.DoubleValue
-8.574

@<SCITEGIC>MOL_PROPERTY
VdW
SciTegic.value.DoubleValue
0.628

@<SCITEGIC>MOL_PROPERTY
VdW6
SciTegic.value.DoubleValue
-3.284

@<SCITEGIC>MOL_PROPERTY
VdW12
SciTegic.value.DoubleValue
3.912

@<SCITEGIC>MOL_PROPERTY
Bond
SciTegic.value.DoubleValue
0.054

@<SCITEGIC>MOL_PROPERTY
Angle
SciTegic.value.DoubleValue
4.034

@<SCITEGIC>MOL_PROPERTY
Pdih
SciTegic.value.DoubleValue
9.702

@<SCITEGIC>MOL_PROPERTY
Idih
SciTegic.value.DoubleValue
0.000

@<SCITEGIC>MOL_PROPERTY
Tether
SciTegic.value.DoubleValue
0.000

@<TRIPOS>MOLECULE
guest-4_confgen4.mol2 : confsearch ligand conformer 371
          16          16           1
SMALL
USER_CHARGES
 
@<TRIPOS>ATOM
       1    C1      18.456904   17.694517   22.769931 C.3        1 MOL1        -0.1689
       2    H1      18.346107   16.905617   23.526317 H          1 MOL1         0.0830
       3    H2      17.467912   17.894397   22.334541 H          1 MOL1         0.0830
       4    C2      19.440859   17.303965   21.658612 C.3        1 MOL1        -0.1689
       5    H3      20.296239   16.769660   22.095101 H          1 MOL1         0.0830
       6    H4      18.981219   16.656103   20.899896 H          1 MOL1         0.0830
       7    C3      19.915525   18.647400   21.074704 C.3        1 MOL1        -0.1765
       8    H5      19.252422   18.946669   20.252623 H          1 MOL1         0.0830
       9    H6      20.934782   18.575767   20.672206 H          1 MOL1         0.0830
      10    C4      19.806512   19.684231   22.211760 C.3        1 MOL1         0.1214
      11    H7      19.242087   20.557722   21.854051 H          1 MOL1         0.0787
      12    C5      19.039056   18.992780   23.358338 C.3        1 MOL1        -0.1765
      13    H8      19.724839   18.743866   24.179633 H          1 MOL1         0.0830
      14    H9      18.249459   19.639230   23.762671 H          1 MOL1         0.0830
      15    O1      21.103848   20.068584   22.651181 O.3        1 MOL1        -0.5512
      16    H10     20.974847   20.715404   23.376793 H          1 MOL1         0.3776
@<TRIPOS>BOND
    1     1     2    1
    2     1     3    1
    3     1     4    1
    4     4     5    1
    5     4     6    1
    6     4     7    1
    7     7     8    1
    8     7     9    1
    9     7    10    1
   10    10    11    1
   11     1    12    1
   12    10    12    1
   13    12    13    1
   14    12    14    1
   15    10    15    1
   16    15    16    1
@<TRIPOS>SUBSTRUCTURE
       1 MOL1            1 RESIDUE      1      MOL     
@<SCITEGIC>MOL_PROPERTY
VConf Rank
SciTegic.value.IntegerValue
371

@<SCITEGIC>MOL_PROPERTY
Conf_Id
SciTegic.value.IntegerValue
33

@<SCITEGIC>MOL_PROPERTY
Delta U+W
SciTegic.value.DoubleValue
0.015

@<SCITEGIC>MOL_PROPERTY
U+W
SciTegic.value.DoubleValue
3.025

@<SCITEGIC>MOL_PROPERTY
Grad RMS
SciTegic.value.DoubleValue
0.000000

@<SCITEGIC>MOL_PROPERTY
U
SciTegic.value.DoubleValue
5.843

@<SCITEGIC>MOL_PROPERTY
W
SciTegic.value.DoubleValue
-2.819

@<SCITEGIC>MOL_PROPERTY
W(PB)
SciTegic.value.DoubleValue
-4.568

@<SCITEGIC>MOL_PROPERTY
W(SA)
SciTegic.value.DoubleValue
1.750

@<SCITEGIC>MOL_PROPERTY
Valence
SciTegic.value.DoubleValue
13.789

@<SCITEGIC>MOL_PROPERTY
Coulomb
SciTegic.value.DoubleValue
-8.574

@<SCITEGIC>MOL_PROPERTY
VdW
SciTegic.value.DoubleValue
0.628

@<SCITEGIC>MOL_PROPERTY
VdW6
SciTegic.value.DoubleValue
-3.284

@<SCITEGIC>MOL_PROPERTY
VdW12
SciTegic.value.DoubleValue
3.913

@<SCITEGIC>MOL_PROPERTY
Bond
SciTegic.value.DoubleValue
0.054

@<SCITEGIC>MOL_PROPERTY
Angle
SciTegic.value.DoubleValue
4.033

@<SCITEGIC>MOL_PROPERTY
Pdih
SciTegic.value.DoubleValue
9.702

@<SCITEGIC>MOL_PROPERTY
Idih
SciTegic.value.DoubleValue
0.000

@<SCITEGIC>MOL_PROPERTY
Tether
SciTegic.value.DoubleValue
0.000

@<TRIPOS>MOLECULE
guest-4_confgen4.mol2 : confsearch ligand conformer 372
          16          16           1
SMALL
USER_CHARGES
 
@<TRIPOS>ATOM
       1    C1      20.532285   17.950481   22.124538 C.3        1 MOL1        -0.1689
       2    H1      20.466672   17.045584   21.504794 H          1 MOL1         0.0830
       3    H2      21.576269   18.056690   22.449830 H          1 MOL1         0.0830
       4    C2      19.571575   17.833630   23.328034 C.3        1 MOL1        -0.1689
       5    H3      19.041795   16.871750   23.291329 H          1 MOL1         0.0830
       6    H4      20.112923   17.879739   24.282925 H          1 MOL1         0.0830
       7    C3      18.568452   18.999962   23.202131 C.3        1 MOL1        -0.1765
       8    H5      18.890347   19.831467   23.842914 H          1 MOL1         0.0830
       9    H6      17.554833   18.712468   23.511854 H          1 MOL1         0.0830
      10    C4      18.622424   19.450739   21.736225 C.3        1 MOL1         0.1214
      11    H7      18.359342   20.513003   21.629617 H          1 MOL1         0.0787
      12    C5      20.074371   19.183760   21.317262 C.3        1 MOL1        -0.1765
      13    H8      20.173683   19.032580   20.234079 H          1 MOL1         0.0830
      14    H9      20.689738   20.050823   21.591393 H          1 MOL1         0.0830
      15    O1      17.754943   18.633933   20.963495 O.3        1 MOL1        -0.5512
      16    H10     18.062101   17.717156   21.119494 H          1 MOL1         0.3776
@<TRIPOS>BOND
    1     1     2    1
    2     1     3    1
    3     1     4    1
    4     4     5    1
    5     4     6    1
    6     4     7    1
    7     7     8    1
    8     7     9    1
    9     7    10    1
   10    10    11    1
   11     1    12    1
   12    10    12    1
   13    12    13    1
   14    12    14    1
   15    10    15    1
   16    15    16    1
@<TRIPOS>SUBSTRUCTURE
       1 MOL1            1 RESIDUE      1      MOL     
@<SCITEGIC>MOL_PROPERTY
VConf Rank
SciTegic.value.IntegerValue
372

@<SCITEGIC>MOL_PROPERTY
Conf_Id
SciTegic.value.IntegerValue
20

@<SCITEGIC>MOL_PROPERTY
Delta U+W
SciTegic.value.DoubleValue
-0.483

@<SCITEGIC>MOL_PROPERTY
U+W
SciTegic.value.DoubleValue
2.527

@<SCITEGIC>MOL_PROPERTY
Grad RMS
SciTegic.value.DoubleValue
0.000000

@<SCITEGIC>MOL_PROPERTY
U
SciTegic.value.DoubleValue
4.508

@<SCITEGIC>MOL_PROPERTY
W
SciTegic.value.DoubleValue
-1.981

@<SCITEGIC>MOL_PROPERTY
W(PB)
SciTegic.value.DoubleValue
-3.712

@<SCITEGIC>MOL_PROPERTY
W(SA)
SciTegic.value.DoubleValue
1.732

@<SCITEGIC>MOL_PROPERTY
Valence
SciTegic.value.DoubleValue
14.705

@<SCITEGIC>MOL_PROPERTY
Coulomb
SciTegic.value.DoubleValue
-10.687

@<SCITEGIC>MOL_PROPERTY
VdW
SciTegic.value.DoubleValue
0.490

@<SCITEGIC>MOL_PROPERTY
VdW6
SciTegic.value.DoubleValue
-3.745

@<SCITEGIC>MOL_PROPERTY
VdW12
SciTegic.value.DoubleValue
4.235

@<SCITEGIC>MOL_PROPERTY
Bond
SciTegic.value.DoubleValue
0.068

@<SCITEGIC>MOL_PROPERTY
Angle
SciTegic.value.DoubleValue
3.901

@<SCITEGIC>MOL_PROPERTY
Pdih
SciTegic.value.DoubleValue
10.737

@<SCITEGIC>MOL_PROPERTY
Idih
SciTegic.value.DoubleValue
0.000

@<SCITEGIC>MOL_PROPERTY
Tether
SciTegic.value.DoubleValue
0.000

@<TRIPOS>MOLECULE
guest-4_confgen4.mol2 : confsearch ligand conformer 373
          16          16           1
SMALL
USER_CHARGES
 
@<TRIPOS>ATOM
       1    C1      19.290842   19.298741   23.561025 C.3        1 MOL1        -0.1689
       2    H1      18.970694   18.564693   24.313591 H          1 MOL1         0.0830
       3    H2      19.476636   20.254427   24.069738 H          1 MOL1         0.0830
       4    C2      18.219806   19.415096   22.467832 C.3        1 MOL1        -0.1689
       5    H3      17.200521   19.383419   22.876260 H          1 MOL1         0.0830
       6    H4      18.344272   20.364102   21.927905 H          1 MOL1         0.0830
       7    C3      18.508691   18.235533   21.521399 C.3        1 MOL1        -0.1765
       8    H5      18.202869   18.462977   20.492036 H          1 MOL1         0.0830
       9    H6      17.942546   17.355161   21.854878 H          1 MOL1         0.0830
      10    C4      20.024863   17.963501   21.615739 C.3        1 MOL1         0.1214
      11    H7      20.527954   18.315982   20.703503 H          1 MOL1         0.0787
      12    C5      20.537011   18.772740   22.825148 C.3        1 MOL1        -0.1765
      13    H8      21.174829   18.172943   23.488061 H          1 MOL1         0.0830
      14    H9      21.135154   19.618726   22.462362 H          1 MOL1         0.0830
      15    O1      20.262971   16.575562   21.817779 O.3        1 MOL1        -0.5512
      16    H10     19.909906   16.111932   21.029156 H          1 MOL1         0.3776
@<TRIPOS>BOND
    1     1     2    1
    2     1     3    1
    3     1     4    1
    4     4     5    1
    5     4     6    1
    6     4     7    1
    7     7     8    1
    8     7     9    1
    9     7    10    1
   10    10    11    1
   11     1    12    1
   12    10    12    1
   13    12    13    1
   14    12    14    1
   15    10    15    1
   16    15    16    1
@<TRIPOS>SUBSTRUCTURE
       1 MOL1            1 RESIDUE      1      MOL     
@<SCITEGIC>MOL_PROPERTY
VConf Rank
SciTegic.value.IntegerValue
373

@<SCITEGIC>MOL_PROPERTY
Conf_Id
SciTegic.value.IntegerValue
59

@<SCITEGIC>MOL_PROPERTY
Delta U+W
SciTegic.value.DoubleValue
0.000

@<SCITEGIC>MOL_PROPERTY
U+W
SciTegic.value.DoubleValue
3.010

@<SCITEGIC>MOL_PROPERTY
Grad RMS
SciTegic.value.DoubleValue
0.000000

@<SCITEGIC>MOL_PROPERTY
U
SciTegic.value.DoubleValue
5.843

@<SCITEGIC>MOL_PROPERTY
W
SciTegic.value.DoubleValue
-2.833

@<SCITEGIC>MOL_PROPERTY
W(PB)
SciTegic.value.DoubleValue
-4.568

@<SCITEGIC>MOL_PROPERTY
W(SA)
SciTegic.value.DoubleValue
1.735

@<SCITEGIC>MOL_PROPERTY
Valence
SciTegic.value.DoubleValue
13.789

@<SCITEGIC>MOL_PROPERTY
Coulomb
SciTegic.value.DoubleValue
-8.574

@<SCITEGIC>MOL_PROPERTY
VdW
SciTegic.value.DoubleValue
0.628

@<SCITEGIC>MOL_PROPERTY
VdW6
SciTegic.value.DoubleValue
-3.284

@<SCITEGIC>MOL_PROPERTY
VdW12
SciTegic.value.DoubleValue
3.912

@<SCITEGIC>MOL_PROPERTY
Bond
SciTegic.value.DoubleValue
0.054

@<SCITEGIC>MOL_PROPERTY
Angle
SciTegic.value.DoubleValue
4.034

@<SCITEGIC>MOL_PROPERTY
Pdih
SciTegic.value.DoubleValue
9.702

@<SCITEGIC>MOL_PROPERTY
Idih
SciTegic.value.DoubleValue
0.000

@<SCITEGIC>MOL_PROPERTY
Tether
SciTegic.value.DoubleValue
0.000

@<TRIPOS>MOLECULE
guest-4_confgen4.mol2 : confsearch ligand conformer 374
          16          16           1
SMALL
USER_CHARGES
 
@<TRIPOS>ATOM
       1    C1      20.473471   17.828988   21.656993 C.3        1 MOL1        -0.1689
       2    H1      20.679499   17.359589   20.685409 H          1 MOL1         0.0830
       3    H2      21.379091   17.752015   22.274690 H          1 MOL1         0.0830
       4    C2      19.294121   17.170093   22.385498 C.3        1 MOL1        -0.1689
       5    H3      18.505241   16.923472   21.661256 H          1 MOL1         0.0830
       6    H4      19.584868   16.247092   22.905283 H          1 MOL1         0.0830
       7    C3      18.784982   18.254122   23.353349 C.3        1 MOL1        -0.1765
       8    H5      19.306920   18.164109   24.314891 H          1 MOL1         0.0830
       9    H6      17.708923   18.150463   23.546664 H          1 MOL1         0.0830
      10    C4      19.136968   19.613834   22.715314 C.3        1 MOL1         0.1214
      11    H7      19.668511   20.234001   23.451775 H          1 MOL1         0.0787
      12    C5      20.061397   19.306018   21.518479 C.3        1 MOL1        -0.1765
      13    H8      19.519255   19.444803   20.573173 H          1 MOL1         0.0830
      14    H9      20.937449   19.967225   21.504881 H          1 MOL1         0.0830
      15    O1      17.954749   20.266216   22.267373 O.3        1 MOL1        -0.5512
      16    H10     18.237169   21.113871   21.863331 H          1 MOL1         0.3776
@<TRIPOS>BOND
    1     1     2    1
    2     1     3    1
    3     1     4    1
    4     4     5    1
    5     4     6    1
    6     4     7    1
    7     7     8    1
    8     7     9    1
    9     7    10    1
   10    10    11    1
   11     1    12    1
   12    10    12    1
   13    12    13    1
   14    12    14    1
   15    10    15    1
   16    15    16    1
@<TRIPOS>SUBSTRUCTURE
       1 MOL1            1 RESIDUE      1      MOL     
@<SCITEGIC>MOL_PROPERTY
VConf Rank
SciTegic.value.IntegerValue
374

@<SCITEGIC>MOL_PROPERTY
Conf_Id
SciTegic.value.IntegerValue
33

@<SCITEGIC>MOL_PROPERTY
Delta U+W
SciTegic.value.DoubleValue
0.015

@<SCITEGIC>MOL_PROPERTY
U+W
SciTegic.value.DoubleValue
3.025

@<SCITEGIC>MOL_PROPERTY
Grad RMS
SciTegic.value.DoubleValue
0.000000

@<SCITEGIC>MOL_PROPERTY
U
SciTegic.value.DoubleValue
5.843

@<SCITEGIC>MOL_PROPERTY
W
SciTegic.value.DoubleValue
-2.819

@<SCITEGIC>MOL_PROPERTY
W(PB)
SciTegic.value.DoubleValue
-4.568

@<SCITEGIC>MOL_PROPERTY
W(SA)
SciTegic.value.DoubleValue
1.750

@<SCITEGIC>MOL_PROPERTY
Valence
SciTegic.value.DoubleValue
13.789

@<SCITEGIC>MOL_PROPERTY
Coulomb
SciTegic.value.DoubleValue
-8.574

@<SCITEGIC>MOL_PROPERTY
VdW
SciTegic.value.DoubleValue
0.628

@<SCITEGIC>MOL_PROPERTY
VdW6
SciTegic.value.DoubleValue
-3.284

@<SCITEGIC>MOL_PROPERTY
VdW12
SciTegic.value.DoubleValue
3.913

@<SCITEGIC>MOL_PROPERTY
Bond
SciTegic.value.DoubleValue
0.054

@<SCITEGIC>MOL_PROPERTY
Angle
SciTegic.value.DoubleValue
4.033

@<SCITEGIC>MOL_PROPERTY
Pdih
SciTegic.value.DoubleValue
9.702

@<SCITEGIC>MOL_PROPERTY
Idih
SciTegic.value.DoubleValue
0.000

@<SCITEGIC>MOL_PROPERTY
Tether
SciTegic.value.DoubleValue
0.000

@<TRIPOS>MOLECULE
guest-4_confgen4.mol2 : confsearch ligand conformer 375
          16          16           1
SMALL
USER_CHARGES
 
@<TRIPOS>ATOM
       1    C1      18.248613   19.057857   22.813585 C.3        1 MOL1        -0.1689
       2    H1      17.781142   18.354942   23.516870 H          1 MOL1         0.0830
       3    H2      17.629830   19.965314   22.788555 H          1 MOL1         0.0830
       4    C2      18.359893   18.407705   21.417182 C.3        1 MOL1        -0.1689
       5    H3      17.945322   17.390544   21.444388 H          1 MOL1         0.0830
       6    H4      17.800135   18.975654   20.661468 H          1 MOL1         0.0830
       7    C3      19.864198   18.361357   21.074612 C.3        1 MOL1        -0.1765
       8    H5      20.121467   19.216506   20.435743 H          1 MOL1         0.0830
       9    H6      20.140083   17.445840   20.534500 H          1 MOL1         0.0830
      10    C4      20.608598   18.495161   22.409886 C.3        1 MOL1         0.1214
      11    H7      21.600207   18.951095   22.276402 H          1 MOL1         0.0787
      12    C5      19.689771   19.381086   23.261855 C.3        1 MOL1        -0.1765
      13    H8      19.837089   19.219501   24.338048 H          1 MOL1         0.0830
      14    H9      19.912652   20.434881   23.048640 H          1 MOL1         0.0830
      15    O1      20.716877   17.215105   23.015310 O.3        1 MOL1        -0.5512
      16    H10     19.795876   16.891215   23.092871 H          1 MOL1         0.3776
@<TRIPOS>BOND
    1     1     2    1
    2     1     3    1
    3     1     4    1
    4     4     5    1
    5     4     6    1
    6     4     7    1
    7     7     8    1
    8     7     9    1
    9     7    10    1
   10    10    11    1
   11     1    12    1
   12    10    12    1
   13    12    13    1
   14    12    14    1
   15    10    15    1
   16    15    16    1
@<TRIPOS>SUBSTRUCTURE
       1 MOL1            1 RESIDUE      1      MOL     
@<SCITEGIC>MOL_PROPERTY
VConf Rank
SciTegic.value.IntegerValue
375

@<SCITEGIC>MOL_PROPERTY
Conf_Id
SciTegic.value.IntegerValue
20

@<SCITEGIC>MOL_PROPERTY
Delta U+W
SciTegic.value.DoubleValue
-0.483

@<SCITEGIC>MOL_PROPERTY
U+W
SciTegic.value.DoubleValue
2.527

@<SCITEGIC>MOL_PROPERTY
Grad RMS
SciTegic.value.DoubleValue
0.000000

@<SCITEGIC>MOL_PROPERTY
U
SciTegic.value.DoubleValue
4.508

@<SCITEGIC>MOL_PROPERTY
W
SciTegic.value.DoubleValue
-1.981

@<SCITEGIC>MOL_PROPERTY
W(PB)
SciTegic.value.DoubleValue
-3.712

@<SCITEGIC>MOL_PROPERTY
W(SA)
SciTegic.value.DoubleValue
1.732

@<SCITEGIC>MOL_PROPERTY
Valence
SciTegic.value.DoubleValue
14.705

@<SCITEGIC>MOL_PROPERTY
Coulomb
SciTegic.value.DoubleValue
-10.687

@<SCITEGIC>MOL_PROPERTY
VdW
SciTegic.value.DoubleValue
0.490

@<SCITEGIC>MOL_PROPERTY
VdW6
SciTegic.value.DoubleValue
-3.745

@<SCITEGIC>MOL_PROPERTY
VdW12
SciTegic.value.DoubleValue
4.235

@<SCITEGIC>MOL_PROPERTY
Bond
SciTegic.value.DoubleValue
0.068

@<SCITEGIC>MOL_PROPERTY
Angle
SciTegic.value.DoubleValue
3.901

@<SCITEGIC>MOL_PROPERTY
Pdih
SciTegic.value.DoubleValue
10.737

@<SCITEGIC>MOL_PROPERTY
Idih
SciTegic.value.DoubleValue
0.000

@<SCITEGIC>MOL_PROPERTY
Tether
SciTegic.value.DoubleValue
0.000

@<TRIPOS>MOLECULE
guest-4_confgen4.mol2 : confsearch ligand conformer 376
          16          16           1
SMALL
USER_CHARGES
 
@<TRIPOS>ATOM
       1    C1      20.036387   17.532542   21.533083 C.3        1 MOL1        -0.1689
       2    H1      21.023896   17.424385   22.002982 H          1 MOL1         0.0830
       3    H2      19.958887   16.796150   20.721687 H          1 MOL1         0.0830
       4    C2      19.858491   18.973641   21.035779 C.3        1 MOL1        -0.1689
       5    H3      20.778517   19.379870   20.593864 H          1 MOL1         0.0830
       6    H4      19.067542   19.006679   20.273588 H          1 MOL1         0.0830
       7    C3      19.412356   19.757243   22.283773 C.3        1 MOL1        -0.1765
       8    H5      18.779521   20.612930   22.015137 H          1 MOL1         0.0830
       9    H6      20.298234   20.143542   22.806054 H          1 MOL1         0.0830
      10    C4      18.658051   18.753381   23.180971 C.3        1 MOL1         0.1214
      11    H7      17.577311   18.953750   23.143924 H          1 MOL1         0.0787
      12    C5      18.937026   17.353324   22.596294 C.3        1 MOL1        -0.1765
      13    H8      19.234939   16.631103   23.368088 H          1 MOL1         0.0830
      14    H9      18.022665   16.975314   22.120758 H          1 MOL1         0.0830
      15    O1      19.139128   18.831698   24.517504 O.3        1 MOL1        -0.5512
      16    H10     18.946614   19.739982   24.832924 H          1 MOL1         0.3776
@<TRIPOS>BOND
    1     1     2    1
    2     1     3    1
    3     1     4    1
    4     4     5    1
    5     4     6    1
    6     4     7    1
    7     7     8    1
    8     7     9    1
    9     7    10    1
   10    10    11    1
   11     1    12    1
   12    10    12    1
   13    12    13    1
   14    12    14    1
   15    10    15    1
   16    15    16    1
@<TRIPOS>SUBSTRUCTURE
       1 MOL1            1 RESIDUE      1      MOL     
@<SCITEGIC>MOL_PROPERTY
VConf Rank
SciTegic.value.IntegerValue
376

@<SCITEGIC>MOL_PROPERTY
Conf_Id
SciTegic.value.IntegerValue
59

@<SCITEGIC>MOL_PROPERTY
Delta U+W
SciTegic.value.DoubleValue
0.000

@<SCITEGIC>MOL_PROPERTY
U+W
SciTegic.value.DoubleValue
3.010

@<SCITEGIC>MOL_PROPERTY
Grad RMS
SciTegic.value.DoubleValue
0.000000

@<SCITEGIC>MOL_PROPERTY
U
SciTegic.value.DoubleValue
5.843

@<SCITEGIC>MOL_PROPERTY
W
SciTegic.value.DoubleValue
-2.833

@<SCITEGIC>MOL_PROPERTY
W(PB)
SciTegic.value.DoubleValue
-4.568

@<SCITEGIC>MOL_PROPERTY
W(SA)
SciTegic.value.DoubleValue
1.735

@<SCITEGIC>MOL_PROPERTY
Valence
SciTegic.value.DoubleValue
13.789

@<SCITEGIC>MOL_PROPERTY
Coulomb
SciTegic.value.DoubleValue
-8.574

@<SCITEGIC>MOL_PROPERTY
VdW
SciTegic.value.DoubleValue
0.628

@<SCITEGIC>MOL_PROPERTY
VdW6
SciTegic.value.DoubleValue
-3.284

@<SCITEGIC>MOL_PROPERTY
VdW12
SciTegic.value.DoubleValue
3.912

@<SCITEGIC>MOL_PROPERTY
Bond
SciTegic.value.DoubleValue
0.054

@<SCITEGIC>MOL_PROPERTY
Angle
SciTegic.value.DoubleValue
4.034

@<SCITEGIC>MOL_PROPERTY
Pdih
SciTegic.value.DoubleValue
9.702

@<SCITEGIC>MOL_PROPERTY
Idih
SciTegic.value.DoubleValue
0.000

@<SCITEGIC>MOL_PROPERTY
Tether
SciTegic.value.DoubleValue
0.000

@<TRIPOS>MOLECULE
guest-4_confgen4.mol2 : confsearch ligand conformer 377
          16          16           1
SMALL
USER_CHARGES
 
@<TRIPOS>ATOM
       1    C1      18.847082   18.238413   21.045468 C.3        1 MOL1        -0.1689
       2    H1      19.072033   18.262194   19.970485 H          1 MOL1         0.0830
       3    H2      17.927274   17.655025   21.191187 H          1 MOL1         0.0830
       4    C2      18.666016   19.643725   21.635418 C.3        1 MOL1        -0.1689
       5    H3      19.405533   20.326455   21.194200 H          1 MOL1         0.0830
       6    H4      17.664189   20.052441   21.445848 H          1 MOL1         0.0830
       7    C3      18.955603   19.471046   23.137882 C.3        1 MOL1        -0.1765
       8    H5      18.024343   19.231404   23.667422 H          1 MOL1         0.0830
       9    H6      19.363543   20.390164   23.579272 H          1 MOL1         0.0830
      10    C4      19.927128   18.279441   23.264427 C.3        1 MOL1         0.1214
      11    H7      19.531186   17.564435   24.000303 H          1 MOL1         0.0787
      12    C5      19.991521   17.621202   21.870041 C.3        1 MOL1        -0.1765
      13    H8      20.951265   17.847911   21.386020 H          1 MOL1         0.0830
      14    H9      19.895990   16.529610   21.934432 H          1 MOL1         0.0830
      15    O1      21.217340   18.737378   23.651139 O.3        1 MOL1        -0.5512
      16    H10     21.792572   17.945067   23.704813 H          1 MOL1         0.3776
@<TRIPOS>BOND
    1     1     2    1
    2     1     3    1
    3     1     4    1
    4     4     5    1
    5     4     6    1
    6     4     7    1
    7     7     8    1
    8     7     9    1
    9     7    10    1
   10    10    11    1
   11     1    12    1
   12    10    12    1
   13    12    13    1
   14    12    14    1
   15    10    15    1
   16    15    16    1
@<TRIPOS>SUBSTRUCTURE
       1 MOL1            1 RESIDUE      1      MOL     
@<SCITEGIC>MOL_PROPERTY
VConf Rank
SciTegic.value.IntegerValue
377

@<SCITEGIC>MOL_PROPERTY
Conf_Id
SciTegic.value.IntegerValue
33

@<SCITEGIC>MOL_PROPERTY
Delta U+W
SciTegic.value.DoubleValue
0.015

@<SCITEGIC>MOL_PROPERTY
U+W
SciTegic.value.DoubleValue
3.025

@<SCITEGIC>MOL_PROPERTY
Grad RMS
SciTegic.value.DoubleValue
0.000000

@<SCITEGIC>MOL_PROPERTY
U
SciTegic.value.DoubleValue
5.843

@<SCITEGIC>MOL_PROPERTY
W
SciTegic.value.DoubleValue
-2.819

@<SCITEGIC>MOL_PROPERTY
W(PB)
SciTegic.value.DoubleValue
-4.568

@<SCITEGIC>MOL_PROPERTY
W(SA)
SciTegic.value.DoubleValue
1.750

@<SCITEGIC>MOL_PROPERTY
Valence
SciTegic.value.DoubleValue
13.789

@<SCITEGIC>MOL_PROPERTY
Coulomb
SciTegic.value.DoubleValue
-8.574

@<SCITEGIC>MOL_PROPERTY
VdW
SciTegic.value.DoubleValue
0.628

@<SCITEGIC>MOL_PROPERTY
VdW6
SciTegic.value.DoubleValue
-3.284

@<SCITEGIC>MOL_PROPERTY
VdW12
SciTegic.value.DoubleValue
3.913

@<SCITEGIC>MOL_PROPERTY
Bond
SciTegic.value.DoubleValue
0.054

@<SCITEGIC>MOL_PROPERTY
Angle
SciTegic.value.DoubleValue
4.033

@<SCITEGIC>MOL_PROPERTY
Pdih
SciTegic.value.DoubleValue
9.702

@<SCITEGIC>MOL_PROPERTY
Idih
SciTegic.value.DoubleValue
0.000

@<SCITEGIC>MOL_PROPERTY
Tether
SciTegic.value.DoubleValue
0.000

@<TRIPOS>MOLECULE
guest-4_confgen4.mol2 : confsearch ligand conformer 378
          16          16           1
SMALL
USER_CHARGES
 
@<TRIPOS>ATOM
       1    C1      19.907818   18.858071   23.459398 C.3        1 MOL1        -0.1689
       2    H1      20.901975   19.324840   23.427686 H          1 MOL1         0.0830
       3    H2      19.626307   18.744839   24.515300 H          1 MOL1         0.0830
       4    C2      19.943547   17.496210   22.732021 C.3        1 MOL1        -0.1689
       5    H3      20.955230   17.303394   22.349206 H          1 MOL1         0.0830
       6    H4      19.679726   16.670664   23.407204 H          1 MOL1         0.0830
       7    C3      18.941409   17.598252   21.562516 C.3        1 MOL1        -0.1765
       8    H5      17.985059   17.147235   21.858486 H          1 MOL1         0.0830
       9    H6      19.294600   17.073606   20.664736 H          1 MOL1         0.0830
      10    C4      18.729443   19.097670   21.313902 C.3        1 MOL1         0.1214
      11    H7      17.737489   19.300449   20.885079 H          1 MOL1         0.0787
      12    C5      18.884522   19.731489   22.702851 C.3        1 MOL1        -0.1765
      13    H8      19.195187   20.783372   22.647767 H          1 MOL1         0.0830
      14    H9      17.917233   19.695509   23.221194 H          1 MOL1         0.0830
      15    O1      19.758007   19.580496   20.461997 O.3        1 MOL1        -0.5512
      16    H10     20.594201   19.357668   20.920572 H          1 MOL1         0.3776
@<TRIPOS>BOND
    1     1     2    1
    2     1     3    1
    3     1     4    1
    4     4     5    1
    5     4     6    1
    6     4     7    1
    7     7     8    1
    8     7     9    1
    9     7    10    1
   10    10    11    1
   11     1    12    1
   12    10    12    1
   13    12    13    1
   14    12    14    1
   15    10    15    1
   16    15    16    1
@<TRIPOS>SUBSTRUCTURE
       1 MOL1            1 RESIDUE      1      MOL     
@<SCITEGIC>MOL_PROPERTY
VConf Rank
SciTegic.value.IntegerValue
378

@<SCITEGIC>MOL_PROPERTY
Conf_Id
SciTegic.value.IntegerValue
20

@<SCITEGIC>MOL_PROPERTY
Delta U+W
SciTegic.value.DoubleValue
-0.483

@<SCITEGIC>MOL_PROPERTY
U+W
SciTegic.value.DoubleValue
2.527

@<SCITEGIC>MOL_PROPERTY
Grad RMS
SciTegic.value.DoubleValue
0.000000

@<SCITEGIC>MOL_PROPERTY
U
SciTegic.value.DoubleValue
4.508

@<SCITEGIC>MOL_PROPERTY
W
SciTegic.value.DoubleValue
-1.981

@<SCITEGIC>MOL_PROPERTY
W(PB)
SciTegic.value.DoubleValue
-3.712

@<SCITEGIC>MOL_PROPERTY
W(SA)
SciTegic.value.DoubleValue
1.732

@<SCITEGIC>MOL_PROPERTY
Valence
SciTegic.value.DoubleValue
14.705

@<SCITEGIC>MOL_PROPERTY
Coulomb
SciTegic.value.DoubleValue
-10.687

@<SCITEGIC>MOL_PROPERTY
VdW
SciTegic.value.DoubleValue
0.490

@<SCITEGIC>MOL_PROPERTY
VdW6
SciTegic.value.DoubleValue
-3.745

@<SCITEGIC>MOL_PROPERTY
VdW12
SciTegic.value.DoubleValue
4.235

@<SCITEGIC>MOL_PROPERTY
Bond
SciTegic.value.DoubleValue
0.068

@<SCITEGIC>MOL_PROPERTY
Angle
SciTegic.value.DoubleValue
3.901

@<SCITEGIC>MOL_PROPERTY
Pdih
SciTegic.value.DoubleValue
10.737

@<SCITEGIC>MOL_PROPERTY
Idih
SciTegic.value.DoubleValue
0.000

@<SCITEGIC>MOL_PROPERTY
Tether
SciTegic.value.DoubleValue
0.000

@<TRIPOS>MOLECULE
guest-4_confgen4.mol2 : confsearch ligand conformer 379
          16          16           1
SMALL
USER_CHARGES
 
@<TRIPOS>ATOM
       1    C1      19.488776   17.171875   22.745547 C.3        1 MOL1        -0.1689
       2    H1      20.161274   16.707211   22.011033 H          1 MOL1         0.0830
       3    H2      19.249054   16.424283   23.513846 H          1 MOL1         0.0830
       4    C2      18.237068   17.702591   22.033300 C.3        1 MOL1        -0.1689
       5    H3      17.884198   17.022554   21.246032 H          1 MOL1         0.0830
       6    H4      17.425319   17.835155   22.762077 H          1 MOL1         0.0830
       7    C3      18.665369   19.072339   21.475711 C.3        1 MOL1        -0.1765
       8    H5      17.814142   19.762094   21.408669 H          1 MOL1         0.0830
       9    H6      19.073889   18.941244   20.464419 H          1 MOL1         0.0830
      10    C4      19.755725   19.607744   22.427628 C.3        1 MOL1         0.1214
      11    H7      19.348627   20.420116   23.047177 H          1 MOL1         0.0787
      12    C5      20.157794   18.427074   23.335479 C.3        1 MOL1        -0.1765
      13    H8      21.247218   18.308628   23.407232 H          1 MOL1         0.0830
      14    H9      19.774379   18.607494   24.348159 H          1 MOL1         0.0830
      15    O1      20.880327   20.058382   21.681918 O.3        1 MOL1        -0.5512
      16    H10     20.566410   20.796752   21.118183 H          1 MOL1         0.3776
@<TRIPOS>BOND
    1     1     2    1
    2     1     3    1
    3     1     4    1
    4     4     5    1
    5     4     6    1
    6     4     7    1
    7     7     8    1
    8     7     9    1
    9     7    10    1
   10    10    11    1
   11     1    12    1
   12    10    12    1
   13    12    13    1
   14    12    14    1
   15    10    15    1
   16    15    16    1
@<TRIPOS>SUBSTRUCTURE
       1 MOL1            1 RESIDUE      1      MOL     
@<SCITEGIC>MOL_PROPERTY
VConf Rank
SciTegic.value.IntegerValue
379

@<SCITEGIC>MOL_PROPERTY
Conf_Id
SciTegic.value.IntegerValue
59

@<SCITEGIC>MOL_PROPERTY
Delta U+W
SciTegic.value.DoubleValue
0.000

@<SCITEGIC>MOL_PROPERTY
U+W
SciTegic.value.DoubleValue
3.010

@<SCITEGIC>MOL_PROPERTY
Grad RMS
SciTegic.value.DoubleValue
0.000000

@<SCITEGIC>MOL_PROPERTY
U
SciTegic.value.DoubleValue
5.843

@<SCITEGIC>MOL_PROPERTY
W
SciTegic.value.DoubleValue
-2.833

@<SCITEGIC>MOL_PROPERTY
W(PB)
SciTegic.value.DoubleValue
-4.568

@<SCITEGIC>MOL_PROPERTY
W(SA)
SciTegic.value.DoubleValue
1.735

@<SCITEGIC>MOL_PROPERTY
Valence
SciTegic.value.DoubleValue
13.789

@<SCITEGIC>MOL_PROPERTY
Coulomb
SciTegic.value.DoubleValue
-8.574

@<SCITEGIC>MOL_PROPERTY
VdW
SciTegic.value.DoubleValue
0.628

@<SCITEGIC>MOL_PROPERTY
VdW6
SciTegic.value.DoubleValue
-3.284

@<SCITEGIC>MOL_PROPERTY
VdW12
SciTegic.value.DoubleValue
3.912

@<SCITEGIC>MOL_PROPERTY
Bond
SciTegic.value.DoubleValue
0.054

@<SCITEGIC>MOL_PROPERTY
Angle
SciTegic.value.DoubleValue
4.034

@<SCITEGIC>MOL_PROPERTY
Pdih
SciTegic.value.DoubleValue
9.702

@<SCITEGIC>MOL_PROPERTY
Idih
SciTegic.value.DoubleValue
0.000

@<SCITEGIC>MOL_PROPERTY
Tether
SciTegic.value.DoubleValue
0.000

@<TRIPOS>MOLECULE
guest-4_confgen4.mol2 : confsearch ligand conformer 380
          16          16           1
SMALL
USER_CHARGES
 
@<TRIPOS>ATOM
       1    C1      19.814493   19.520632   23.343118 C.3        1 MOL1        -0.1689
       2    H1      20.520999   19.584560   24.181880 H          1 MOL1         0.0830
       3    H2      19.323943   20.497671   23.231865 H          1 MOL1         0.0830
       4    C2      18.753891   18.431553   23.554675 C.3        1 MOL1        -0.1689
       5    H3      19.219682   17.547927   24.012849 H          1 MOL1         0.0830
       6    H4      17.934226   18.764955   24.205548 H          1 MOL1         0.0830
       7    C3      18.271731   18.082334   22.134589 C.3        1 MOL1        -0.1765
       8    H5      17.422869   18.724268   21.865449 H          1 MOL1         0.0830
       9    H6      17.935870   17.038965   22.066783 H          1 MOL1         0.0830
      10    C4      19.449582   18.381259   21.184269 C.3        1 MOL1         0.1214
      11    H7      19.099010   19.020956   20.361222 H          1 MOL1         0.0787
      12    C5      20.505467   19.131395   22.023398 C.3        1 MOL1        -0.1765
      13    H8      21.357613   18.472819   22.239976 H          1 MOL1         0.0830
      14    H9      20.887598   20.014429   21.495123 H          1 MOL1         0.0830
      15    O1      19.994377   17.167124   20.681304 O.3        1 MOL1        -0.5512
      16    H10     20.741263   17.415063   20.096310 H          1 MOL1         0.3776
@<TRIPOS>BOND
    1     1     2    1
    2     1     3    1
    3     1     4    1
    4     4     5    1
    5     4     6    1
    6     4     7    1
    7     7     8    1
    8     7     9    1
    9     7    10    1
   10    10    11    1
   11     1    12    1
   12    10    12    1
   13    12    13    1
   14    12    14    1
   15    10    15    1
   16    15    16    1
@<TRIPOS>SUBSTRUCTURE
       1 MOL1            1 RESIDUE      1      MOL     
@<SCITEGIC>MOL_PROPERTY
VConf Rank
SciTegic.value.IntegerValue
380

@<SCITEGIC>MOL_PROPERTY
Conf_Id
SciTegic.value.IntegerValue
33

@<SCITEGIC>MOL_PROPERTY
Delta U+W
SciTegic.value.DoubleValue
0.015

@<SCITEGIC>MOL_PROPERTY
U+W
SciTegic.value.DoubleValue
3.025

@<SCITEGIC>MOL_PROPERTY
Grad RMS
SciTegic.value.DoubleValue
0.000000

@<SCITEGIC>MOL_PROPERTY
U
SciTegic.value.DoubleValue
5.843

@<SCITEGIC>MOL_PROPERTY
W
SciTegic.value.DoubleValue
-2.819

@<SCITEGIC>MOL_PROPERTY
W(PB)
SciTegic.value.DoubleValue
-4.568

@<SCITEGIC>MOL_PROPERTY
W(SA)
SciTegic.value.DoubleValue
1.750

@<SCITEGIC>MOL_PROPERTY
Valence
SciTegic.value.DoubleValue
13.789

@<SCITEGIC>MOL_PROPERTY
Coulomb
SciTegic.value.DoubleValue
-8.574

@<SCITEGIC>MOL_PROPERTY
VdW
SciTegic.value.DoubleValue
0.628

@<SCITEGIC>MOL_PROPERTY
VdW6
SciTegic.value.DoubleValue
-3.284

@<SCITEGIC>MOL_PROPERTY
VdW12
SciTegic.value.DoubleValue
3.913

@<SCITEGIC>MOL_PROPERTY
Bond
SciTegic.value.DoubleValue
0.054

@<SCITEGIC>MOL_PROPERTY
Angle
SciTegic.value.DoubleValue
4.033

@<SCITEGIC>MOL_PROPERTY
Pdih
SciTegic.value.DoubleValue
9.702

@<SCITEGIC>MOL_PROPERTY
Idih
SciTegic.value.DoubleValue
0.000

@<SCITEGIC>MOL_PROPERTY
Tether
SciTegic.value.DoubleValue
0.000

@<TRIPOS>MOLECULE
guest-4_confgen4.mol2 : confsearch ligand conformer 381
          16          16           1
SMALL
USER_CHARGES
 
@<TRIPOS>ATOM
       1    C1      19.315152   18.099752   23.491156 C.3        1 MOL1        -0.1689
       2    H1      20.284905   18.034106   24.003501 H          1 MOL1         0.0830
       3    H2      18.547234   17.725402   24.181925 H          1 MOL1         0.0830
       4    C2      19.354279   17.276321   22.185227 C.3        1 MOL1        -0.1689
       5    H3      20.342604   16.811304   22.066073 H          1 MOL1         0.0830
       6    H4      18.606110   16.471839   22.192442 H          1 MOL1         0.0830
       7    C3      19.089959   18.269421   21.033565 C.3        1 MOL1        -0.1765
       8    H5      18.030313   18.227487   20.748939 H          1 MOL1         0.0830
       9    H6      19.685303   18.038666   20.140075 H          1 MOL1         0.0830
      10    C4      19.400381   19.663582   21.594765 C.3        1 MOL1         0.1214
      11    H7      18.817257   20.444004   21.084970 H          1 MOL1         0.0787
      12    C5      19.027436   19.559297   23.079687 C.3        1 MOL1        -0.1765
      13    H8      19.576187   20.282039   23.698168 H          1 MOL1         0.0830
      14    H9      17.955491   19.768059   23.193589 H          1 MOL1         0.0830
      15    O1      20.793303   19.914884   21.478914 O.3        1 MOL1        -0.5512
      16    H10     21.225838   19.177601   21.956921 H          1 MOL1         0.3776
@<TRIPOS>BOND
    1     1     2    1
    2     1     3    1
    3     1     4    1
    4     4     5    1
    5     4     6    1
    6     4     7    1
    7     7     8    1
    8     7     9    1
    9     7    10    1
   10    10    11    1
   11     1    12    1
   12    10    12    1
   13    12    13    1
   14    12    14    1
   15    10    15    1
   16    15    16    1
@<TRIPOS>SUBSTRUCTURE
       1 MOL1            1 RESIDUE      1      MOL     
@<SCITEGIC>MOL_PROPERTY
VConf Rank
SciTegic.value.IntegerValue
381

@<SCITEGIC>MOL_PROPERTY
Conf_Id
SciTegic.value.IntegerValue
20

@<SCITEGIC>MOL_PROPERTY
Delta U+W
SciTegic.value.DoubleValue
-0.483

@<SCITEGIC>MOL_PROPERTY
U+W
SciTegic.value.DoubleValue
2.527

@<SCITEGIC>MOL_PROPERTY
Grad RMS
SciTegic.value.DoubleValue
0.000000

@<SCITEGIC>MOL_PROPERTY
U
SciTegic.value.DoubleValue
4.508

@<SCITEGIC>MOL_PROPERTY
W
SciTegic.value.DoubleValue
-1.981

@<SCITEGIC>MOL_PROPERTY
W(PB)
SciTegic.value.DoubleValue
-3.712

@<SCITEGIC>MOL_PROPERTY
W(SA)
SciTegic.value.DoubleValue
1.732

@<SCITEGIC>MOL_PROPERTY
Valence
SciTegic.value.DoubleValue
14.705

@<SCITEGIC>MOL_PROPERTY
Coulomb
SciTegic.value.DoubleValue
-10.687

@<SCITEGIC>MOL_PROPERTY
VdW
SciTegic.value.DoubleValue
0.490

@<SCITEGIC>MOL_PROPERTY
VdW6
SciTegic.value.DoubleValue
-3.745

@<SCITEGIC>MOL_PROPERTY
VdW12
SciTegic.value.DoubleValue
4.235

@<SCITEGIC>MOL_PROPERTY
Bond
SciTegic.value.DoubleValue
0.068

@<SCITEGIC>MOL_PROPERTY
Angle
SciTegic.value.DoubleValue
3.901

@<SCITEGIC>MOL_PROPERTY
Pdih
SciTegic.value.DoubleValue
10.737

@<SCITEGIC>MOL_PROPERTY
Idih
SciTegic.value.DoubleValue
0.000

@<SCITEGIC>MOL_PROPERTY
Tether
SciTegic.value.DoubleValue
0.000

@<TRIPOS>MOLECULE
guest-4_confgen4.mol2 : confsearch ligand conformer 382
          16          16           1
SMALL
USER_CHARGES
 
@<TRIPOS>ATOM
       1    C1      18.744289   17.410868   22.969882 C.3        1 MOL1        -0.1689
       2    H1      18.662220   17.699763   24.026992 H          1 MOL1         0.0830
       3    H2      18.284231   16.420979   22.846959 H          1 MOL1         0.0830
       4    C2      20.218976   17.428778   22.544789 C.3        1 MOL1        -0.1689
       5    H3      20.883829   17.034832   23.325517 H          1 MOL1         0.0830
       6    H4      20.350584   16.817747   21.640938 H          1 MOL1         0.0830
       7    C3      20.506448   18.906329   22.221126 C.3        1 MOL1        -0.1765
       8    H5      21.288047   19.004808   21.456763 H          1 MOL1         0.0830
       9    H6      20.856558   19.415674   23.129297 H          1 MOL1         0.0830
      10    C4      19.170010   19.515815   21.747690 C.3        1 MOL1         0.1214
      11    H7      19.193114   19.674269   20.659629 H          1 MOL1         0.0787
      12    C5      18.076300   18.482805   22.089045 C.3        1 MOL1        -0.1765
      13    H8      17.213887   18.939784   22.592469 H          1 MOL1         0.0830
      14    H9      17.715250   18.023428   21.159692 H          1 MOL1         0.0830
      15    O1      18.919458   20.739063   22.429436 O.3        1 MOL1        -0.5512
      16    H10     19.646365   21.350592   22.186186 H          1 MOL1         0.3776
@<TRIPOS>BOND
    1     1     2    1
    2     1     3    1
    3     1     4    1
    4     4     5    1
    5     4     6    1
    6     4     7    1
    7     7     8    1
    8     7     9    1
    9     7    10    1
   10    10    11    1
   11     1    12    1
   12    10    12    1
   13    12    13    1
   14    12    14    1
   15    10    15    1
   16    15    16    1
@<TRIPOS>SUBSTRUCTURE
       1 MOL1            1 RESIDUE      1      MOL     
@<SCITEGIC>MOL_PROPERTY
VConf Rank
SciTegic.value.IntegerValue
382

@<SCITEGIC>MOL_PROPERTY
Conf_Id
SciTegic.value.IntegerValue
59

@<SCITEGIC>MOL_PROPERTY
Delta U+W
SciTegic.value.DoubleValue
0.000

@<SCITEGIC>MOL_PROPERTY
U+W
SciTegic.value.DoubleValue
3.010

@<SCITEGIC>MOL_PROPERTY
Grad RMS
SciTegic.value.DoubleValue
0.000000

@<SCITEGIC>MOL_PROPERTY
U
SciTegic.value.DoubleValue
5.843

@<SCITEGIC>MOL_PROPERTY
W
SciTegic.value.DoubleValue
-2.833

@<SCITEGIC>MOL_PROPERTY
W(PB)
SciTegic.value.DoubleValue
-4.568

@<SCITEGIC>MOL_PROPERTY
W(SA)
SciTegic.value.DoubleValue
1.735

@<SCITEGIC>MOL_PROPERTY
Valence
SciTegic.value.DoubleValue
13.789

@<SCITEGIC>MOL_PROPERTY
Coulomb
SciTegic.value.DoubleValue
-8.574

@<SCITEGIC>MOL_PROPERTY
VdW
SciTegic.value.DoubleValue
0.628

@<SCITEGIC>MOL_PROPERTY
VdW6
SciTegic.value.DoubleValue
-3.284

@<SCITEGIC>MOL_PROPERTY
VdW12
SciTegic.value.DoubleValue
3.912

@<SCITEGIC>MOL_PROPERTY
Bond
SciTegic.value.DoubleValue
0.054

@<SCITEGIC>MOL_PROPERTY
Angle
SciTegic.value.DoubleValue
4.034

@<SCITEGIC>MOL_PROPERTY
Pdih
SciTegic.value.DoubleValue
9.702

@<SCITEGIC>MOL_PROPERTY
Idih
SciTegic.value.DoubleValue
0.000

@<SCITEGIC>MOL_PROPERTY
Tether
SciTegic.value.DoubleValue
0.000

@<TRIPOS>MOLECULE
guest-4_confgen4.mol2 : confsearch ligand conformer 383
          16          16           1
SMALL
USER_CHARGES
 
@<TRIPOS>ATOM
       1    C1      19.018794   19.831461   22.913980 C.3        1 MOL1        -0.1689
       2    H1      19.247736   20.905595   22.889909 H          1 MOL1         0.0830
       3    H2      18.116037   19.686154   23.523518 H          1 MOL1         0.0830
       4    C2      20.172294   19.001372   23.493737 C.3        1 MOL1        -0.1689
       5    H3      21.130684   19.400583   23.133461 H          1 MOL1         0.0830
       6    H4      20.186151   19.011993   24.592071 H          1 MOL1         0.0830
       7    C3      19.954977   17.588060   22.922423 C.3        1 MOL1        -0.1765
       8    H5      19.319893   17.008424   23.604899 H          1 MOL1         0.0830
       9    H6      20.904085   17.047278   22.809426 H          1 MOL1         0.0830
      10    C4      19.218478   17.765359   21.578574 C.3        1 MOL1         0.1214
      11    H7      18.328408   17.119536   21.564119 H          1 MOL1         0.0787
      12    C5      18.796497   19.248086   21.506547 C.3        1 MOL1        -0.1765
      13    H8      19.425458   19.788297   20.785879 H          1 MOL1         0.0830
      14    H9      17.751390   19.355099   21.188513 H          1 MOL1         0.0830
      15    O1      20.087506   17.449230   20.497487 O.3        1 MOL1        -0.5512
      16    H10     19.574228   17.589383   19.673817 H          1 MOL1         0.3776
@<TRIPOS>BOND
    1     1     2    1
    2     1     3    1
    3     1     4    1
    4     4     5    1
    5     4     6    1
    6     4     7    1
    7     7     8    1
    8     7     9    1
    9     7    10    1
   10    10    11    1
   11     1    12    1
   12    10    12    1
   13    12    13    1
   14    12    14    1
   15    10    15    1
   16    15    16    1
@<TRIPOS>SUBSTRUCTURE
       1 MOL1            1 RESIDUE      1      MOL     
@<SCITEGIC>MOL_PROPERTY
VConf Rank
SciTegic.value.IntegerValue
383

@<SCITEGIC>MOL_PROPERTY
Conf_Id
SciTegic.value.IntegerValue
33

@<SCITEGIC>MOL_PROPERTY
Delta U+W
SciTegic.value.DoubleValue
0.015

@<SCITEGIC>MOL_PROPERTY
U+W
SciTegic.value.DoubleValue
3.025

@<SCITEGIC>MOL_PROPERTY
Grad RMS
SciTegic.value.DoubleValue
0.000000

@<SCITEGIC>MOL_PROPERTY
U
SciTegic.value.DoubleValue
5.843

@<SCITEGIC>MOL_PROPERTY
W
SciTegic.value.DoubleValue
-2.819

@<SCITEGIC>MOL_PROPERTY
W(PB)
SciTegic.value.DoubleValue
-4.568

@<SCITEGIC>MOL_PROPERTY
W(SA)
SciTegic.value.DoubleValue
1.750

@<SCITEGIC>MOL_PROPERTY
Valence
SciTegic.value.DoubleValue
13.789

@<SCITEGIC>MOL_PROPERTY
Coulomb
SciTegic.value.DoubleValue
-8.574

@<SCITEGIC>MOL_PROPERTY
VdW
SciTegic.value.DoubleValue
0.628

@<SCITEGIC>MOL_PROPERTY
VdW6
SciTegic.value.DoubleValue
-3.284

@<SCITEGIC>MOL_PROPERTY
VdW12
SciTegic.value.DoubleValue
3.913

@<SCITEGIC>MOL_PROPERTY
Bond
SciTegic.value.DoubleValue
0.054

@<SCITEGIC>MOL_PROPERTY
Angle
SciTegic.value.DoubleValue
4.033

@<SCITEGIC>MOL_PROPERTY
Pdih
SciTegic.value.DoubleValue
9.702

@<SCITEGIC>MOL_PROPERTY
Idih
SciTegic.value.DoubleValue
0.000

@<SCITEGIC>MOL_PROPERTY
Tether
SciTegic.value.DoubleValue
0.000

@<TRIPOS>MOLECULE
guest-4_confgen4.mol2 : confsearch ligand conformer 384
          16          16           1
SMALL
USER_CHARGES
 
@<TRIPOS>ATOM
       1    C1      20.411190   18.997081   21.504259 C.3        1 MOL1        -0.1689
       2    H1      20.160396   19.171584   20.448854 H          1 MOL1         0.0830
       3    H2      21.479402   19.218619   21.634032 H          1 MOL1         0.0830
       4    C2      20.083278   17.537451   21.887633 C.3        1 MOL1        -0.1689
       5    H3      19.674783   17.005248   21.017508 H          1 MOL1         0.0830
       6    H4      20.979816   16.995729   22.218931 H          1 MOL1         0.0830
       7    C3      19.029408   17.606787   23.013237 C.3        1 MOL1        -0.1765
       8    H5      19.525376   17.501259   23.987147 H          1 MOL1         0.0830
       9    H6      18.280055   16.808154   22.931618 H          1 MOL1         0.0830
      10    C4      18.401786   19.004230   22.922488 C.3        1 MOL1         0.1214
      11    H7      18.028618   19.344389   23.899228 H          1 MOL1         0.0787
      12    C5      19.544060   19.893639   22.413449 C.3        1 MOL1        -0.1765
      13    H8      19.175049   20.785172   21.889041 H          1 MOL1         0.0830
      14    H9      20.140635   20.233124   23.270460 H          1 MOL1         0.0830
      15    O1      17.358103   18.986562   21.959566 O.3        1 MOL1        -0.5512
      16    H10     17.779798   18.674737   21.132462 H          1 MOL1         0.3776
@<TRIPOS>BOND
    1     1     2    1
    2     1     3    1
    3     1     4    1
    4     4     5    1
    5     4     6    1
    6     4     7    1
    7     7     8    1
    8     7     9    1
    9     7    10    1
   10    10    11    1
   11     1    12    1
   12    10    12    1
   13    12    13    1
   14    12    14    1
   15    10    15    1
   16    15    16    1
@<TRIPOS>SUBSTRUCTURE
       1 MOL1            1 RESIDUE      1      MOL     
@<SCITEGIC>MOL_PROPERTY
VConf Rank
SciTegic.value.IntegerValue
384

@<SCITEGIC>MOL_PROPERTY
Conf_Id
SciTegic.value.IntegerValue
20

@<SCITEGIC>MOL_PROPERTY
Delta U+W
SciTegic.value.DoubleValue
-0.483

@<SCITEGIC>MOL_PROPERTY
U+W
SciTegic.value.DoubleValue
2.527

@<SCITEGIC>MOL_PROPERTY
Grad RMS
SciTegic.value.DoubleValue
0.000000

@<SCITEGIC>MOL_PROPERTY
U
SciTegic.value.DoubleValue
4.508

@<SCITEGIC>MOL_PROPERTY
W
SciTegic.value.DoubleValue
-1.981

@<SCITEGIC>MOL_PROPERTY
W(PB)
SciTegic.value.DoubleValue
-3.712

@<SCITEGIC>MOL_PROPERTY
W(SA)
SciTegic.value.DoubleValue
1.732

@<SCITEGIC>MOL_PROPERTY
Valence
SciTegic.value.DoubleValue
14.705

@<SCITEGIC>MOL_PROPERTY
Coulomb
SciTegic.value.DoubleValue
-10.687

@<SCITEGIC>MOL_PROPERTY
VdW
SciTegic.value.DoubleValue
0.490

@<SCITEGIC>MOL_PROPERTY
VdW6
SciTegic.value.DoubleValue
-3.745

@<SCITEGIC>MOL_PROPERTY
VdW12
SciTegic.value.DoubleValue
4.235

@<SCITEGIC>MOL_PROPERTY
Bond
SciTegic.value.DoubleValue
0.068

@<SCITEGIC>MOL_PROPERTY
Angle
SciTegic.value.DoubleValue
3.901

@<SCITEGIC>MOL_PROPERTY
Pdih
SciTegic.value.DoubleValue
10.737

@<SCITEGIC>MOL_PROPERTY
Idih
SciTegic.value.DoubleValue
0.000

@<SCITEGIC>MOL_PROPERTY
Tether
SciTegic.value.DoubleValue
0.000

@<TRIPOS>MOLECULE
guest-4_confgen4.mol2 : confsearch ligand conformer 385
          16          16           1
SMALL
USER_CHARGES
 
@<TRIPOS>ATOM
       1    C1      20.399394   19.567586   22.266657 C.3        1 MOL1        -0.1689
       2    H1      20.209746   20.126785   21.339830 H          1 MOL1         0.0830
       3    H2      21.245747   20.038022   22.785328 H          1 MOL1         0.0830
       4    C2      20.662888   18.092851   21.932808 C.3        1 MOL1        -0.1689
       5    H3      21.271610   17.971800   21.026406 H          1 MOL1         0.0830
       6    H4      21.191679   17.613457   22.768383 H          1 MOL1         0.0830
       7    C3      19.259591   17.477404   21.782681 C.3        1 MOL1        -0.1765
       8    H5      19.257516   16.413126   22.051297 H          1 MOL1         0.0830
       9    H6      18.935904   17.561939   20.736322 H          1 MOL1         0.0830
      10    C4      18.325562   18.295582   22.699117 C.3        1 MOL1         0.1214
      11    H7      18.065101   17.708311   23.591748 H          1 MOL1         0.0787
      12    C5      19.122007   19.545801   23.126273 C.3        1 MOL1        -0.1765
      13    H8      18.540653   20.470205   23.009970 H          1 MOL1         0.0830
      14    H9      19.392637   19.452965   24.186094 H          1 MOL1         0.0830
      15    O1      17.153882   18.679140   21.989231 O.3        1 MOL1        -0.5512
      16    H10     16.695649   17.850559   21.734266 H          1 MOL1         0.3776
@<TRIPOS>BOND
    1     1     2    1
    2     1     3    1
    3     1     4    1
    4     4     5    1
    5     4     6    1
    6     4     7    1
    7     7     8    1
    8     7     9    1
    9     7    10    1
   10    10    11    1
   11     1    12    1
   12    10    12    1
   13    12    13    1
   14    12    14    1
   15    10    15    1
   16    15    16    1
@<TRIPOS>SUBSTRUCTURE
       1 MOL1            1 RESIDUE      1      MOL     
@<SCITEGIC>MOL_PROPERTY
VConf Rank
SciTegic.value.IntegerValue
385

@<SCITEGIC>MOL_PROPERTY
Conf_Id
SciTegic.value.IntegerValue
59

@<SCITEGIC>MOL_PROPERTY
Delta U+W
SciTegic.value.DoubleValue
0.000

@<SCITEGIC>MOL_PROPERTY
U+W
SciTegic.value.DoubleValue
3.010

@<SCITEGIC>MOL_PROPERTY
Grad RMS
SciTegic.value.DoubleValue
0.000000

@<SCITEGIC>MOL_PROPERTY
U
SciTegic.value.DoubleValue
5.843

@<SCITEGIC>MOL_PROPERTY
W
SciTegic.value.DoubleValue
-2.833

@<SCITEGIC>MOL_PROPERTY
W(PB)
SciTegic.value.DoubleValue
-4.568

@<SCITEGIC>MOL_PROPERTY
W(SA)
SciTegic.value.DoubleValue
1.735

@<SCITEGIC>MOL_PROPERTY
Valence
SciTegic.value.DoubleValue
13.789

@<SCITEGIC>MOL_PROPERTY
Coulomb
SciTegic.value.DoubleValue
-8.574

@<SCITEGIC>MOL_PROPERTY
VdW
SciTegic.value.DoubleValue
0.628

@<SCITEGIC>MOL_PROPERTY
VdW6
SciTegic.value.DoubleValue
-3.284

@<SCITEGIC>MOL_PROPERTY
VdW12
SciTegic.value.DoubleValue
3.912

@<SCITEGIC>MOL_PROPERTY
Bond
SciTegic.value.DoubleValue
0.054

@<SCITEGIC>MOL_PROPERTY
Angle
SciTegic.value.DoubleValue
4.034

@<SCITEGIC>MOL_PROPERTY
Pdih
SciTegic.value.DoubleValue
9.702

@<SCITEGIC>MOL_PROPERTY
Idih
SciTegic.value.DoubleValue
0.000

@<SCITEGIC>MOL_PROPERTY
Tether
SciTegic.value.DoubleValue
0.000

@<TRIPOS>MOLECULE
guest-4_confgen4.mol2 : confsearch ligand conformer 386
          16          16           1
SMALL
USER_CHARGES
 
@<TRIPOS>ATOM
       1    C1      18.085104   18.742247   22.710898 C.3        1 MOL1        -0.1689
       2    H1      17.509129   18.935023   23.626239 H          1 MOL1         0.0830
       3    H2      17.392380   18.763977   21.858089 H          1 MOL1         0.0830
       4    C2      18.811422   17.390759   22.751733 C.3        1 MOL1        -0.1689
       5    H3      19.215212   17.219969   23.759435 H          1 MOL1         0.0830
       6    H4      18.149743   16.551067   22.499264 H          1 MOL1         0.0830
       7    C3      19.971336   17.546384   21.751005 C.3        1 MOL1        -0.1765
       8    H5      19.641079   17.231991   20.752420 H          1 MOL1         0.0830
       9    H6      20.831887   16.923532   22.029441 H          1 MOL1         0.0830
      10    C4      20.322643   19.048078   21.714984 C.3        1 MOL1         0.1214
      11    H7      20.336267   19.393061   20.670800 H          1 MOL1         0.0787
      12    C5      19.207538   19.774172   22.496690 C.3        1 MOL1        -0.1765
      13    H8      19.583522   20.109854   23.472771 H          1 MOL1         0.0830
      14    H9      18.843283   20.656183   21.954269 H          1 MOL1         0.0830
      15    O1      21.582982   19.272041   22.335697 O.3        1 MOL1        -0.5512
      16    H10     21.749090   20.237572   22.294622 H          1 MOL1         0.3776
@<TRIPOS>BOND
    1     1     2    1
    2     1     3    1
    3     1     4    1
    4     4     5    1
    5     4     6    1
    6     4     7    1
    7     7     8    1
    8     7     9    1
    9     7    10    1
   10    10    11    1
   11     1    12    1
   12    10    12    1
   13    12    13    1
   14    12    14    1
   15    10    15    1
   16    15    16    1
@<TRIPOS>SUBSTRUCTURE
       1 MOL1            1 RESIDUE      1      MOL     
@<SCITEGIC>MOL_PROPERTY
VConf Rank
SciTegic.value.IntegerValue
386

@<SCITEGIC>MOL_PROPERTY
Conf_Id
SciTegic.value.IntegerValue
33

@<SCITEGIC>MOL_PROPERTY
Delta U+W
SciTegic.value.DoubleValue
0.015

@<SCITEGIC>MOL_PROPERTY
U+W
SciTegic.value.DoubleValue
3.025

@<SCITEGIC>MOL_PROPERTY
Grad RMS
SciTegic.value.DoubleValue
0.000000

@<SCITEGIC>MOL_PROPERTY
U
SciTegic.value.DoubleValue
5.843

@<SCITEGIC>MOL_PROPERTY
W
SciTegic.value.DoubleValue
-2.819

@<SCITEGIC>MOL_PROPERTY
W(PB)
SciTegic.value.DoubleValue
-4.568

@<SCITEGIC>MOL_PROPERTY
W(SA)
SciTegic.value.DoubleValue
1.750

@<SCITEGIC>MOL_PROPERTY
Valence
SciTegic.value.DoubleValue
13.789

@<SCITEGIC>MOL_PROPERTY
Coulomb
SciTegic.value.DoubleValue
-8.574

@<SCITEGIC>MOL_PROPERTY
VdW
SciTegic.value.DoubleValue
0.628

@<SCITEGIC>MOL_PROPERTY
VdW6
SciTegic.value.DoubleValue
-3.284

@<SCITEGIC>MOL_PROPERTY
VdW12
SciTegic.value.DoubleValue
3.913

@<SCITEGIC>MOL_PROPERTY
Bond
SciTegic.value.DoubleValue
0.054

@<SCITEGIC>MOL_PROPERTY
Angle
SciTegic.value.DoubleValue
4.033

@<SCITEGIC>MOL_PROPERTY
Pdih
SciTegic.value.DoubleValue
9.702

@<SCITEGIC>MOL_PROPERTY
Idih
SciTegic.value.DoubleValue
0.000

@<SCITEGIC>MOL_PROPERTY
Tether
SciTegic.value.DoubleValue
0.000

@<TRIPOS>MOLECULE
guest-4_confgen4.mol2 : confsearch ligand conformer 387
          16          16           1
SMALL
USER_CHARGES
 
@<TRIPOS>ATOM
       1    C1      18.300208   19.265145   22.698465 C.3        1 MOL1        -0.1689
       2    H1      17.867856   19.965348   21.970444 H          1 MOL1         0.0830
       3    H2      17.680217   19.301573   23.604711 H          1 MOL1         0.0830
       4    C2      19.764630   19.654797   22.996227 C.3        1 MOL1        -0.1689
       5    H3      20.040683   20.544189   22.413129 H          1 MOL1         0.0830
       6    H4      19.910907   19.894075   24.058465 H          1 MOL1         0.0830
       7    C3      20.632503   18.450134   22.574302 C.3        1 MOL1        -0.1765
       8    H5      20.864967   17.838697   23.456190 H          1 MOL1         0.0830
       9    H6      21.584169   18.760591   22.122691 H          1 MOL1         0.0830
      10    C4      19.772601   17.624367   21.608036 C.3        1 MOL1         0.1214
      11    H7      20.052228   16.561120   21.625236 H          1 MOL1         0.0787
      12    C5      18.338059   17.839179   22.108936 C.3        1 MOL1        -0.1765
      13    H8      17.594155   17.697677   21.313582 H          1 MOL1         0.0830
      14    H9      18.123750   17.109111   22.900577 H          1 MOL1         0.0830
      15    O1      19.895739   18.159493   20.298347 O.3        1 MOL1        -0.5512
      16    H10     19.629082   19.098266   20.380577 H          1 MOL1         0.3776
@<TRIPOS>BOND
    1     1     2    1
    2     1     3    1
    3     1     4    1
    4     4     5    1
    5     4     6    1
    6     4     7    1
    7     7     8    1
    8     7     9    1
    9     7    10    1
   10    10    11    1
   11     1    12    1
   12    10    12    1
   13    12    13    1
   14    12    14    1
   15    10    15    1
   16    15    16    1
@<TRIPOS>SUBSTRUCTURE
       1 MOL1            1 RESIDUE      1      MOL     
@<SCITEGIC>MOL_PROPERTY
VConf Rank
SciTegic.value.IntegerValue
387

@<SCITEGIC>MOL_PROPERTY
Conf_Id
SciTegic.value.IntegerValue
20

@<SCITEGIC>MOL_PROPERTY
Delta U+W
SciTegic.value.DoubleValue
-0.483

@<SCITEGIC>MOL_PROPERTY
U+W
SciTegic.value.DoubleValue
2.527

@<SCITEGIC>MOL_PROPERTY
Grad RMS
SciTegic.value.DoubleValue
0.000000

@<SCITEGIC>MOL_PROPERTY
U
SciTegic.value.DoubleValue
4.508

@<SCITEGIC>MOL_PROPERTY
W
SciTegic.value.DoubleValue
-1.981

@<SCITEGIC>MOL_PROPERTY
W(PB)
SciTegic.value.DoubleValue
-3.712

@<SCITEGIC>MOL_PROPERTY
W(SA)
SciTegic.value.DoubleValue
1.732

@<SCITEGIC>MOL_PROPERTY
Valence
SciTegic.value.DoubleValue
14.705

@<SCITEGIC>MOL_PROPERTY
Coulomb
SciTegic.value.DoubleValue
-10.687

@<SCITEGIC>MOL_PROPERTY
VdW
SciTegic.value.DoubleValue
0.490

@<SCITEGIC>MOL_PROPERTY
VdW6
SciTegic.value.DoubleValue
-3.745

@<SCITEGIC>MOL_PROPERTY
VdW12
SciTegic.value.DoubleValue
4.235

@<SCITEGIC>MOL_PROPERTY
Bond
SciTegic.value.DoubleValue
0.068

@<SCITEGIC>MOL_PROPERTY
Angle
SciTegic.value.DoubleValue
3.901

@<SCITEGIC>MOL_PROPERTY
Pdih
SciTegic.value.DoubleValue
10.737

@<SCITEGIC>MOL_PROPERTY
Idih
SciTegic.value.DoubleValue
0.000

@<SCITEGIC>MOL_PROPERTY
Tether
SciTegic.value.DoubleValue
0.000

@<TRIPOS>MOLECULE
guest-4_confgen4.mol2 : confsearch ligand conformer 388
          16          16           1
SMALL
USER_CHARGES
 
@<TRIPOS>ATOM
       1    C1      18.817399   19.900700   22.403686 C.3        1 MOL1        -0.1689
       2    H1      19.270685   20.445459   21.563778 H          1 MOL1         0.0830
       3    H2      18.116057   20.575457   22.913064 H          1 MOL1         0.0830
       4    C2      19.920679   19.387115   23.338957 C.3        1 MOL1        -0.1689
       5    H3      20.732378   20.116049   23.467640 H          1 MOL1         0.0830
       6    H4      19.494759   19.168946   24.328209 H          1 MOL1         0.0830
       7    C3      20.404156   18.081975   22.680612 C.3        1 MOL1        -0.1765
       8    H5      20.780946   17.371512   23.427684 H          1 MOL1         0.0830
       9    H6      21.224573   18.307820   21.985850 H          1 MOL1         0.0830
      10    C4      19.194956   17.508761   21.911885 C.3        1 MOL1         0.1214
      11    H7      18.789932   16.635844   22.444322 H          1 MOL1         0.0787
      12    C5      18.130981   18.625371   21.880717 C.3        1 MOL1        -0.1765
      13    H8      17.712426   18.774372   20.876411 H          1 MOL1         0.0830
      14    H9      17.304600   18.351126   22.549271 H          1 MOL1         0.0830
      15    O1      19.576897   17.157884   20.587161 O.3        1 MOL1        -0.5512
      16    H10     20.258141   16.457142   20.667162 H          1 MOL1         0.3776
@<TRIPOS>BOND
    1     1     2    1
    2     1     3    1
    3     1     4    1
    4     4     5    1
    5     4     6    1
    6     4     7    1
    7     7     8    1
    8     7     9    1
    9     7    10    1
   10    10    11    1
   11     1    12    1
   12    10    12    1
   13    12    13    1
   14    12    14    1
   15    10    15    1
   16    15    16    1
@<TRIPOS>SUBSTRUCTURE
       1 MOL1            1 RESIDUE      1      MOL     
@<SCITEGIC>MOL_PROPERTY
VConf Rank
SciTegic.value.IntegerValue
388

@<SCITEGIC>MOL_PROPERTY
Conf_Id
SciTegic.value.IntegerValue
59

@<SCITEGIC>MOL_PROPERTY
Delta U+W
SciTegic.value.DoubleValue
0.000

@<SCITEGIC>MOL_PROPERTY
U+W
SciTegic.value.DoubleValue
3.010

@<SCITEGIC>MOL_PROPERTY
Grad RMS
SciTegic.value.DoubleValue
0.000000

@<SCITEGIC>MOL_PROPERTY
U
SciTegic.value.DoubleValue
5.843

@<SCITEGIC>MOL_PROPERTY
W
SciTegic.value.DoubleValue
-2.833

@<SCITEGIC>MOL_PROPERTY
W(PB)
SciTegic.value.DoubleValue
-4.568

@<SCITEGIC>MOL_PROPERTY
W(SA)
SciTegic.value.DoubleValue
1.735

@<SCITEGIC>MOL_PROPERTY
Valence
SciTegic.value.DoubleValue
13.789

@<SCITEGIC>MOL_PROPERTY
Coulomb
SciTegic.value.DoubleValue
-8.574

@<SCITEGIC>MOL_PROPERTY
VdW
SciTegic.value.DoubleValue
0.628

@<SCITEGIC>MOL_PROPERTY
VdW6
SciTegic.value.DoubleValue
-3.284

@<SCITEGIC>MOL_PROPERTY
VdW12
SciTegic.value.DoubleValue
3.912

@<SCITEGIC>MOL_PROPERTY
Bond
SciTegic.value.DoubleValue
0.054

@<SCITEGIC>MOL_PROPERTY
Angle
SciTegic.value.DoubleValue
4.034

@<SCITEGIC>MOL_PROPERTY
Pdih
SciTegic.value.DoubleValue
9.702

@<SCITEGIC>MOL_PROPERTY
Idih
SciTegic.value.DoubleValue
0.000

@<SCITEGIC>MOL_PROPERTY
Tether
SciTegic.value.DoubleValue
0.000

@<TRIPOS>MOLECULE
guest-4_confgen4.mol2 : confsearch ligand conformer 389
          16          16           1
SMALL
USER_CHARGES
 
@<TRIPOS>ATOM
       1    C1      18.966792   18.838465   20.960514 C.3        1 MOL1        -0.1689
       2    H1      18.539559   19.650521   20.356530 H          1 MOL1         0.0830
       3    H2      19.171640   17.987368   20.296214 H          1 MOL1         0.0830
       4    C2      18.028487   18.396241   22.091774 C.3        1 MOL1        -0.1689
       5    H3      17.542575   19.277670   22.532968 H          1 MOL1         0.0830
       6    H4      17.245000   17.709917   21.742849 H          1 MOL1         0.0830
       7    C3      18.959020   17.745690   23.131951 C.3        1 MOL1        -0.1765
       8    H5      19.055484   16.672890   22.920103 H          1 MOL1         0.0830
       9    H6      18.562529   17.850423   24.150698 H          1 MOL1         0.0830
      10    C4      20.338475   18.416682   22.968633 C.3        1 MOL1         0.1214
      11    H7      21.110131   17.640075   22.863998 H          1 MOL1         0.0787
      12    C5      20.260974   19.261435   21.679401 C.3        1 MOL1        -0.1765
      13    H8      20.206141   20.330224   21.927323 H          1 MOL1         0.0830
      14    H9      21.141913   19.107797   21.042857 H          1 MOL1         0.0830
      15    O1      20.613178   19.251928   24.087024 O.3        1 MOL1        -0.5512
      16    H10     21.490718   19.658586   23.925523 H          1 MOL1         0.3776
@<TRIPOS>BOND
    1     1     2    1
    2     1     3    1
    3     1     4    1
    4     4     5    1
    5     4     6    1
    6     4     7    1
    7     7     8    1
    8     7     9    1
    9     7    10    1
   10    10    11    1
   11     1    12    1
   12    10    12    1
   13    12    13    1
   14    12    14    1
   15    10    15    1
   16    15    16    1
@<TRIPOS>SUBSTRUCTURE
       1 MOL1            1 RESIDUE      1      MOL     
@<SCITEGIC>MOL_PROPERTY
VConf Rank
SciTegic.value.IntegerValue
389

@<SCITEGIC>MOL_PROPERTY
Conf_Id
SciTegic.value.IntegerValue
33

@<SCITEGIC>MOL_PROPERTY
Delta U+W
SciTegic.value.DoubleValue
0.015

@<SCITEGIC>MOL_PROPERTY
U+W
SciTegic.value.DoubleValue
3.025

@<SCITEGIC>MOL_PROPERTY
Grad RMS
SciTegic.value.DoubleValue
0.000000

@<SCITEGIC>MOL_PROPERTY
U
SciTegic.value.DoubleValue
5.843

@<SCITEGIC>MOL_PROPERTY
W
SciTegic.value.DoubleValue
-2.819

@<SCITEGIC>MOL_PROPERTY
W(PB)
SciTegic.value.DoubleValue
-4.568

@<SCITEGIC>MOL_PROPERTY
W(SA)
SciTegic.value.DoubleValue
1.750

@<SCITEGIC>MOL_PROPERTY
Valence
SciTegic.value.DoubleValue
13.789

@<SCITEGIC>MOL_PROPERTY
Coulomb
SciTegic.value.DoubleValue
-8.574

@<SCITEGIC>MOL_PROPERTY
VdW
SciTegic.value.DoubleValue
0.628

@<SCITEGIC>MOL_PROPERTY
VdW6
SciTegic.value.DoubleValue
-3.284

@<SCITEGIC>MOL_PROPERTY
VdW12
SciTegic.value.DoubleValue
3.913

@<SCITEGIC>MOL_PROPERTY
Bond
SciTegic.value.DoubleValue
0.054

@<SCITEGIC>MOL_PROPERTY
Angle
SciTegic.value.DoubleValue
4.033

@<SCITEGIC>MOL_PROPERTY
Pdih
SciTegic.value.DoubleValue
9.702

@<SCITEGIC>MOL_PROPERTY
Idih
SciTegic.value.DoubleValue
0.000

@<SCITEGIC>MOL_PROPERTY
Tether
SciTegic.value.DoubleValue
0.000

@<TRIPOS>MOLECULE
guest-4_confgen4.mol2 : confsearch ligand conformer 390
          16          16           1
SMALL
USER_CHARGES
 
@<TRIPOS>ATOM
       1    C1      18.322891   18.111684   21.608005 C.3        1 MOL1        -0.1689
       2    H1      18.084781   18.629204   20.668482 H          1 MOL1         0.0830
       3    H2      17.601050   17.292419   21.729446 H          1 MOL1         0.0830
       4    C2      18.256272   19.106701   22.787210 C.3        1 MOL1        -0.1689
       5    H3      17.984890   20.105528   22.418535 H          1 MOL1         0.0830
       6    H4      17.500262   18.807368   23.526026 H          1 MOL1         0.0830
       7    C3      19.665630   19.135199   23.415966 C.3        1 MOL1        -0.1765
       8    H5      19.691539   18.469320   24.288636 H          1 MOL1         0.0830
       9    H6      19.950277   20.140480   23.754186 H          1 MOL1         0.0830
      10    C4      20.620064   18.590325   22.344910 C.3        1 MOL1         0.1214
      11    H7      21.504953   18.117159   22.794430 H          1 MOL1         0.0787
      12    C5      19.769684   17.575358   21.569246 C.3        1 MOL1        -0.1765
      13    H8      20.131495   17.427572   20.542964 H          1 MOL1         0.0830
      14    H9      19.815385   16.605763   22.082488 H          1 MOL1         0.0830
      15    O1      20.997751   19.646587   21.474007 O.3        1 MOL1        -0.5512
      16    H10     20.154827   20.003097   21.125377 H          1 MOL1         0.3776
@<TRIPOS>BOND
    1     1     2    1
    2     1     3    1
    3     1     4    1
    4     4     5    1
    5     4     6    1
    6     4     7    1
    7     7     8    1
    8     7     9    1
    9     7    10    1
   10    10    11    1
   11     1    12    1
   12    10    12    1
   13    12    13    1
   14    12    14    1
   15    10    15    1
   16    15    16    1
@<TRIPOS>SUBSTRUCTURE
       1 MOL1            1 RESIDUE      1      MOL     
@<SCITEGIC>MOL_PROPERTY
VConf Rank
SciTegic.value.IntegerValue
390

@<SCITEGIC>MOL_PROPERTY
Conf_Id
SciTegic.value.IntegerValue
20

@<SCITEGIC>MOL_PROPERTY
Delta U+W
SciTegic.value.DoubleValue
-0.483

@<SCITEGIC>MOL_PROPERTY
U+W
SciTegic.value.DoubleValue
2.527

@<SCITEGIC>MOL_PROPERTY
Grad RMS
SciTegic.value.DoubleValue
0.000000

@<SCITEGIC>MOL_PROPERTY
U
SciTegic.value.DoubleValue
4.508

@<SCITEGIC>MOL_PROPERTY
W
SciTegic.value.DoubleValue
-1.981

@<SCITEGIC>MOL_PROPERTY
W(PB)
SciTegic.value.DoubleValue
-3.712

@<SCITEGIC>MOL_PROPERTY
W(SA)
SciTegic.value.DoubleValue
1.732

@<SCITEGIC>MOL_PROPERTY
Valence
SciTegic.value.DoubleValue
14.705

@<SCITEGIC>MOL_PROPERTY
Coulomb
SciTegic.value.DoubleValue
-10.687

@<SCITEGIC>MOL_PROPERTY
VdW
SciTegic.value.DoubleValue
0.490

@<SCITEGIC>MOL_PROPERTY
VdW6
SciTegic.value.DoubleValue
-3.745

@<SCITEGIC>MOL_PROPERTY
VdW12
SciTegic.value.DoubleValue
4.235

@<SCITEGIC>MOL_PROPERTY
Bond
SciTegic.value.DoubleValue
0.068

@<SCITEGIC>MOL_PROPERTY
Angle
SciTegic.value.DoubleValue
3.901

@<SCITEGIC>MOL_PROPERTY
Pdih
SciTegic.value.DoubleValue
10.737

@<SCITEGIC>MOL_PROPERTY
Idih
SciTegic.value.DoubleValue
0.000

@<SCITEGIC>MOL_PROPERTY
Tether
SciTegic.value.DoubleValue
0.000

@<TRIPOS>MOLECULE
guest-4_confgen4.mol2 : confsearch ligand conformer 391
          16          16           1
SMALL
USER_CHARGES
 
@<TRIPOS>ATOM
       1    C1      17.954308   18.474861   22.684031 C.3        1 MOL1        -0.1689
       2    H1      17.574743   19.500979   22.580636 H          1 MOL1         0.0830
       3    H2      17.114667   17.823850   22.963013 H          1 MOL1         0.0830
       4    C2      19.086714   18.447267   23.719706 C.3        1 MOL1        -0.1689
       5    H3      18.881930   19.098463   24.580383 H          1 MOL1         0.0830
       6    H4      19.224251   17.421728   24.089813 H          1 MOL1         0.0830
       7    C3      20.335005   18.889439   22.934333 C.3        1 MOL1        -0.1765
       8    H5      21.248914   18.447311   23.351633 H          1 MOL1         0.0830
       9    H6      20.432141   19.982163   22.991807 H          1 MOL1         0.0830
      10    C4      20.107923   18.448920   21.472808 C.3        1 MOL1         0.1214
      11    H7      20.742434   17.581824   21.238163 H          1 MOL1         0.0787
      12    C5      18.624650   18.038032   21.368374 C.3        1 MOL1        -0.1765
      13    H8      18.129342   18.483083   20.495093 H          1 MOL1         0.0830
      14    H9      18.561788   16.946729   21.267444 H          1 MOL1         0.0830
      15    O1      20.381750   19.527696   20.586721 O.3        1 MOL1        -0.5512
      16    H10     21.329005   19.753188   20.702453 H          1 MOL1         0.3776
@<TRIPOS>BOND
    1     1     2    1
    2     1     3    1
    3     1     4    1
    4     4     5    1
    5     4     6    1
    6     4     7    1
    7     7     8    1
    8     7     9    1
    9     7    10    1
   10    10    11    1
   11     1    12    1
   12    10    12    1
   13    12    13    1
   14    12    14    1
   15    10    15    1
   16    15    16    1
@<TRIPOS>SUBSTRUCTURE
       1 MOL1            1 RESIDUE      1      MOL     
@<SCITEGIC>MOL_PROPERTY
VConf Rank
SciTegic.value.IntegerValue
391

@<SCITEGIC>MOL_PROPERTY
Conf_Id
SciTegic.value.IntegerValue
59

@<SCITEGIC>MOL_PROPERTY
Delta U+W
SciTegic.value.DoubleValue
0.000

@<SCITEGIC>MOL_PROPERTY
U+W
SciTegic.value.DoubleValue
3.010

@<SCITEGIC>MOL_PROPERTY
Grad RMS
SciTegic.value.DoubleValue
0.000000

@<SCITEGIC>MOL_PROPERTY
U
SciTegic.value.DoubleValue
5.843

@<SCITEGIC>MOL_PROPERTY
W
SciTegic.value.DoubleValue
-2.833

@<SCITEGIC>MOL_PROPERTY
W(PB)
SciTegic.value.DoubleValue
-4.568

@<SCITEGIC>MOL_PROPERTY
W(SA)
SciTegic.value.DoubleValue
1.735

@<SCITEGIC>MOL_PROPERTY
Valence
SciTegic.value.DoubleValue
13.789

@<SCITEGIC>MOL_PROPERTY
Coulomb
SciTegic.value.DoubleValue
-8.574

@<SCITEGIC>MOL_PROPERTY
VdW
SciTegic.value.DoubleValue
0.628

@<SCITEGIC>MOL_PROPERTY
VdW6
SciTegic.value.DoubleValue
-3.284

@<SCITEGIC>MOL_PROPERTY
VdW12
SciTegic.value.DoubleValue
3.912

@<SCITEGIC>MOL_PROPERTY
Bond
SciTegic.value.DoubleValue
0.054

@<SCITEGIC>MOL_PROPERTY
Angle
SciTegic.value.DoubleValue
4.034

@<SCITEGIC>MOL_PROPERTY
Pdih
SciTegic.value.DoubleValue
9.702

@<SCITEGIC>MOL_PROPERTY
Idih
SciTegic.value.DoubleValue
0.000

@<SCITEGIC>MOL_PROPERTY
Tether
SciTegic.value.DoubleValue
0.000

@<TRIPOS>MOLECULE
guest-4_confgen4.mol2 : confsearch ligand conformer 392
          16          16           1
SMALL
USER_CHARGES
 
@<TRIPOS>ATOM
       1    C1      19.186621   20.022955   22.294340 C.3        1 MOL1        -0.1689
       2    H1      19.217131   20.877057   21.604167 H          1 MOL1         0.0830
       3    H2      18.706801   20.351632   23.226738 H          1 MOL1         0.0830
       4    C2      20.585019   19.469423   22.600627 C.3        1 MOL1        -0.1689
       5    H3      21.192755   19.476971   21.685051 H          1 MOL1         0.0830
       6    H4      21.109846   20.055980   23.366884 H          1 MOL1         0.0830
       7    C3      20.335635   18.015440   23.042008 C.3        1 MOL1        -0.1765
       8    H5      20.186960   17.980768   24.129104 H          1 MOL1         0.0830
       9    H6      21.189078   17.367698   22.801001 H          1 MOL1         0.0830
      10    C4      19.038610   17.559671   22.342152 C.3        1 MOL1         0.1214
      11    H7      18.351133   17.138120   23.089942 H          1 MOL1         0.0787
      12    C5      18.419525   18.823382   21.708507 C.3        1 MOL1        -0.1765
      13    H8      18.550768   18.805758   20.617982 H          1 MOL1         0.0830
      14    H9      17.344282   18.894111   21.917545 H          1 MOL1         0.0830
      15    O1      19.335973   16.600557   21.334396 O.3        1 MOL1        -0.5512
      16    H10     18.482479   16.356388   20.917914 H          1 MOL1         0.3776
@<TRIPOS>BOND
    1     1     2    1
    2     1     3    1
    3     1     4    1
    4     4     5    1
    5     4     6    1
    6     4     7    1
    7     7     8    1
    8     7     9    1
    9     7    10    1
   10    10    11    1
   11     1    12    1
   12    10    12    1
   13    12    13    1
   14    12    14    1
   15    10    15    1
   16    15    16    1
@<TRIPOS>SUBSTRUCTURE
       1 MOL1            1 RESIDUE      1      MOL     
@<SCITEGIC>MOL_PROPERTY
VConf Rank
SciTegic.value.IntegerValue
392

@<SCITEGIC>MOL_PROPERTY
Conf_Id
SciTegic.value.IntegerValue
33

@<SCITEGIC>MOL_PROPERTY
Delta U+W
SciTegic.value.DoubleValue
0.015

@<SCITEGIC>MOL_PROPERTY
U+W
SciTegic.value.DoubleValue
3.025

@<SCITEGIC>MOL_PROPERTY
Grad RMS
SciTegic.value.DoubleValue
0.000000

@<SCITEGIC>MOL_PROPERTY
U
SciTegic.value.DoubleValue
5.843

@<SCITEGIC>MOL_PROPERTY
W
SciTegic.value.DoubleValue
-2.819

@<SCITEGIC>MOL_PROPERTY
W(PB)
SciTegic.value.DoubleValue
-4.568

@<SCITEGIC>MOL_PROPERTY
W(SA)
SciTegic.value.DoubleValue
1.750

@<SCITEGIC>MOL_PROPERTY
Valence
SciTegic.value.DoubleValue
13.789

@<SCITEGIC>MOL_PROPERTY
Coulomb
SciTegic.value.DoubleValue
-8.574

@<SCITEGIC>MOL_PROPERTY
VdW
SciTegic.value.DoubleValue
0.628

@<SCITEGIC>MOL_PROPERTY
VdW6
SciTegic.value.DoubleValue
-3.284

@<SCITEGIC>MOL_PROPERTY
VdW12
SciTegic.value.DoubleValue
3.913

@<SCITEGIC>MOL_PROPERTY
Bond
SciTegic.value.DoubleValue
0.054

@<SCITEGIC>MOL_PROPERTY
Angle
SciTegic.value.DoubleValue
4.033

@<SCITEGIC>MOL_PROPERTY
Pdih
SciTegic.value.DoubleValue
9.702

@<SCITEGIC>MOL_PROPERTY
Idih
SciTegic.value.DoubleValue
0.000

@<SCITEGIC>MOL_PROPERTY
Tether
SciTegic.value.DoubleValue
0.000

@<TRIPOS>MOLECULE
guest-4_confgen4.mol2 : confsearch ligand conformer 393
          16          16           1
SMALL
USER_CHARGES
 
@<TRIPOS>ATOM
       1    C1      19.766555   17.332897   22.207462 C.3        1 MOL1        -0.1689
       2    H1      19.008735   16.615922   22.552258 H          1 MOL1         0.0830
       3    H2      20.649868   16.759501   21.894456 H          1 MOL1         0.0830
       4    C2      20.105898   18.324566   23.341684 C.3        1 MOL1        -0.1689
       5    H3      19.513100   18.086883   24.235734 H          1 MOL1         0.0830
       6    H4      21.166984   18.270632   23.621304 H          1 MOL1         0.0830
       7    C3      19.740920   19.729929   22.818063 C.3        1 MOL1        -0.1765
       8    H5      20.643622   20.225150   22.436612 H          1 MOL1         0.0830
       9    H6      19.315605   20.369175   23.603224 H          1 MOL1         0.0830
      10    C4      18.764125   19.509863   21.655120 C.3        1 MOL1         0.1214
      11    H7      18.814500   20.329389   20.923804 H          1 MOL1         0.0787
      12    C5      19.210413   18.176393   21.040595 C.3        1 MOL1        -0.1765
      13    H8      18.393226   17.667843   20.511835 H          1 MOL1         0.0830
      14    H9      20.010176   18.368910   20.313314 H          1 MOL1         0.0830
      15    O1      17.447925   19.370370   22.169868 O.3        1 MOL1        -0.5512
      16    H10     17.500101   18.626341   22.804582 H          1 MOL1         0.3776
@<TRIPOS>BOND
    1     1     2    1
    2     1     3    1
    3     1     4    1
    4     4     5    1
    5     4     6    1
    6     4     7    1
    7     7     8    1
    8     7     9    1
    9     7    10    1
   10    10    11    1
   11     1    12    1
   12    10    12    1
   13    12    13    1
   14    12    14    1
   15    10    15    1
   16    15    16    1
@<TRIPOS>SUBSTRUCTURE
       1 MOL1            1 RESIDUE      1      MOL     
@<SCITEGIC>MOL_PROPERTY
VConf Rank
SciTegic.value.IntegerValue
393

@<SCITEGIC>MOL_PROPERTY
Conf_Id
SciTegic.value.IntegerValue
20

@<SCITEGIC>MOL_PROPERTY
Delta U+W
SciTegic.value.DoubleValue
-0.483

@<SCITEGIC>MOL_PROPERTY
U+W
SciTegic.value.DoubleValue
2.527

@<SCITEGIC>MOL_PROPERTY
Grad RMS
SciTegic.value.DoubleValue
0.000000

@<SCITEGIC>MOL_PROPERTY
U
SciTegic.value.DoubleValue
4.508

@<SCITEGIC>MOL_PROPERTY
W
SciTegic.value.DoubleValue
-1.981

@<SCITEGIC>MOL_PROPERTY
W(PB)
SciTegic.value.DoubleValue
-3.712

@<SCITEGIC>MOL_PROPERTY
W(SA)
SciTegic.value.DoubleValue
1.732

@<SCITEGIC>MOL_PROPERTY
Valence
SciTegic.value.DoubleValue
14.705

@<SCITEGIC>MOL_PROPERTY
Coulomb
SciTegic.value.DoubleValue
-10.687

@<SCITEGIC>MOL_PROPERTY
VdW
SciTegic.value.DoubleValue
0.490

@<SCITEGIC>MOL_PROPERTY
VdW6
SciTegic.value.DoubleValue
-3.745

@<SCITEGIC>MOL_PROPERTY
VdW12
SciTegic.value.DoubleValue
4.235

@<SCITEGIC>MOL_PROPERTY
Bond
SciTegic.value.DoubleValue
0.068

@<SCITEGIC>MOL_PROPERTY
Angle
SciTegic.value.DoubleValue
3.901

@<SCITEGIC>MOL_PROPERTY
Pdih
SciTegic.value.DoubleValue
10.737

@<SCITEGIC>MOL_PROPERTY
Idih
SciTegic.value.DoubleValue
0.000

@<SCITEGIC>MOL_PROPERTY
Tether
SciTegic.value.DoubleValue
0.000

@<TRIPOS>MOLECULE
guest-4_confgen4.mol2 : confsearch ligand conformer 394
          16          16           1
SMALL
USER_CHARGES
 
@<TRIPOS>ATOM
       1    C1      18.305629   19.244413   21.586493 C.3        1 MOL1        -0.1689
       2    H1      17.447485   18.558288   21.608815 H          1 MOL1         0.0830
       3    H2      17.993767   20.169215   21.082381 H          1 MOL1         0.0830
       4    C2      19.489416   18.564794   20.884715 C.3        1 MOL1        -0.1689
       5    H3      19.175303   17.971892   20.014910 H          1 MOL1         0.0830
       6    H4      20.202795   19.326974   20.541499 H          1 MOL1         0.0830
       7    C3      20.138662   17.699340   21.980172 C.3        1 MOL1        -0.1765
       8    H5      21.215776   17.576267   21.808341 H          1 MOL1         0.0830
       9    H6      19.679804   16.701243   21.974141 H          1 MOL1         0.0830
      10    C4      19.855602   18.409916   23.320560 C.3        1 MOL1         0.1214
      11    H7      20.773189   18.886874   23.694812 H          1 MOL1         0.0787
      12    C5      18.801829   19.496384   23.022260 C.3        1 MOL1        -0.1765
      13    H8      17.974258   19.483729   23.744055 H          1 MOL1         0.0830
      14    H9      19.279198   20.483274   23.079251 H          1 MOL1         0.0830
      15    O1      19.347309   17.481176   24.270806 O.3        1 MOL1        -0.5512
      16    H10     20.049542   16.811754   24.413202 H          1 MOL1         0.3776
@<TRIPOS>BOND
    1     1     2    1
    2     1     3    1
    3     1     4    1
    4     4     5    1
    5     4     6    1
    6     4     7    1
    7     7     8    1
    8     7     9    1
    9     7    10    1
   10    10    11    1
   11     1    12    1
   12    10    12    1
   13    12    13    1
   14    12    14    1
   15    10    15    1
   16    15    16    1
@<TRIPOS>SUBSTRUCTURE
       1 MOL1            1 RESIDUE      1      MOL     
@<SCITEGIC>MOL_PROPERTY
VConf Rank
SciTegic.value.IntegerValue
394

@<SCITEGIC>MOL_PROPERTY
Conf_Id
SciTegic.value.IntegerValue
59

@<SCITEGIC>MOL_PROPERTY
Delta U+W
SciTegic.value.DoubleValue
0.000

@<SCITEGIC>MOL_PROPERTY
U+W
SciTegic.value.DoubleValue
3.010

@<SCITEGIC>MOL_PROPERTY
Grad RMS
SciTegic.value.DoubleValue
0.000000

@<SCITEGIC>MOL_PROPERTY
U
SciTegic.value.DoubleValue
5.843

@<SCITEGIC>MOL_PROPERTY
W
SciTegic.value.DoubleValue
-2.833

@<SCITEGIC>MOL_PROPERTY
W(PB)
SciTegic.value.DoubleValue
-4.568

@<SCITEGIC>MOL_PROPERTY
W(SA)
SciTegic.value.DoubleValue
1.735

@<SCITEGIC>MOL_PROPERTY
Valence
SciTegic.value.DoubleValue
13.789

@<SCITEGIC>MOL_PROPERTY
Coulomb
SciTegic.value.DoubleValue
-8.574

@<SCITEGIC>MOL_PROPERTY
VdW
SciTegic.value.DoubleValue
0.628

@<SCITEGIC>MOL_PROPERTY
VdW6
SciTegic.value.DoubleValue
-3.284

@<SCITEGIC>MOL_PROPERTY
VdW12
SciTegic.value.DoubleValue
3.912

@<SCITEGIC>MOL_PROPERTY
Bond
SciTegic.value.DoubleValue
0.054

@<SCITEGIC>MOL_PROPERTY
Angle
SciTegic.value.DoubleValue
4.034

@<SCITEGIC>MOL_PROPERTY
Pdih
SciTegic.value.DoubleValue
9.702

@<SCITEGIC>MOL_PROPERTY
Idih
SciTegic.value.DoubleValue
0.000

@<SCITEGIC>MOL_PROPERTY
Tether
SciTegic.value.DoubleValue
0.000

@<TRIPOS>MOLECULE
guest-4_confgen4.mol2 : confsearch ligand conformer 395
          16          16           1
SMALL
USER_CHARGES
 
@<TRIPOS>ATOM
       1    C1      18.911555   17.291806   22.134677 C.3        1 MOL1        -0.1689
       2    H1      18.033524   16.708852   22.444490 H          1 MOL1         0.0830
       3    H2      19.475434   16.699735   21.400433 H          1 MOL1         0.0830
       4    C2      19.821709   17.649992   23.317492 C.3        1 MOL1        -0.1689
       5    H3      19.206390   17.913181   24.189153 H          1 MOL1         0.0830
       6    H4      20.485263   16.822111   23.602011 H          1 MOL1         0.0830
       7    C3      20.600398   18.890600   22.842508 C.3        1 MOL1        -0.1765
       8    H5      21.527645   18.575892   22.346266 H          1 MOL1         0.0830
       9    H6      20.875961   19.541326   23.683127 H          1 MOL1         0.0830
      10    C4      19.699719   19.609048   21.816639 C.3        1 MOL1         0.1214
      11    H7      20.273400   19.795160   20.896981 H          1 MOL1         0.0787
      12    C5      18.526191   18.650930   21.522397 C.3        1 MOL1        -0.1765
      13    H8      17.607034   19.016944   21.999855 H          1 MOL1         0.0830
      14    H9      18.335407   18.565731   20.444812 H          1 MOL1         0.0830
      15    O1      19.212272   20.829415   22.361614 O.3        1 MOL1        -0.5512
      16    H10     18.640713   21.235187   21.675903 H          1 MOL1         0.3776
@<TRIPOS>BOND
    1     1     2    1
    2     1     3    1
    3     1     4    1
    4     4     5    1
    5     4     6    1
    6     4     7    1
    7     7     8    1
    8     7     9    1
    9     7    10    1
   10    10    11    1
   11     1    12    1
   12    10    12    1
   13    12    13    1
   14    12    14    1
   15    10    15    1
   16    15    16    1
@<TRIPOS>SUBSTRUCTURE
       1 MOL1            1 RESIDUE      1      MOL     
@<SCITEGIC>MOL_PROPERTY
VConf Rank
SciTegic.value.IntegerValue
395

@<SCITEGIC>MOL_PROPERTY
Conf_Id
SciTegic.value.IntegerValue
33

@<SCITEGIC>MOL_PROPERTY
Delta U+W
SciTegic.value.DoubleValue
0.015

@<SCITEGIC>MOL_PROPERTY
U+W
SciTegic.value.DoubleValue
3.025

@<SCITEGIC>MOL_PROPERTY
Grad RMS
SciTegic.value.DoubleValue
0.000000

@<SCITEGIC>MOL_PROPERTY
U
SciTegic.value.DoubleValue
5.843

@<SCITEGIC>MOL_PROPERTY
W
SciTegic.value.DoubleValue
-2.819

@<SCITEGIC>MOL_PROPERTY
W(PB)
SciTegic.value.DoubleValue
-4.568

@<SCITEGIC>MOL_PROPERTY
W(SA)
SciTegic.value.DoubleValue
1.750

@<SCITEGIC>MOL_PROPERTY
Valence
SciTegic.value.DoubleValue
13.789

@<SCITEGIC>MOL_PROPERTY
Coulomb
SciTegic.value.DoubleValue
-8.574

@<SCITEGIC>MOL_PROPERTY
VdW
SciTegic.value.DoubleValue
0.628

@<SCITEGIC>MOL_PROPERTY
VdW6
SciTegic.value.DoubleValue
-3.284

@<SCITEGIC>MOL_PROPERTY
VdW12
SciTegic.value.DoubleValue
3.913

@<SCITEGIC>MOL_PROPERTY
Bond
SciTegic.value.DoubleValue
0.054

@<SCITEGIC>MOL_PROPERTY
Angle
SciTegic.value.DoubleValue
4.033

@<SCITEGIC>MOL_PROPERTY
Pdih
SciTegic.value.DoubleValue
9.702

@<SCITEGIC>MOL_PROPERTY
Idih
SciTegic.value.DoubleValue
0.000

@<SCITEGIC>MOL_PROPERTY
Tether
SciTegic.value.DoubleValue
0.000

@<TRIPOS>MOLECULE
guest-4_confgen4.mol2 : confsearch ligand conformer 396
          16          16           1
SMALL
USER_CHARGES
 
@<TRIPOS>ATOM
       1    C1      19.186231   19.553062   21.331209 C.3        1 MOL1        -0.1689
       2    H1      19.840912   20.429310   21.435181 H          1 MOL1         0.0830
       3    H2      18.553083   19.713021   20.447731 H          1 MOL1         0.0830
       4    C2      18.340604   19.374414   22.611061 C.3        1 MOL1        -0.1689
       5    H3      18.585254   20.164803   23.334012 H          1 MOL1         0.0830
       6    H4      17.265036   19.439909   22.396904 H          1 MOL1         0.0830
       7    C3      18.707994   17.991063   23.188815 C.3        1 MOL1        -0.1765
       8    H5      17.958795   17.251977   22.875647 H          1 MOL1         0.0830
       9    H6      18.737040   17.992835   24.286612 H          1 MOL1         0.0830
      10    C4      20.063077   17.619035   22.572100 C.3        1 MOL1         0.1214
      11    H7      20.191567   16.529088   22.505104 H          1 MOL1         0.0787
      12    C5      20.031948   18.270430   21.182973 C.3        1 MOL1        -0.1765
      13    H8      21.039343   18.478200   20.798278 H          1 MOL1         0.0830
      14    H9      19.540137   17.586016   20.479182 H          1 MOL1         0.0830
      15    O1      21.103460   18.205546   23.340485 O.3        1 MOL1        -0.5512
      16    H10     20.907272   19.165054   23.344621 H          1 MOL1         0.3776
@<TRIPOS>BOND
    1     1     2    1
    2     1     3    1
    3     1     4    1
    4     4     5    1
    5     4     6    1
    6     4     7    1
    7     7     8    1
    8     7     9    1
    9     7    10    1
   10    10    11    1
   11     1    12    1
   12    10    12    1
   13    12    13    1
   14    12    14    1
   15    10    15    1
   16    15    16    1
@<TRIPOS>SUBSTRUCTURE
       1 MOL1            1 RESIDUE      1      MOL     
@<SCITEGIC>MOL_PROPERTY
VConf Rank
SciTegic.value.IntegerValue
396

@<SCITEGIC>MOL_PROPERTY
Conf_Id
SciTegic.value.IntegerValue
20

@<SCITEGIC>MOL_PROPERTY
Delta U+W
SciTegic.value.DoubleValue
-0.483

@<SCITEGIC>MOL_PROPERTY
U+W
SciTegic.value.DoubleValue
2.527

@<SCITEGIC>MOL_PROPERTY
Grad RMS
SciTegic.value.DoubleValue
0.000000

@<SCITEGIC>MOL_PROPERTY
U
SciTegic.value.DoubleValue
4.508

@<SCITEGIC>MOL_PROPERTY
W
SciTegic.value.DoubleValue
-1.981

@<SCITEGIC>MOL_PROPERTY
W(PB)
SciTegic.value.DoubleValue
-3.712

@<SCITEGIC>MOL_PROPERTY
W(SA)
SciTegic.value.DoubleValue
1.732

@<SCITEGIC>MOL_PROPERTY
Valence
SciTegic.value.DoubleValue
14.705

@<SCITEGIC>MOL_PROPERTY
Coulomb
SciTegic.value.DoubleValue
-10.687

@<SCITEGIC>MOL_PROPERTY
VdW
SciTegic.value.DoubleValue
0.490

@<SCITEGIC>MOL_PROPERTY
VdW6
SciTegic.value.DoubleValue
-3.745

@<SCITEGIC>MOL_PROPERTY
VdW12
SciTegic.value.DoubleValue
4.235

@<SCITEGIC>MOL_PROPERTY
Bond
SciTegic.value.DoubleValue
0.068

@<SCITEGIC>MOL_PROPERTY
Angle
SciTegic.value.DoubleValue
3.901

@<SCITEGIC>MOL_PROPERTY
Pdih
SciTegic.value.DoubleValue
10.737

@<SCITEGIC>MOL_PROPERTY
Idih
SciTegic.value.DoubleValue
0.000

@<SCITEGIC>MOL_PROPERTY
Tether
SciTegic.value.DoubleValue
0.000

@<TRIPOS>MOLECULE
guest-4_confgen4.mol2 : confsearch ligand conformer 397
          16          16           1
SMALL
USER_CHARGES
 
@<TRIPOS>ATOM
       1    C1      18.876852   19.921247   22.428229 C.3        1 MOL1        -0.1689
       2    H1      17.860931   19.900854   22.009700 H          1 MOL1         0.0830
       3    H2      19.074966   20.935191   22.801476 H          1 MOL1         0.0830
       4    C2      19.883900   19.484288   21.355547 C.3        1 MOL1        -0.1689
       5    H3      19.638056   19.885949   20.363081 H          1 MOL1         0.0830
       6    H4      20.889426   19.833830   21.628246 H          1 MOL1         0.0830
       7    C3      19.839440   17.945710   21.392410 C.3        1 MOL1        -0.1765
       8    H5      20.801505   17.509362   21.094287 H          1 MOL1         0.0830
       9    H6      19.074384   17.587484   20.690164 H          1 MOL1         0.0830
      10    C4      19.463277   17.556001   22.837507 C.3        1 MOL1         0.1214
      11    H7      20.344429   17.157714   23.361393 H          1 MOL1         0.0787
      12    C5      19.001576   18.854165   23.531365 C.3        1 MOL1        -0.1765
      13    H8      18.056670   18.722687   24.075320 H          1 MOL1         0.0830
      14    H9      19.764614   19.162631   24.257797 H          1 MOL1         0.0830
      15    O1      18.408125   16.601808   22.829805 O.3        1 MOL1        -0.5512
      16    H10     18.751415   15.806611   22.370081 H          1 MOL1         0.3776
@<TRIPOS>BOND
    1     1     2    1
    2     1     3    1
    3     1     4    1
    4     4     5    1
    5     4     6    1
    6     4     7    1
    7     7     8    1
    8     7     9    1
    9     7    10    1
   10    10    11    1
   11     1    12    1
   12    10    12    1
   13    12    13    1
   14    12    14    1
   15    10    15    1
   16    15    16    1
@<TRIPOS>SUBSTRUCTURE
       1 MOL1            1 RESIDUE      1      MOL     
@<SCITEGIC>MOL_PROPERTY
VConf Rank
SciTegic.value.IntegerValue
397

@<SCITEGIC>MOL_PROPERTY
Conf_Id
SciTegic.value.IntegerValue
59

@<SCITEGIC>MOL_PROPERTY
Delta U+W
SciTegic.value.DoubleValue
0.000

@<SCITEGIC>MOL_PROPERTY
U+W
SciTegic.value.DoubleValue
3.010

@<SCITEGIC>MOL_PROPERTY
Grad RMS
SciTegic.value.DoubleValue
0.000000

@<SCITEGIC>MOL_PROPERTY
U
SciTegic.value.DoubleValue
5.843

@<SCITEGIC>MOL_PROPERTY
W
SciTegic.value.DoubleValue
-2.833

@<SCITEGIC>MOL_PROPERTY
W(PB)
SciTegic.value.DoubleValue
-4.568

@<SCITEGIC>MOL_PROPERTY
W(SA)
SciTegic.value.DoubleValue
1.735

@<SCITEGIC>MOL_PROPERTY
Valence
SciTegic.value.DoubleValue
13.789

@<SCITEGIC>MOL_PROPERTY
Coulomb
SciTegic.value.DoubleValue
-8.574

@<SCITEGIC>MOL_PROPERTY
VdW
SciTegic.value.DoubleValue
0.628

@<SCITEGIC>MOL_PROPERTY
VdW6
SciTegic.value.DoubleValue
-3.284

@<SCITEGIC>MOL_PROPERTY
VdW12
SciTegic.value.DoubleValue
3.912

@<SCITEGIC>MOL_PROPERTY
Bond
SciTegic.value.DoubleValue
0.054

@<SCITEGIC>MOL_PROPERTY
Angle
SciTegic.value.DoubleValue
4.034

@<SCITEGIC>MOL_PROPERTY
Pdih
SciTegic.value.DoubleValue
9.702

@<SCITEGIC>MOL_PROPERTY
Idih
SciTegic.value.DoubleValue
0.000

@<SCITEGIC>MOL_PROPERTY
Tether
SciTegic.value.DoubleValue
0.000

@<TRIPOS>MOLECULE
guest-4_confgen4.mol2 : confsearch ligand conformer 398
          16          16           1
SMALL
USER_CHARGES
 
@<TRIPOS>ATOM
       1    C1      20.230894   19.295232   21.298684 C.3        1 MOL1        -0.1689
       2    H1      20.951860   19.064958   20.502480 H          1 MOL1         0.0830
       3    H2      19.962539   20.358141   21.222316 H          1 MOL1         0.0830
       4    C2      20.792336   19.003701   22.697083 C.3        1 MOL1        -0.1689
       5    H3      21.379169   18.074895   22.672055 H          1 MOL1         0.0830
       6    H4      21.440459   19.810437   23.065532 H          1 MOL1         0.0830
       7    C3      19.545811   18.802466   23.578421 C.3        1 MOL1        -0.1765
       8    H5      19.237602   19.765387   24.006061 H          1 MOL1         0.0830
       9    H6      19.746413   18.116017   24.411827 H          1 MOL1         0.0830
      10    C4      18.428956   18.284354   22.648908 C.3        1 MOL1         0.1214
      11    H7      17.529329   18.902759   22.782195 H          1 MOL1         0.0787
      12    C5      18.960934   18.429497   21.207496 C.3        1 MOL1        -0.1765
      13    H8      19.221488   17.444459   20.796895 H          1 MOL1         0.0830
      14    H9      18.212674   18.883621   20.545134 H          1 MOL1         0.0830
      15    O1      18.148058   16.919036   22.933338 O.3        1 MOL1        -0.5512
      16    H10     17.444094   16.640952   22.309933 H          1 MOL1         0.3776
@<TRIPOS>BOND
    1     1     2    1
    2     1     3    1
    3     1     4    1
    4     4     5    1
    5     4     6    1
    6     4     7    1
    7     7     8    1
    8     7     9    1
    9     7    10    1
   10    10    11    1
   11     1    12    1
   12    10    12    1
   13    12    13    1
   14    12    14    1
   15    10    15    1
   16    15    16    1
@<TRIPOS>SUBSTRUCTURE
       1 MOL1            1 RESIDUE      1      MOL     
@<SCITEGIC>MOL_PROPERTY
VConf Rank
SciTegic.value.IntegerValue
398

@<SCITEGIC>MOL_PROPERTY
Conf_Id
SciTegic.value.IntegerValue
33

@<SCITEGIC>MOL_PROPERTY
Delta U+W
SciTegic.value.DoubleValue
0.015

@<SCITEGIC>MOL_PROPERTY
U+W
SciTegic.value.DoubleValue
3.025

@<SCITEGIC>MOL_PROPERTY
Grad RMS
SciTegic.value.DoubleValue
0.000000

@<SCITEGIC>MOL_PROPERTY
U
SciTegic.value.DoubleValue
5.843

@<SCITEGIC>MOL_PROPERTY
W
SciTegic.value.DoubleValue
-2.819

@<SCITEGIC>MOL_PROPERTY
W(PB)
SciTegic.value.DoubleValue
-4.568

@<SCITEGIC>MOL_PROPERTY
W(SA)
SciTegic.value.DoubleValue
1.750

@<SCITEGIC>MOL_PROPERTY
Valence
SciTegic.value.DoubleValue
13.789

@<SCITEGIC>MOL_PROPERTY
Coulomb
SciTegic.value.DoubleValue
-8.574

@<SCITEGIC>MOL_PROPERTY
VdW
SciTegic.value.DoubleValue
0.628

@<SCITEGIC>MOL_PROPERTY
VdW6
SciTegic.value.DoubleValue
-3.284

@<SCITEGIC>MOL_PROPERTY
VdW12
SciTegic.value.DoubleValue
3.913

@<SCITEGIC>MOL_PROPERTY
Bond
SciTegic.value.DoubleValue
0.054

@<SCITEGIC>MOL_PROPERTY
Angle
SciTegic.value.DoubleValue
4.033

@<SCITEGIC>MOL_PROPERTY
Pdih
SciTegic.value.DoubleValue
9.702

@<SCITEGIC>MOL_PROPERTY
Idih
SciTegic.value.DoubleValue
0.000

@<SCITEGIC>MOL_PROPERTY
Tether
SciTegic.value.DoubleValue
0.000

@<TRIPOS>MOLECULE
guest-4_confgen4.mol2 : confsearch ligand conformer 399
          16          16           1
SMALL
USER_CHARGES
 
@<TRIPOS>ATOM
       1    C1      19.888124   19.783369   22.643765 C.3        1 MOL1        -0.1689
       2    H1      19.159386   20.605109   22.673949 H          1 MOL1         0.0830
       3    H2      20.857202   20.185140   22.970054 H          1 MOL1         0.0830
       4    C2      19.966155   19.202782   21.214831 C.3        1 MOL1        -0.1689
       5    H3      19.275974   19.744218   20.553224 H          1 MOL1         0.0830
       6    H4      20.976341   19.299932   20.794015 H          1 MOL1         0.0830
       7    C3      19.549789   17.720314   21.321423 C.3        1 MOL1        -0.1765
       8    H5      20.447369   17.089854   21.371324 H          1 MOL1         0.0830
       9    H6      18.957833   17.391037   20.457033 H          1 MOL1         0.0830
      10    C4      18.775386   17.589986   22.639872 C.3        1 MOL1         0.1214
      11    H7      18.853123   16.575280   23.056178 H          1 MOL1         0.0787
      12    C5      19.428722   18.629608   23.560358 C.3        1 MOL1        -0.1765
      13    H8      18.747496   18.971918   24.350775 H          1 MOL1         0.0830
      14    H9      20.303062   18.176470   24.045967 H          1 MOL1         0.0830
      15    O1      17.417855   17.945608   22.422043 O.3        1 MOL1        -0.5512
      16    H10     17.447938   18.853139   22.055102 H          1 MOL1         0.3776
@<TRIPOS>BOND
    1     1     2    1
    2     1     3    1
    3     1     4    1
    4     4     5    1
    5     4     6    1
    6     4     7    1
    7     7     8    1
    8     7     9    1
    9     7    10    1
   10    10    11    1
   11     1    12    1
   12    10    12    1
   13    12    13    1
   14    12    14    1
   15    10    15    1
   16    15    16    1
@<TRIPOS>SUBSTRUCTURE
       1 MOL1            1 RESIDUE      1      MOL     
@<SCITEGIC>MOL_PROPERTY
VConf Rank
SciTegic.value.IntegerValue
399

@<SCITEGIC>MOL_PROPERTY
Conf_Id
SciTegic.value.IntegerValue
20

@<SCITEGIC>MOL_PROPERTY
Delta U+W
SciTegic.value.DoubleValue
-0.483

@<SCITEGIC>MOL_PROPERTY
U+W
SciTegic.value.DoubleValue
2.527

@<SCITEGIC>MOL_PROPERTY
Grad RMS
SciTegic.value.DoubleValue
0.000000

@<SCITEGIC>MOL_PROPERTY
U
SciTegic.value.DoubleValue
4.508

@<SCITEGIC>MOL_PROPERTY
W
SciTegic.value.DoubleValue
-1.981

@<SCITEGIC>MOL_PROPERTY
W(PB)
SciTegic.value.DoubleValue
-3.712

@<SCITEGIC>MOL_PROPERTY
W(SA)
SciTegic.value.DoubleValue
1.732

@<SCITEGIC>MOL_PROPERTY
Valence
SciTegic.value.DoubleValue
14.705

@<SCITEGIC>MOL_PROPERTY
Coulomb
SciTegic.value.DoubleValue
-10.687

@<SCITEGIC>MOL_PROPERTY
VdW
SciTegic.value.DoubleValue
0.490

@<SCITEGIC>MOL_PROPERTY
VdW6
SciTegic.value.DoubleValue
-3.745

@<SCITEGIC>MOL_PROPERTY
VdW12
SciTegic.value.DoubleValue
4.235

@<SCITEGIC>MOL_PROPERTY
Bond
SciTegic.value.DoubleValue
0.068

@<SCITEGIC>MOL_PROPERTY
Angle
SciTegic.value.DoubleValue
3.901

@<SCITEGIC>MOL_PROPERTY
Pdih
SciTegic.value.DoubleValue
10.737

@<SCITEGIC>MOL_PROPERTY
Idih
SciTegic.value.DoubleValue
0.000

@<SCITEGIC>MOL_PROPERTY
Tether
SciTegic.value.DoubleValue
0.000

@<TRIPOS>MOLECULE
guest-4_confgen4.mol2 : confsearch ligand conformer 400
          16          16           1
SMALL
USER_CHARGES
 
@<TRIPOS>ATOM
       1    C1      18.147436   18.866976   21.572450 C.3        1 MOL1        -0.1689
       2    H1      17.877001   17.931972   21.062244 H          1 MOL1         0.0830
       3    H2      17.371483   19.613833   21.356246 H          1 MOL1         0.0830
       4    C2      19.540429   19.319146   21.113276 C.3        1 MOL1        -0.1689
       5    H3      19.699256   19.157108   20.038438 H          1 MOL1         0.0830
       6    H4      19.668754   20.390422   21.321906 H          1 MOL1         0.0830
       7    C3      20.514167   18.499431   21.979566 C.3        1 MOL1        -0.1765
       8    H5      21.455497   19.039183   22.145130 H          1 MOL1         0.0830
       9    H6      20.751177   17.557098   21.467103 H          1 MOL1         0.0830
      10    C4      19.781507   18.216116   23.307957 C.3        1 MOL1         0.1214
      11    H7      20.201955   18.839999   24.110150 H          1 MOL1         0.0787
      12    C5      18.305652   18.603865   23.081381 C.3        1 MOL1        -0.1765
      13    H8      17.612265   17.827444   23.431245 H          1 MOL1         0.0830
      14    H9      18.087121   19.522915   23.640552 H          1 MOL1         0.0830
      15    O1      19.880976   16.836073   23.638829 O.3        1 MOL1        -0.5512
      16    H10     20.834891   16.643954   23.759939 H          1 MOL1         0.3776
@<TRIPOS>BOND
    1     1     2    1
    2     1     3    1
    3     1     4    1
    4     4     5    1
    5     4     6    1
    6     4     7    1
    7     7     8    1
    8     7     9    1
    9     7    10    1
   10    10    11    1
   11     1    12    1
   12    10    12    1
   13    12    13    1
   14    12    14    1
   15    10    15    1
   16    15    16    1
@<TRIPOS>SUBSTRUCTURE
       1 MOL1            1 RESIDUE      1      MOL     
@<SCITEGIC>MOL_PROPERTY
VConf Rank
SciTegic.value.IntegerValue
400

@<SCITEGIC>MOL_PROPERTY
Conf_Id
SciTegic.value.IntegerValue
59

@<SCITEGIC>MOL_PROPERTY
Delta U+W
SciTegic.value.DoubleValue
0.000

@<SCITEGIC>MOL_PROPERTY
U+W
SciTegic.value.DoubleValue
3.010

@<SCITEGIC>MOL_PROPERTY
Grad RMS
SciTegic.value.DoubleValue
0.000000

@<SCITEGIC>MOL_PROPERTY
U
SciTegic.value.DoubleValue
5.843

@<SCITEGIC>MOL_PROPERTY
W
SciTegic.value.DoubleValue
-2.833

@<SCITEGIC>MOL_PROPERTY
W(PB)
SciTegic.value.DoubleValue
-4.568

@<SCITEGIC>MOL_PROPERTY
W(SA)
SciTegic.value.DoubleValue
1.735

@<SCITEGIC>MOL_PROPERTY
Valence
SciTegic.value.DoubleValue
13.789

@<SCITEGIC>MOL_PROPERTY
Coulomb
SciTegic.value.DoubleValue
-8.574

@<SCITEGIC>MOL_PROPERTY
VdW
SciTegic.value.DoubleValue
0.628

@<SCITEGIC>MOL_PROPERTY
VdW6
SciTegic.value.DoubleValue
-3.284

@<SCITEGIC>MOL_PROPERTY
VdW12
SciTegic.value.DoubleValue
3.912

@<SCITEGIC>MOL_PROPERTY
Bond
SciTegic.value.DoubleValue
0.054

@<SCITEGIC>MOL_PROPERTY
Angle
SciTegic.value.DoubleValue
4.034

@<SCITEGIC>MOL_PROPERTY
Pdih
SciTegic.value.DoubleValue
9.702

@<SCITEGIC>MOL_PROPERTY
Idih
SciTegic.value.DoubleValue
0.000

@<SCITEGIC>MOL_PROPERTY
Tether
SciTegic.value.DoubleValue
0.000

@<TRIPOS>MOLECULE
guest-4_confgen4.mol2 : confsearch ligand conformer 401
          16          16           1
SMALL
USER_CHARGES
 
@<TRIPOS>ATOM
       1    C1      18.202188   18.387263   21.623210 C.3        1 MOL1        -0.1689
       2    H1      17.829405   18.055238   20.644665 H          1 MOL1         0.0830
       3    H2      17.347057   18.461892   22.309362 H          1 MOL1         0.0830
       4    C2      18.921397   19.740933   21.545480 C.3        1 MOL1        -0.1689
       5    H3      19.526217   19.784532   20.628980 H          1 MOL1         0.0830
       6    H4      18.221841   20.587803   21.536751 H          1 MOL1         0.0830
       7    C3      19.847457   19.756347   22.775622 C.3        1 MOL1        -0.1765
       8    H5      19.316568   20.194088   23.630972 H          1 MOL1         0.0830
       9    H6      20.747267   20.359988   22.596791 H          1 MOL1         0.0830
      10    C4      20.183218   18.284250   23.091838 C.3        1 MOL1         0.1214
      11    H7      19.979025   18.085113   24.153991 H          1 MOL1         0.0787
      12    C5      19.255173   17.426782   22.205713 C.3        1 MOL1        -0.1765
      13    H8      19.826096   16.972336   21.384551 H          1 MOL1         0.0830
      14    H9      18.785748   16.616692   22.778636 H          1 MOL1         0.0830
      15    O1      21.545133   18.014217   22.781728 O.3        1 MOL1        -0.5512
      16    H10     21.698826   17.068436   22.990068 H          1 MOL1         0.3776
@<TRIPOS>BOND
    1     1     2    1
    2     1     3    1
    3     1     4    1
    4     4     5    1
    5     4     6    1
    6     4     7    1
    7     7     8    1
    8     7     9    1
    9     7    10    1
   10    10    11    1
   11     1    12    1
   12    10    12    1
   13    12    13    1
   14    12    14    1
   15    10    15    1
   16    15    16    1
@<TRIPOS>SUBSTRUCTURE
       1 MOL1            1 RESIDUE      1      MOL     
@<SCITEGIC>MOL_PROPERTY
VConf Rank
SciTegic.value.IntegerValue
401

@<SCITEGIC>MOL_PROPERTY
Conf_Id
SciTegic.value.IntegerValue
33

@<SCITEGIC>MOL_PROPERTY
Delta U+W
SciTegic.value.DoubleValue
0.015

@<SCITEGIC>MOL_PROPERTY
U+W
SciTegic.value.DoubleValue
3.025

@<SCITEGIC>MOL_PROPERTY
Grad RMS
SciTegic.value.DoubleValue
0.000000

@<SCITEGIC>MOL_PROPERTY
U
SciTegic.value.DoubleValue
5.843

@<SCITEGIC>MOL_PROPERTY
W
SciTegic.value.DoubleValue
-2.819

@<SCITEGIC>MOL_PROPERTY
W(PB)
SciTegic.value.DoubleValue
-4.568

@<SCITEGIC>MOL_PROPERTY
W(SA)
SciTegic.value.DoubleValue
1.750

@<SCITEGIC>MOL_PROPERTY
Valence
SciTegic.value.DoubleValue
13.789

@<SCITEGIC>MOL_PROPERTY
Coulomb
SciTegic.value.DoubleValue
-8.574

@<SCITEGIC>MOL_PROPERTY
VdW
SciTegic.value.DoubleValue
0.628

@<SCITEGIC>MOL_PROPERTY
VdW6
SciTegic.value.DoubleValue
-3.284

@<SCITEGIC>MOL_PROPERTY
VdW12
SciTegic.value.DoubleValue
3.913

@<SCITEGIC>MOL_PROPERTY
Bond
SciTegic.value.DoubleValue
0.054

@<SCITEGIC>MOL_PROPERTY
Angle
SciTegic.value.DoubleValue
4.033

@<SCITEGIC>MOL_PROPERTY
Pdih
SciTegic.value.DoubleValue
9.702

@<SCITEGIC>MOL_PROPERTY
Idih
SciTegic.value.DoubleValue
0.000

@<SCITEGIC>MOL_PROPERTY
Tether
SciTegic.value.DoubleValue
0.000

@<TRIPOS>MOLECULE
guest-4_confgen4.mol2 : confsearch ligand conformer 402
          16          16           1
SMALL
USER_CHARGES
 
@<TRIPOS>ATOM
       1    C1      18.201128   18.689561   21.631158 C.3        1 MOL1        -0.1689
       2    H1      17.511739   19.432214   22.055937 H          1 MOL1         0.0830
       3    H2      17.701562   18.225417   20.769764 H          1 MOL1         0.0830
       4    C2      18.571917   17.642821   22.704411 C.3        1 MOL1        -0.1689
       5    H3      18.061159   17.878272   23.648295 H          1 MOL1         0.0830
       6    H4      18.267212   16.630947   22.403971 H          1 MOL1         0.0830
       7    C3      20.101785   17.729352   22.890030 C.3        1 MOL1        -0.1765
       8    H5      20.588355   16.944350   22.296193 H          1 MOL1         0.0830
       9    H6      20.402521   17.590993   23.937131 H          1 MOL1         0.0830
      10    C4      20.519703   19.100297   22.341535 C.3        1 MOL1         0.1214
      11    H7      21.555971   19.090299   21.974068 H          1 MOL1         0.0787
      12    C5      19.521021   19.368445   21.207653 C.3        1 MOL1        -0.1765
      13    H8      19.392948   20.441290   21.011173 H          1 MOL1         0.0830
      14    H9      19.894163   18.902247   20.286216 H          1 MOL1         0.0830
      15    O1      20.350970   20.080732   23.354986 O.3        1 MOL1        -0.5512
      16    H10     19.409596   20.016528   23.617392 H          1 MOL1         0.3776
@<TRIPOS>BOND
    1     1     2    1
    2     1     3    1
    3     1     4    1
    4     4     5    1
    5     4     6    1
    6     4     7    1
    7     7     8    1
    8     7     9    1
    9     7    10    1
   10    10    11    1
   11     1    12    1
   12    10    12    1
   13    12    13    1
   14    12    14    1
   15    10    15    1
   16    15    16    1
@<TRIPOS>SUBSTRUCTURE
       1 MOL1            1 RESIDUE      1      MOL     
@<SCITEGIC>MOL_PROPERTY
VConf Rank
SciTegic.value.IntegerValue
402

@<SCITEGIC>MOL_PROPERTY
Conf_Id
SciTegic.value.IntegerValue
20

@<SCITEGIC>MOL_PROPERTY
Delta U+W
SciTegic.value.DoubleValue
-0.483

@<SCITEGIC>MOL_PROPERTY
U+W
SciTegic.value.DoubleValue
2.527

@<SCITEGIC>MOL_PROPERTY
Grad RMS
SciTegic.value.DoubleValue
0.000000

@<SCITEGIC>MOL_PROPERTY
U
SciTegic.value.DoubleValue
4.508

@<SCITEGIC>MOL_PROPERTY
W
SciTegic.value.DoubleValue
-1.981

@<SCITEGIC>MOL_PROPERTY
W(PB)
SciTegic.value.DoubleValue
-3.712

@<SCITEGIC>MOL_PROPERTY
W(SA)
SciTegic.value.DoubleValue
1.732

@<SCITEGIC>MOL_PROPERTY
Valence
SciTegic.value.DoubleValue
14.705

@<SCITEGIC>MOL_PROPERTY
Coulomb
SciTegic.value.DoubleValue
-10.687

@<SCITEGIC>MOL_PROPERTY
VdW
SciTegic.value.DoubleValue
0.490

@<SCITEGIC>MOL_PROPERTY
VdW6
SciTegic.value.DoubleValue
-3.745

@<SCITEGIC>MOL_PROPERTY
VdW12
SciTegic.value.DoubleValue
4.235

@<SCITEGIC>MOL_PROPERTY
Bond
SciTegic.value.DoubleValue
0.068

@<SCITEGIC>MOL_PROPERTY
Angle
SciTegic.value.DoubleValue
3.901

@<SCITEGIC>MOL_PROPERTY
Pdih
SciTegic.value.DoubleValue
10.737

@<SCITEGIC>MOL_PROPERTY
Idih
SciTegic.value.DoubleValue
0.000

@<SCITEGIC>MOL_PROPERTY
Tether
SciTegic.value.DoubleValue
0.000

@<TRIPOS>MOLECULE
guest-4_confgen4.mol2 : confsearch ligand conformer 403
          16          16           1
SMALL
USER_CHARGES
 
@<TRIPOS>ATOM
       1    C1      20.287723   19.032146   23.324586 C.3        1 MOL1        -0.1689
       2    H1      20.851864   18.141875   23.635776 H          1 MOL1         0.0830
       3    H2      20.695878   19.901769   23.857325 H          1 MOL1         0.0830
       4    C2      18.794217   18.819464   23.607312 C.3        1 MOL1        -0.1689
       5    H3      18.618704   18.303781   24.561265 H          1 MOL1         0.0830
       6    H4      18.282668   19.791407   23.642933 H          1 MOL1         0.0830
       7    C3      18.287672   18.008102   22.400804 C.3        1 MOL1        -0.1765
       8    H5      17.229092   18.213218   22.195420 H          1 MOL1         0.0830
       9    H6      18.387900   16.935603   22.616407 H          1 MOL1         0.0830
      10    C4      19.183408   18.399450   21.206574 C.3        1 MOL1         0.1214
      11    H7      18.625734   19.046666   20.514021 H          1 MOL1         0.0787
      12    C5      20.372051   19.187376   21.794905 C.3        1 MOL1        -0.1765
      13    H8      21.337539   18.837572   21.405685 H          1 MOL1         0.0830
      14    H9      20.267761   20.246503   21.525731 H          1 MOL1         0.0830
      15    O1      19.650130   17.232600   20.539850 O.3        1 MOL1        -0.5512
      16    H10     18.857226   16.768005   20.197817 H          1 MOL1         0.3776
@<TRIPOS>BOND
    1     1     2    1
    2     1     3    1
    3     1     4    1
    4     4     5    1
    5     4     6    1
    6     4     7    1
    7     7     8    1
    8     7     9    1
    9     7    10    1
   10    10    11    1
   11     1    12    1
   12    10    12    1
   13    12    13    1
   14    12    14    1
   15    10    15    1
   16    15    16    1
@<TRIPOS>SUBSTRUCTURE
       1 MOL1            1 RESIDUE      1      MOL     
@<SCITEGIC>MOL_PROPERTY
VConf Rank
SciTegic.value.IntegerValue
403

@<SCITEGIC>MOL_PROPERTY
Conf_Id
SciTegic.value.IntegerValue
59

@<SCITEGIC>MOL_PROPERTY
Delta U+W
SciTegic.value.DoubleValue
0.000

@<SCITEGIC>MOL_PROPERTY
U+W
SciTegic.value.DoubleValue
3.010

@<SCITEGIC>MOL_PROPERTY
Grad RMS
SciTegic.value.DoubleValue
0.000000

@<SCITEGIC>MOL_PROPERTY
U
SciTegic.value.DoubleValue
5.843

@<SCITEGIC>MOL_PROPERTY
W
SciTegic.value.DoubleValue
-2.833

@<SCITEGIC>MOL_PROPERTY
W(PB)
SciTegic.value.DoubleValue
-4.568

@<SCITEGIC>MOL_PROPERTY
W(SA)
SciTegic.value.DoubleValue
1.735

@<SCITEGIC>MOL_PROPERTY
Valence
SciTegic.value.DoubleValue
13.789

@<SCITEGIC>MOL_PROPERTY
Coulomb
SciTegic.value.DoubleValue
-8.574

@<SCITEGIC>MOL_PROPERTY
VdW
SciTegic.value.DoubleValue
0.628

@<SCITEGIC>MOL_PROPERTY
VdW6
SciTegic.value.DoubleValue
-3.284

@<SCITEGIC>MOL_PROPERTY
VdW12
SciTegic.value.DoubleValue
3.912

@<SCITEGIC>MOL_PROPERTY
Bond
SciTegic.value.DoubleValue
0.054

@<SCITEGIC>MOL_PROPERTY
Angle
SciTegic.value.DoubleValue
4.034

@<SCITEGIC>MOL_PROPERTY
Pdih
SciTegic.value.DoubleValue
9.702

@<SCITEGIC>MOL_PROPERTY
Idih
SciTegic.value.DoubleValue
0.000

@<SCITEGIC>MOL_PROPERTY
Tether
SciTegic.value.DoubleValue
0.000

@<TRIPOS>MOLECULE
guest-4_confgen4.mol2 : confsearch ligand conformer 404
          16          16           1
SMALL
USER_CHARGES
 
@<TRIPOS>ATOM
       1    C1      18.928816   18.125562   21.047435 C.3        1 MOL1        -0.1689
       2    H1      17.995605   17.712558   20.640857 H          1 MOL1         0.0830
       3    H2      19.616596   18.309437   20.210315 H          1 MOL1         0.0830
       4    C2      19.590979   17.183559   22.062273 C.3        1 MOL1        -0.1689
       5    H3      18.819062   16.718266   22.691022 H          1 MOL1         0.0830
       6    H4      20.168356   16.384257   21.578129 H          1 MOL1         0.0830
       7    C3      20.472445   18.105179   22.925239 C.3        1 MOL1        -0.1765
       8    H5      21.473951   18.178192   22.481688 H          1 MOL1         0.0830
       9    H6      20.586894   17.715770   23.945671 H          1 MOL1         0.0830
      10    C4      19.808793   19.497576   22.900858 C.3        1 MOL1         0.1214
      11    H7      20.558101   20.252325   22.620839 H          1 MOL1         0.0787
      12    C5      18.699612   19.431678   21.829825 C.3        1 MOL1        -0.1765
      13    H8      17.710764   19.400372   22.307301 H          1 MOL1         0.0830
      14    H9      18.726375   20.306203   21.167000 H          1 MOL1         0.0830
      15    O1      19.245718   19.794950   24.173026 O.3        1 MOL1        -0.5512
      16    H10     18.830549   20.680029   24.096880 H          1 MOL1         0.3776
@<TRIPOS>BOND
    1     1     2    1
    2     1     3    1
    3     1     4    1
    4     4     5    1
    5     4     6    1
    6     4     7    1
    7     7     8    1
    8     7     9    1
    9     7    10    1
   10    10    11    1
   11     1    12    1
   12    10    12    1
   13    12    13    1
   14    12    14    1
   15    10    15    1
   16    15    16    1
@<TRIPOS>SUBSTRUCTURE
       1 MOL1            1 RESIDUE      1      MOL     
@<SCITEGIC>MOL_PROPERTY
VConf Rank
SciTegic.value.IntegerValue
404

@<SCITEGIC>MOL_PROPERTY
Conf_Id
SciTegic.value.IntegerValue
33

@<SCITEGIC>MOL_PROPERTY
Delta U+W
SciTegic.value.DoubleValue
0.015

@<SCITEGIC>MOL_PROPERTY
U+W
SciTegic.value.DoubleValue
3.025

@<SCITEGIC>MOL_PROPERTY
Grad RMS
SciTegic.value.DoubleValue
0.000000

@<SCITEGIC>MOL_PROPERTY
U
SciTegic.value.DoubleValue
5.843

@<SCITEGIC>MOL_PROPERTY
W
SciTegic.value.DoubleValue
-2.819

@<SCITEGIC>MOL_PROPERTY
W(PB)
SciTegic.value.DoubleValue
-4.568

@<SCITEGIC>MOL_PROPERTY
W(SA)
SciTegic.value.DoubleValue
1.750

@<SCITEGIC>MOL_PROPERTY
Valence
SciTegic.value.DoubleValue
13.789

@<SCITEGIC>MOL_PROPERTY
Coulomb
SciTegic.value.DoubleValue
-8.574

@<SCITEGIC>MOL_PROPERTY
VdW
SciTegic.value.DoubleValue
0.628

@<SCITEGIC>MOL_PROPERTY
VdW6
SciTegic.value.DoubleValue
-3.284

@<SCITEGIC>MOL_PROPERTY
VdW12
SciTegic.value.DoubleValue
3.913

@<SCITEGIC>MOL_PROPERTY
Bond
SciTegic.value.DoubleValue
0.054

@<SCITEGIC>MOL_PROPERTY
Angle
SciTegic.value.DoubleValue
4.033

@<SCITEGIC>MOL_PROPERTY
Pdih
SciTegic.value.DoubleValue
9.702

@<SCITEGIC>MOL_PROPERTY
Idih
SciTegic.value.DoubleValue
0.000

@<SCITEGIC>MOL_PROPERTY
Tether
SciTegic.value.DoubleValue
0.000

@<TRIPOS>MOLECULE
guest-4_confgen4.mol2 : confsearch ligand conformer 405
          16          16           1
SMALL
USER_CHARGES
 
@<TRIPOS>ATOM
       1    C1      20.554624   19.074731   22.688588 C.3        1 MOL1        -0.1689
       2    H1      20.796170   20.087840   22.338597 H          1 MOL1         0.0830
       3    H2      21.380738   18.737774   23.329677 H          1 MOL1         0.0830
       4    C2      20.354503   18.135104   21.479426 C.3        1 MOL1        -0.1689
       5    H3      20.500234   18.693202   20.544271 H          1 MOL1         0.0830
       6    H4      21.075302   17.306029   21.488551 H          1 MOL1         0.0830
       7    C3      18.905271   17.611245   21.567383 C.3        1 MOL1        -0.1765
       8    H5      18.901780   16.618931   22.037406 H          1 MOL1         0.0830
       9    H6      18.436978   17.514341   20.578790 H          1 MOL1         0.0830
      10    C4      18.152086   18.594450   22.473482 C.3        1 MOL1         0.1214
      11    H7      17.313571   18.106629   22.991078 H          1 MOL1         0.0787
      12    C5      19.219192   19.082414   23.462488 C.3        1 MOL1        -0.1765
      13    H8      18.982655   20.072428   23.874710 H          1 MOL1         0.0830
      14    H9      19.277271   18.376381   24.301395 H          1 MOL1         0.0830
      15    O1      17.697702   19.692699   21.696186 O.3        1 MOL1        -0.5512
      16    H10     18.503678   20.059566   21.277887 H          1 MOL1         0.3776
@<TRIPOS>BOND
    1     1     2    1
    2     1     3    1
    3     1     4    1
    4     4     5    1
    5     4     6    1
    6     4     7    1
    7     7     8    1
    8     7     9    1
    9     7    10    1
   10    10    11    1
   11     1    12    1
   12    10    12    1
   13    12    13    1
   14    12    14    1
   15    10    15    1
   16    15    16    1
@<TRIPOS>SUBSTRUCTURE
       1 MOL1            1 RESIDUE      1      MOL     
@<SCITEGIC>MOL_PROPERTY
VConf Rank
SciTegic.value.IntegerValue
405

@<SCITEGIC>MOL_PROPERTY
Conf_Id
SciTegic.value.IntegerValue
20

@<SCITEGIC>MOL_PROPERTY
Delta U+W
SciTegic.value.DoubleValue
-0.483

@<SCITEGIC>MOL_PROPERTY
U+W
SciTegic.value.DoubleValue
2.527

@<SCITEGIC>MOL_PROPERTY
Grad RMS
SciTegic.value.DoubleValue
0.000000

@<SCITEGIC>MOL_PROPERTY
U
SciTegic.value.DoubleValue
4.508

@<SCITEGIC>MOL_PROPERTY
W
SciTegic.value.DoubleValue
-1.981

@<SCITEGIC>MOL_PROPERTY
W(PB)
SciTegic.value.DoubleValue
-3.712

@<SCITEGIC>MOL_PROPERTY
W(SA)
SciTegic.value.DoubleValue
1.732

@<SCITEGIC>MOL_PROPERTY
Valence
SciTegic.value.DoubleValue
14.705

@<SCITEGIC>MOL_PROPERTY
Coulomb
SciTegic.value.DoubleValue
-10.687

@<SCITEGIC>MOL_PROPERTY
VdW
SciTegic.value.DoubleValue
0.490

@<SCITEGIC>MOL_PROPERTY
VdW6
SciTegic.value.DoubleValue
-3.745

@<SCITEGIC>MOL_PROPERTY
VdW12
SciTegic.value.DoubleValue
4.235

@<SCITEGIC>MOL_PROPERTY
Bond
SciTegic.value.DoubleValue
0.068

@<SCITEGIC>MOL_PROPERTY
Angle
SciTegic.value.DoubleValue
3.901

@<SCITEGIC>MOL_PROPERTY
Pdih
SciTegic.value.DoubleValue
10.737

@<SCITEGIC>MOL_PROPERTY
Idih
SciTegic.value.DoubleValue
0.000

@<SCITEGIC>MOL_PROPERTY
Tether
SciTegic.value.DoubleValue
0.000

@<TRIPOS>MOLECULE
guest-4_confgen4.mol2 : confsearch ligand conformer 406
          16          16           1
SMALL
USER_CHARGES
 
@<TRIPOS>ATOM
       1    C1      19.884611   19.574283   23.206181 C.3        1 MOL1        -0.1689
       2    H1      19.914221   20.492030   22.602409 H          1 MOL1         0.0830
       3    H2      20.205679   19.823286   24.226748 H          1 MOL1         0.0830
       4    C2      20.771897   18.503006   22.557478 C.3        1 MOL1        -0.1689
       5    H3      21.702747   18.921333   22.150931 H          1 MOL1         0.0830
       6    H4      21.035030   17.739832   23.303101 H          1 MOL1         0.0830
       7    C3      19.883532   17.879725   21.465285 C.3        1 MOL1        -0.1765
       8    H5      20.150103   16.830907   21.281529 H          1 MOL1         0.0830
       9    H6      20.021102   18.432398   20.525917 H          1 MOL1         0.0830
      10    C4      18.427538   18.016991   21.958153 C.3        1 MOL1         0.1214
      11    H7      18.046561   17.038049   22.283801 H          1 MOL1         0.0787
      12    C5      18.466285   18.976072   23.165835 C.3        1 MOL1        -0.1765
      13    H8      17.698985   19.759065   23.101074 H          1 MOL1         0.0830
      14    H9      18.281760   18.403219   24.083915 H          1 MOL1         0.0830
      15    O1      17.609432   18.558282   20.927815 O.3        1 MOL1        -0.5512
      16    H10     17.630082   17.917055   20.186239 H          1 MOL1         0.3776
@<TRIPOS>BOND
    1     1     2    1
    2     1     3    1
    3     1     4    1
    4     4     5    1
    5     4     6    1
    6     4     7    1
    7     7     8    1
    8     7     9    1
    9     7    10    1
   10    10    11    1
   11     1    12    1
   12    10    12    1
   13    12    13    1
   14    12    14    1
   15    10    15    1
   16    15    16    1
@<TRIPOS>SUBSTRUCTURE
       1 MOL1            1 RESIDUE      1      MOL     
@<SCITEGIC>MOL_PROPERTY
VConf Rank
SciTegic.value.IntegerValue
406

@<SCITEGIC>MOL_PROPERTY
Conf_Id
SciTegic.value.IntegerValue
59

@<SCITEGIC>MOL_PROPERTY
Delta U+W
SciTegic.value.DoubleValue
0.000

@<SCITEGIC>MOL_PROPERTY
U+W
SciTegic.value.DoubleValue
3.010

@<SCITEGIC>MOL_PROPERTY
Grad RMS
SciTegic.value.DoubleValue
0.000000

@<SCITEGIC>MOL_PROPERTY
U
SciTegic.value.DoubleValue
5.843

@<SCITEGIC>MOL_PROPERTY
W
SciTegic.value.DoubleValue
-2.833

@<SCITEGIC>MOL_PROPERTY
W(PB)
SciTegic.value.DoubleValue
-4.568

@<SCITEGIC>MOL_PROPERTY
W(SA)
SciTegic.value.DoubleValue
1.735

@<SCITEGIC>MOL_PROPERTY
Valence
SciTegic.value.DoubleValue
13.789

@<SCITEGIC>MOL_PROPERTY
Coulomb
SciTegic.value.DoubleValue
-8.574

@<SCITEGIC>MOL_PROPERTY
VdW
SciTegic.value.DoubleValue
0.628

@<SCITEGIC>MOL_PROPERTY
VdW6
SciTegic.value.DoubleValue
-3.284

@<SCITEGIC>MOL_PROPERTY
VdW12
SciTegic.value.DoubleValue
3.912

@<SCITEGIC>MOL_PROPERTY
Bond
SciTegic.value.DoubleValue
0.054

@<SCITEGIC>MOL_PROPERTY
Angle
SciTegic.value.DoubleValue
4.034

@<SCITEGIC>MOL_PROPERTY
Pdih
SciTegic.value.DoubleValue
9.702

@<SCITEGIC>MOL_PROPERTY
Idih
SciTegic.value.DoubleValue
0.000

@<SCITEGIC>MOL_PROPERTY
Tether
SciTegic.value.DoubleValue
0.000

@<TRIPOS>MOLECULE
guest-4_confgen4.mol2 : confsearch ligand conformer 407
          16          16           1
SMALL
USER_CHARGES
 
@<TRIPOS>ATOM
       1    C1      20.629966   19.030828   21.586828 C.3        1 MOL1        -0.1689
       2    H1      21.663033   19.337977   21.799412 H          1 MOL1         0.0830
       3    H2      20.522524   18.916149   20.499203 H          1 MOL1         0.0830
       4    C2      19.600968   20.045905   22.103073 C.3        1 MOL1        -0.1689
       5    H3      19.921318   20.429804   23.081682 H          1 MOL1         0.0830
       6    H4      19.475743   20.899281   21.422844 H          1 MOL1         0.0830
       7    C3      18.305027   19.230794   22.268023 C.3        1 MOL1        -0.1765
       8    H5      17.728234   19.262938   21.334556 H          1 MOL1         0.0830
       9    H6      17.670433   19.637540   23.066689 H          1 MOL1         0.0830
      10    C4      18.733403   17.774866   22.544724 C.3        1 MOL1         0.1214
      11    H7      18.207525   17.103256   21.850526 H          1 MOL1         0.0787
      12    C5      20.254141   17.713238   22.289197 C.3        1 MOL1        -0.1765
      13    H8      20.797505   17.641238   23.241223 H          1 MOL1         0.0830
      14    H9      20.525754   16.841978   21.679296 H          1 MOL1         0.0830
      15    O1      18.447966   17.427649   23.894489 O.3        1 MOL1        -0.5512
      16    H10     18.749078   16.502472   24.016593 H          1 MOL1         0.3776
@<TRIPOS>BOND
    1     1     2    1
    2     1     3    1
    3     1     4    1
    4     4     5    1
    5     4     6    1
    6     4     7    1
    7     7     8    1
    8     7     9    1
    9     7    10    1
   10    10    11    1
   11     1    12    1
   12    10    12    1
   13    12    13    1
   14    12    14    1
   15    10    15    1
   16    15    16    1
@<TRIPOS>SUBSTRUCTURE
       1 MOL1            1 RESIDUE      1      MOL     
@<SCITEGIC>MOL_PROPERTY
VConf Rank
SciTegic.value.IntegerValue
407

@<SCITEGIC>MOL_PROPERTY
Conf_Id
SciTegic.value.IntegerValue
33

@<SCITEGIC>MOL_PROPERTY
Delta U+W
SciTegic.value.DoubleValue
0.015

@<SCITEGIC>MOL_PROPERTY
U+W
SciTegic.value.DoubleValue
3.025

@<SCITEGIC>MOL_PROPERTY
Grad RMS
SciTegic.value.DoubleValue
0.000000

@<SCITEGIC>MOL_PROPERTY
U
SciTegic.value.DoubleValue
5.843

@<SCITEGIC>MOL_PROPERTY
W
SciTegic.value.DoubleValue
-2.819

@<SCITEGIC>MOL_PROPERTY
W(PB)
SciTegic.value.DoubleValue
-4.568

@<SCITEGIC>MOL_PROPERTY
W(SA)
SciTegic.value.DoubleValue
1.750

@<SCITEGIC>MOL_PROPERTY
Valence
SciTegic.value.DoubleValue
13.789

@<SCITEGIC>MOL_PROPERTY
Coulomb
SciTegic.value.DoubleValue
-8.574

@<SCITEGIC>MOL_PROPERTY
VdW
SciTegic.value.DoubleValue
0.628

@<SCITEGIC>MOL_PROPERTY
VdW6
SciTegic.value.DoubleValue
-3.284

@<SCITEGIC>MOL_PROPERTY
VdW12
SciTegic.value.DoubleValue
3.913

@<SCITEGIC>MOL_PROPERTY
Bond
SciTegic.value.DoubleValue
0.054

@<SCITEGIC>MOL_PROPERTY
Angle
SciTegic.value.DoubleValue
4.033

@<SCITEGIC>MOL_PROPERTY
Pdih
SciTegic.value.DoubleValue
9.702

@<SCITEGIC>MOL_PROPERTY
Idih
SciTegic.value.DoubleValue
0.000

@<SCITEGIC>MOL_PROPERTY
Tether
SciTegic.value.DoubleValue
0.000

@<TRIPOS>MOLECULE
guest-4_confgen4.mol2 : confsearch ligand conformer 408
          16          16           1
SMALL
USER_CHARGES
 
@<TRIPOS>ATOM
       1    C1      18.569015   18.133474   21.307954 C.3        1 MOL1        -0.1689
       2    H1      17.951414   17.281999   21.625425 H          1 MOL1         0.0830
       3    H2      18.313639   18.359392   20.263569 H          1 MOL1         0.0830
       4    C2      20.065228   17.784118   21.463900 C.3        1 MOL1        -0.1689
       5    H3      20.171766   16.763205   21.855836 H          1 MOL1         0.0830
       6    H4      20.592757   17.828282   20.501215 H          1 MOL1         0.0830
       7    C3      20.650617   18.803175   22.464539 C.3        1 MOL1        -0.1765
       8    H5      21.141708   19.616777   21.914538 H          1 MOL1         0.0830
       9    H6      21.398083   18.350896   23.129929 H          1 MOL1         0.0830
      10    C4      19.454622   19.375125   23.237496 C.3        1 MOL1         0.1214
      11    H7      19.655399   20.394615   23.597093 H          1 MOL1         0.0787
      12    C5      18.306747   19.351286   22.219276 C.3        1 MOL1        -0.1765
      13    H8      17.322144   19.304548   22.703400 H          1 MOL1         0.0830
      14    H9      18.341593   20.271391   21.621101 H          1 MOL1         0.0830
      15    O1      19.139122   18.509616   24.318311 O.3        1 MOL1        -0.5512
      16    H10     18.977900   17.635864   23.906330 H          1 MOL1         0.3776
@<TRIPOS>BOND
    1     1     2    1
    2     1     3    1
    3     1     4    1
    4     4     5    1
    5     4     6    1
    6     4     7    1
    7     7     8    1
    8     7     9    1
    9     7    10    1
   10    10    11    1
   11     1    12    1
   12    10    12    1
   13    12    13    1
   14    12    14    1
   15    10    15    1
   16    15    16    1
@<TRIPOS>SUBSTRUCTURE
       1 MOL1            1 RESIDUE      1      MOL     
@<SCITEGIC>MOL_PROPERTY
VConf Rank
SciTegic.value.IntegerValue
408

@<SCITEGIC>MOL_PROPERTY
Conf_Id
SciTegic.value.IntegerValue
20

@<SCITEGIC>MOL_PROPERTY
Delta U+W
SciTegic.value.DoubleValue
-0.483

@<SCITEGIC>MOL_PROPERTY
U+W
SciTegic.value.DoubleValue
2.527

@<SCITEGIC>MOL_PROPERTY
Grad RMS
SciTegic.value.DoubleValue
0.000000

@<SCITEGIC>MOL_PROPERTY
U
SciTegic.value.DoubleValue
4.508

@<SCITEGIC>MOL_PROPERTY
W
SciTegic.value.DoubleValue
-1.981

@<SCITEGIC>MOL_PROPERTY
W(PB)
SciTegic.value.DoubleValue
-3.712

@<SCITEGIC>MOL_PROPERTY
W(SA)
SciTegic.value.DoubleValue
1.732

@<SCITEGIC>MOL_PROPERTY
Valence
SciTegic.value.DoubleValue
14.705

@<SCITEGIC>MOL_PROPERTY
Coulomb
SciTegic.value.DoubleValue
-10.687

@<SCITEGIC>MOL_PROPERTY
VdW
SciTegic.value.DoubleValue
0.490

@<SCITEGIC>MOL_PROPERTY
VdW6
SciTegic.value.DoubleValue
-3.745

@<SCITEGIC>MOL_PROPERTY
VdW12
SciTegic.value.DoubleValue
4.235

@<SCITEGIC>MOL_PROPERTY
Bond
SciTegic.value.DoubleValue
0.068

@<SCITEGIC>MOL_PROPERTY
Angle
SciTegic.value.DoubleValue
3.901

@<SCITEGIC>MOL_PROPERTY
Pdih
SciTegic.value.DoubleValue
10.737

@<SCITEGIC>MOL_PROPERTY
Idih
SciTegic.value.DoubleValue
0.000

@<SCITEGIC>MOL_PROPERTY
Tether
SciTegic.value.DoubleValue
0.000

@<TRIPOS>MOLECULE
guest-4_confgen4.mol2 : confsearch ligand conformer 409
          16          16           1
SMALL
USER_CHARGES
 
@<TRIPOS>ATOM
       1    C1      19.921875   19.463816   21.330139 C.3        1 MOL1        -0.1689
       2    H1      19.184135   19.494932   20.516229 H          1 MOL1         0.0830
       3    H2      20.732242   20.164417   21.087016 H          1 MOL1         0.0830
       4    C2      20.425583   18.025569   21.513038 C.3        1 MOL1        -0.1689
       5    H3      20.570520   17.508427   20.554750 H          1 MOL1         0.0830
       6    H4      21.386063   18.035364   22.046900 H          1 MOL1         0.0830
       7    C3      19.351253   17.351505   22.385968 C.3        1 MOL1        -0.1765
       8    H5      19.779958   16.551622   23.003418 H          1 MOL1         0.0830
       9    H6      18.585167   16.903929   21.738223 H          1 MOL1         0.0830
      10    C4      18.732384   18.467853   23.253407 C.3        1 MOL1         0.1214
      11    H7      19.082385   18.375240   24.291887 H          1 MOL1         0.0787
      12    C5      19.232217   19.803183   22.664430 C.3        1 MOL1        -0.1765
      13    H8      18.419000   20.528169   22.526246 H          1 MOL1         0.0830
      14    H9      19.961873   20.247621   23.353747 H          1 MOL1         0.0830
      15    O1      17.312366   18.406047   23.193263 O.3        1 MOL1        -0.5512
      16    H10     17.052544   17.537839   23.567748 H          1 MOL1         0.3776
@<TRIPOS>BOND
    1     1     2    1
    2     1     3    1
    3     1     4    1
    4     4     5    1
    5     4     6    1
    6     4     7    1
    7     7     8    1
    8     7     9    1
    9     7    10    1
   10    10    11    1
   11     1    12    1
   12    10    12    1
   13    12    13    1
   14    12    14    1
   15    10    15    1
   16    15    16    1
@<TRIPOS>SUBSTRUCTURE
       1 MOL1            1 RESIDUE      1      MOL     
@<SCITEGIC>MOL_PROPERTY
VConf Rank
SciTegic.value.IntegerValue
409

@<SCITEGIC>MOL_PROPERTY
Conf_Id
SciTegic.value.IntegerValue
59

@<SCITEGIC>MOL_PROPERTY
Delta U+W
SciTegic.value.DoubleValue
0.000

@<SCITEGIC>MOL_PROPERTY
U+W
SciTegic.value.DoubleValue
3.010

@<SCITEGIC>MOL_PROPERTY
Grad RMS
SciTegic.value.DoubleValue
0.000000

@<SCITEGIC>MOL_PROPERTY
U
SciTegic.value.DoubleValue
5.843

@<SCITEGIC>MOL_PROPERTY
W
SciTegic.value.DoubleValue
-2.833

@<SCITEGIC>MOL_PROPERTY
W(PB)
SciTegic.value.DoubleValue
-4.568

@<SCITEGIC>MOL_PROPERTY
W(SA)
SciTegic.value.DoubleValue
1.735

@<SCITEGIC>MOL_PROPERTY
Valence
SciTegic.value.DoubleValue
13.789

@<SCITEGIC>MOL_PROPERTY
Coulomb
SciTegic.value.DoubleValue
-8.574

@<SCITEGIC>MOL_PROPERTY
VdW
SciTegic.value.DoubleValue
0.628

@<SCITEGIC>MOL_PROPERTY
VdW6
SciTegic.value.DoubleValue
-3.284

@<SCITEGIC>MOL_PROPERTY
VdW12
SciTegic.value.DoubleValue
3.912

@<SCITEGIC>MOL_PROPERTY
Bond
SciTegic.value.DoubleValue
0.054

@<SCITEGIC>MOL_PROPERTY
Angle
SciTegic.value.DoubleValue
4.034

@<SCITEGIC>MOL_PROPERTY
Pdih
SciTegic.value.DoubleValue
9.702

@<SCITEGIC>MOL_PROPERTY
Idih
SciTegic.value.DoubleValue
0.000

@<SCITEGIC>MOL_PROPERTY
Tether
SciTegic.value.DoubleValue
0.000

@<TRIPOS>MOLECULE
guest-4_confgen4.mol2 : confsearch ligand conformer 410
          16          16           1
SMALL
USER_CHARGES
 
@<TRIPOS>ATOM
       1    C1      18.781289   17.548725   21.599883 C.3        1 MOL1        -0.1689
       2    H1      17.875746   16.934092   21.694631 H          1 MOL1         0.0830
       3    H2      19.236378   17.341467   20.621333 H          1 MOL1         0.0830
       4    C2      19.798998   17.264647   22.713119 C.3        1 MOL1        -0.1689
       5    H3      19.271452   17.120057   23.666254 H          1 MOL1         0.0830
       6    H4      20.400191   16.367345   22.512972 H          1 MOL1         0.0830
       7    C3      20.656009   18.541830   22.786695 C.3        1 MOL1        -0.1765
       8    H5      21.514056   18.449342   22.108252 H          1 MOL1         0.0830
       9    H6      21.047446   18.708318   23.799157 H          1 MOL1         0.0830
      10    C4      19.758788   19.701730   22.307714 C.3        1 MOL1         0.1214
      11    H7      20.283633   20.267272   21.523993 H          1 MOL1         0.0787
      12    C5      18.483758   19.053967   21.727681 C.3        1 MOL1        -0.1765
      13    H8      17.637259   19.200099   22.412419 H          1 MOL1         0.0830
      14    H9      18.213220   19.492999   20.758709 H          1 MOL1         0.0830
      15    O1      19.425395   20.547976   23.401613 O.3        1 MOL1        -0.5512
      16    H10     18.848998   21.256044   23.043933 H          1 MOL1         0.3776
@<TRIPOS>BOND
    1     1     2    1
    2     1     3    1
    3     1     4    1
    4     4     5    1
    5     4     6    1
    6     4     7    1
    7     7     8    1
    8     7     9    1
    9     7    10    1
   10    10    11    1
   11     1    12    1
   12    10    12    1
   13    12    13    1
   14    12    14    1
   15    10    15    1
   16    15    16    1
@<TRIPOS>SUBSTRUCTURE
       1 MOL1            1 RESIDUE      1      MOL     
@<SCITEGIC>MOL_PROPERTY
VConf Rank
SciTegic.value.IntegerValue
410

@<SCITEGIC>MOL_PROPERTY
Conf_Id
SciTegic.value.IntegerValue
33

@<SCITEGIC>MOL_PROPERTY
Delta U+W
SciTegic.value.DoubleValue
0.015

@<SCITEGIC>MOL_PROPERTY
U+W
SciTegic.value.DoubleValue
3.025

@<SCITEGIC>MOL_PROPERTY
Grad RMS
SciTegic.value.DoubleValue
0.000000

@<SCITEGIC>MOL_PROPERTY
U
SciTegic.value.DoubleValue
5.843

@<SCITEGIC>MOL_PROPERTY
W
SciTegic.value.DoubleValue
-2.819

@<SCITEGIC>MOL_PROPERTY
W(PB)
SciTegic.value.DoubleValue
-4.568

@<SCITEGIC>MOL_PROPERTY
W(SA)
SciTegic.value.DoubleValue
1.750

@<SCITEGIC>MOL_PROPERTY
Valence
SciTegic.value.DoubleValue
13.789

@<SCITEGIC>MOL_PROPERTY
Coulomb
SciTegic.value.DoubleValue
-8.574

@<SCITEGIC>MOL_PROPERTY
VdW
SciTegic.value.DoubleValue
0.628

@<SCITEGIC>MOL_PROPERTY
VdW6
SciTegic.value.DoubleValue
-3.284

@<SCITEGIC>MOL_PROPERTY
VdW12
SciTegic.value.DoubleValue
3.913

@<SCITEGIC>MOL_PROPERTY
Bond
SciTegic.value.DoubleValue
0.054

@<SCITEGIC>MOL_PROPERTY
Angle
SciTegic.value.DoubleValue
4.033

@<SCITEGIC>MOL_PROPERTY
Pdih
SciTegic.value.DoubleValue
9.702

@<SCITEGIC>MOL_PROPERTY
Idih
SciTegic.value.DoubleValue
0.000

@<SCITEGIC>MOL_PROPERTY
Tether
SciTegic.value.DoubleValue
0.000

@<TRIPOS>MOLECULE
guest-4_confgen4.mol2 : confsearch ligand conformer 411
          16          16           1
SMALL
USER_CHARGES
 
@<TRIPOS>ATOM
       1    C1      20.225506   17.802100   22.901549 C.3        1 MOL1        -0.1689
       2    H1      20.686644   18.248227   23.793484 H          1 MOL1         0.0830
       3    H2      20.602204   16.774098   22.810404 H          1 MOL1         0.0830
       4    C2      20.569760   18.645699   21.654611 C.3        1 MOL1        -0.1689
       5    H3      21.198372   19.499493   21.942898 H          1 MOL1         0.0830
       6    H4      21.125673   18.058675   20.910728 H          1 MOL1         0.0830
       7    C3      19.226993   19.142823   21.078176 C.3        1 MOL1        -0.1765
       8    H5      18.915404   18.486034   20.255277 H          1 MOL1         0.0830
       9    H6      19.296917   20.164649   20.681959 H          1 MOL1         0.0830
      10    C4      18.206883   19.030334   22.219103 C.3        1 MOL1         0.1214
      11    H7      17.186804   18.881610   21.836608 H          1 MOL1         0.0787
      12    C5      18.687567   17.820121   23.031067 C.3        1 MOL1        -0.1765
      13    H8      18.358469   17.864235   24.077849 H          1 MOL1         0.0830
      14    H9      18.271374   16.905615   22.588253 H          1 MOL1         0.0830
      15    O1      18.279770   20.195179   23.028196 O.3        1 MOL1        -0.5512
      16    H10     19.213412   20.244872   23.319751 H          1 MOL1         0.3776
@<TRIPOS>BOND
    1     1     2    1
    2     1     3    1
    3     1     4    1
    4     4     5    1
    5     4     6    1
    6     4     7    1
    7     7     8    1
    8     7     9    1
    9     7    10    1
   10    10    11    1
   11     1    12    1
   12    10    12    1
   13    12    13    1
   14    12    14    1
   15    10    15    1
   16    15    16    1
@<TRIPOS>SUBSTRUCTURE
       1 MOL1            1 RESIDUE      1      MOL     
@<SCITEGIC>MOL_PROPERTY
VConf Rank
SciTegic.value.IntegerValue
411

@<SCITEGIC>MOL_PROPERTY
Conf_Id
SciTegic.value.IntegerValue
20

@<SCITEGIC>MOL_PROPERTY
Delta U+W
SciTegic.value.DoubleValue
-0.483

@<SCITEGIC>MOL_PROPERTY
U+W
SciTegic.value.DoubleValue
2.527

@<SCITEGIC>MOL_PROPERTY
Grad RMS
SciTegic.value.DoubleValue
0.000000

@<SCITEGIC>MOL_PROPERTY
U
SciTegic.value.DoubleValue
4.508

@<SCITEGIC>MOL_PROPERTY
W
SciTegic.value.DoubleValue
-1.981

@<SCITEGIC>MOL_PROPERTY
W(PB)
SciTegic.value.DoubleValue
-3.712

@<SCITEGIC>MOL_PROPERTY
W(SA)
SciTegic.value.DoubleValue
1.732

@<SCITEGIC>MOL_PROPERTY
Valence
SciTegic.value.DoubleValue
14.705

@<SCITEGIC>MOL_PROPERTY
Coulomb
SciTegic.value.DoubleValue
-10.687

@<SCITEGIC>MOL_PROPERTY
VdW
SciTegic.value.DoubleValue
0.490

@<SCITEGIC>MOL_PROPERTY
VdW6
SciTegic.value.DoubleValue
-3.745

@<SCITEGIC>MOL_PROPERTY
VdW12
SciTegic.value.DoubleValue
4.235

@<SCITEGIC>MOL_PROPERTY
Bond
SciTegic.value.DoubleValue
0.068

@<SCITEGIC>MOL_PROPERTY
Angle
SciTegic.value.DoubleValue
3.901

@<SCITEGIC>MOL_PROPERTY
Pdih
SciTegic.value.DoubleValue
10.737

@<SCITEGIC>MOL_PROPERTY
Idih
SciTegic.value.DoubleValue
0.000

@<SCITEGIC>MOL_PROPERTY
Tether
SciTegic.value.DoubleValue
0.000

@<TRIPOS>MOLECULE
guest-4_confgen4.mol2 : confsearch ligand conformer 412
          16          16           1
SMALL
USER_CHARGES
 
@<TRIPOS>ATOM
       1    C1      19.922373   19.764412   22.888992 C.3        1 MOL1        -0.1689
       2    H1      20.908687   19.465034   23.270091 H          1 MOL1         0.0830
       3    H2      19.804959   20.844768   23.049271 H          1 MOL1         0.0830
       4    C2      18.829844   18.945623   23.590199 C.3        1 MOL1        -0.1689
       5    H3      19.038484   18.798787   24.658688 H          1 MOL1         0.0830
       6    H4      17.863931   19.461221   23.496411 H          1 MOL1         0.0830
       7    C3      18.788729   17.617004   22.813258 C.3        1 MOL1        -0.1765
       8    H5      17.787298   17.168299   22.838665 H          1 MOL1         0.0830
       9    H6      19.488858   16.905853   23.272463 H          1 MOL1         0.0830
      10    C4      19.227675   17.943328   21.370164 C.3        1 MOL1         0.1214
      11    H7      18.358115   17.917419   20.697325 H          1 MOL1         0.0787
      12    C5      19.803149   19.374239   21.404176 C.3        1 MOL1        -0.1765
      13    H8      20.769816   19.447108   20.888164 H          1 MOL1         0.0830
      14    H9      19.103642   20.053450   20.899753 H          1 MOL1         0.0830
      15    O1      20.224427   17.023727   20.940390 O.3        1 MOL1        -0.5512
      16    H10     19.809579   16.135262   20.948401 H          1 MOL1         0.3776
@<TRIPOS>BOND
    1     1     2    1
    2     1     3    1
    3     1     4    1
    4     4     5    1
    5     4     6    1
    6     4     7    1
    7     7     8    1
    8     7     9    1
    9     7    10    1
   10    10    11    1
   11     1    12    1
   12    10    12    1
   13    12    13    1
   14    12    14    1
   15    10    15    1
   16    15    16    1
@<TRIPOS>SUBSTRUCTURE
       1 MOL1            1 RESIDUE      1      MOL     
@<SCITEGIC>MOL_PROPERTY
VConf Rank
SciTegic.value.IntegerValue
412

@<SCITEGIC>MOL_PROPERTY
Conf_Id
SciTegic.value.IntegerValue
59

@<SCITEGIC>MOL_PROPERTY
Delta U+W
SciTegic.value.DoubleValue
0.000

@<SCITEGIC>MOL_PROPERTY
U+W
SciTegic.value.DoubleValue
3.010

@<SCITEGIC>MOL_PROPERTY
Grad RMS
SciTegic.value.DoubleValue
0.000000

@<SCITEGIC>MOL_PROPERTY
U
SciTegic.value.DoubleValue
5.843

@<SCITEGIC>MOL_PROPERTY
W
SciTegic.value.DoubleValue
-2.833

@<SCITEGIC>MOL_PROPERTY
W(PB)
SciTegic.value.DoubleValue
-4.568

@<SCITEGIC>MOL_PROPERTY
W(SA)
SciTegic.value.DoubleValue
1.735

@<SCITEGIC>MOL_PROPERTY
Valence
SciTegic.value.DoubleValue
13.789

@<SCITEGIC>MOL_PROPERTY
Coulomb
SciTegic.value.DoubleValue
-8.574

@<SCITEGIC>MOL_PROPERTY
VdW
SciTegic.value.DoubleValue
0.628

@<SCITEGIC>MOL_PROPERTY
VdW6
SciTegic.value.DoubleValue
-3.284

@<SCITEGIC>MOL_PROPERTY
VdW12
SciTegic.value.DoubleValue
3.912

@<SCITEGIC>MOL_PROPERTY
Bond
SciTegic.value.DoubleValue
0.054

@<SCITEGIC>MOL_PROPERTY
Angle
SciTegic.value.DoubleValue
4.034

@<SCITEGIC>MOL_PROPERTY
Pdih
SciTegic.value.DoubleValue
9.702

@<SCITEGIC>MOL_PROPERTY
Idih
SciTegic.value.DoubleValue
0.000

@<SCITEGIC>MOL_PROPERTY
Tether
SciTegic.value.DoubleValue
0.000

@<TRIPOS>MOLECULE
guest-4_confgen4.mol2 : confsearch ligand conformer 413
          16          16           1
SMALL
USER_CHARGES
 
@<TRIPOS>ATOM
       1    C1      19.125493   20.005347   22.177563 C.3        1 MOL1        -0.1689
       2    H1      18.793119   20.837898   22.812500 H          1 MOL1         0.0830
       3    H2      19.377286   20.408235   21.186653 H          1 MOL1         0.0830
       4    C2      18.053869   18.915864   22.034829 C.3        1 MOL1        -0.1689
       5    H3      17.548706   18.767546   22.999449 H          1 MOL1         0.0830
       6    H4      17.293762   19.170843   21.283919 H          1 MOL1         0.0830
       7    C3      18.842399   17.645987   21.665086 C.3        1 MOL1        -0.1765
       8    H5      18.929337   17.571103   20.573336 H          1 MOL1         0.0830
       9    H6      18.338084   16.738397   22.022809 H          1 MOL1         0.0830
      10    C4      20.251160   17.810817   22.271733 C.3        1 MOL1         0.1214
      11    H7      21.005780   17.628629   21.492710 H          1 MOL1         0.0787
      12    C5      20.343614   19.269962   22.765781 C.3        1 MOL1        -0.1765
      13    H8      20.293880   19.304347   23.862652 H          1 MOL1         0.0830
      14    H9      21.285006   19.741867   22.456051 H          1 MOL1         0.0830
      15    O1      20.424561   16.911929   23.360691 O.3        1 MOL1        -0.5512
      16    H10     21.326560   17.067141   23.712597 H          1 MOL1         0.3776
@<TRIPOS>BOND
    1     1     2    1
    2     1     3    1
    3     1     4    1
    4     4     5    1
    5     4     6    1
    6     4     7    1
    7     7     8    1
    8     7     9    1
    9     7    10    1
   10    10    11    1
   11     1    12    1
   12    10    12    1
   13    12    13    1
   14    12    14    1
   15    10    15    1
   16    15    16    1
@<TRIPOS>SUBSTRUCTURE
       1 MOL1            1 RESIDUE      1      MOL     
@<SCITEGIC>MOL_PROPERTY
VConf Rank
SciTegic.value.IntegerValue
413

@<SCITEGIC>MOL_PROPERTY
Conf_Id
SciTegic.value.IntegerValue
33

@<SCITEGIC>MOL_PROPERTY
Delta U+W
SciTegic.value.DoubleValue
0.015

@<SCITEGIC>MOL_PROPERTY
U+W
SciTegic.value.DoubleValue
3.025

@<SCITEGIC>MOL_PROPERTY
Grad RMS
SciTegic.value.DoubleValue
0.000000

@<SCITEGIC>MOL_PROPERTY
U
SciTegic.value.DoubleValue
5.843

@<SCITEGIC>MOL_PROPERTY
W
SciTegic.value.DoubleValue
-2.819

@<SCITEGIC>MOL_PROPERTY
W(PB)
SciTegic.value.DoubleValue
-4.568

@<SCITEGIC>MOL_PROPERTY
W(SA)
SciTegic.value.DoubleValue
1.750

@<SCITEGIC>MOL_PROPERTY
Valence
SciTegic.value.DoubleValue
13.789

@<SCITEGIC>MOL_PROPERTY
Coulomb
SciTegic.value.DoubleValue
-8.574

@<SCITEGIC>MOL_PROPERTY
VdW
SciTegic.value.DoubleValue
0.628

@<SCITEGIC>MOL_PROPERTY
VdW6
SciTegic.value.DoubleValue
-3.284

@<SCITEGIC>MOL_PROPERTY
VdW12
SciTegic.value.DoubleValue
3.913

@<SCITEGIC>MOL_PROPERTY
Bond
SciTegic.value.DoubleValue
0.054

@<SCITEGIC>MOL_PROPERTY
Angle
SciTegic.value.DoubleValue
4.033

@<SCITEGIC>MOL_PROPERTY
Pdih
SciTegic.value.DoubleValue
9.702

@<SCITEGIC>MOL_PROPERTY
Idih
SciTegic.value.DoubleValue
0.000

@<SCITEGIC>MOL_PROPERTY
Tether
SciTegic.value.DoubleValue
0.000

@<TRIPOS>MOLECULE
guest-4_confgen4.mol2 : confsearch ligand conformer 414
          16          16           1
SMALL
USER_CHARGES
 
@<TRIPOS>ATOM
       1    C1      18.896114   18.171826   21.091797 C.3        1 MOL1        -0.1689
       2    H1      17.864634   17.796559   21.141305 H          1 MOL1         0.0830
       3    H2      19.232143   18.086515   20.049298 H          1 MOL1         0.0830
       4    C2      19.797113   17.359133   22.047177 C.3        1 MOL1        -0.1689
       5    H3      19.201920   16.589871   22.558263 H          1 MOL1         0.0830
       6    H4      20.605091   16.849503   21.504545 H          1 MOL1         0.0830
       7    C3      20.364900   18.362935   23.073059 C.3        1 MOL1        -0.1765
       8    H5      21.373122   18.670712   22.765843 H          1 MOL1         0.0830
       9    H6      20.439615   17.931462   24.080161 H          1 MOL1         0.0830
      10    C4      19.436688   19.584278   23.031356 C.3        1 MOL1         0.1214
      11    H7      19.966463   20.504991   23.315272 H          1 MOL1         0.0787
      12    C5      18.954263   19.636409   21.575504 C.3        1 MOL1        -0.1765
      13    H8      17.986811   20.146422   21.475864 H          1 MOL1         0.0830
      14    H9      19.687973   20.191757   20.976438 H          1 MOL1         0.0830
      15    O1      18.324682   19.355956   23.884655 O.3        1 MOL1        -0.5512
      16    H10     17.920223   18.525432   23.559378 H          1 MOL1         0.3776
@<TRIPOS>BOND
    1     1     2    1
    2     1     3    1
    3     1     4    1
    4     4     5    1
    5     4     6    1
    6     4     7    1
    7     7     8    1
    8     7     9    1
    9     7    10    1
   10    10    11    1
   11     1    12    1
   12    10    12    1
   13    12    13    1
   14    12    14    1
   15    10    15    1
   16    15    16    1
@<TRIPOS>SUBSTRUCTURE
       1 MOL1            1 RESIDUE      1      MOL     
@<SCITEGIC>MOL_PROPERTY
VConf Rank
SciTegic.value.IntegerValue
414

@<SCITEGIC>MOL_PROPERTY
Conf_Id
SciTegic.value.IntegerValue
20

@<SCITEGIC>MOL_PROPERTY
Delta U+W
SciTegic.value.DoubleValue
-0.483

@<SCITEGIC>MOL_PROPERTY
U+W
SciTegic.value.DoubleValue
2.527

@<SCITEGIC>MOL_PROPERTY
Grad RMS
SciTegic.value.DoubleValue
0.000000

@<SCITEGIC>MOL_PROPERTY
U
SciTegic.value.DoubleValue
4.508

@<SCITEGIC>MOL_PROPERTY
W
SciTegic.value.DoubleValue
-1.981

@<SCITEGIC>MOL_PROPERTY
W(PB)
SciTegic.value.DoubleValue
-3.712

@<SCITEGIC>MOL_PROPERTY
W(SA)
SciTegic.value.DoubleValue
1.732

@<SCITEGIC>MOL_PROPERTY
Valence
SciTegic.value.DoubleValue
14.705

@<SCITEGIC>MOL_PROPERTY
Coulomb
SciTegic.value.DoubleValue
-10.687

@<SCITEGIC>MOL_PROPERTY
VdW
SciTegic.value.DoubleValue
0.490

@<SCITEGIC>MOL_PROPERTY
VdW6
SciTegic.value.DoubleValue
-3.745

@<SCITEGIC>MOL_PROPERTY
VdW12
SciTegic.value.DoubleValue
4.235

@<SCITEGIC>MOL_PROPERTY
Bond
SciTegic.value.DoubleValue
0.068

@<SCITEGIC>MOL_PROPERTY
Angle
SciTegic.value.DoubleValue
3.901

@<SCITEGIC>MOL_PROPERTY
Pdih
SciTegic.value.DoubleValue
10.737

@<SCITEGIC>MOL_PROPERTY
Idih
SciTegic.value.DoubleValue
0.000

@<SCITEGIC>MOL_PROPERTY
Tether
SciTegic.value.DoubleValue
0.000

@<TRIPOS>MOLECULE
guest-4_confgen4.mol2 : confsearch ligand conformer 415
          16          16           1
SMALL
USER_CHARGES
 
@<TRIPOS>ATOM
       1    C1      19.925630   19.324483   21.219561 C.3        1 MOL1        -0.1689
       2    H1      19.604684   18.801795   20.307712 H          1 MOL1         0.0830
       3    H2      20.481746   20.224118   20.922855 H          1 MOL1         0.0830
       4    C2      20.764432   18.376501   22.087587 C.3        1 MOL1        -0.1689
       5    H3      21.439067   17.748978   21.489388 H          1 MOL1         0.0830
       6    H4      21.372935   18.961065   22.791599 H          1 MOL1         0.0830
       7    C3      19.724980   17.546035   22.862458 C.3        1 MOL1        -0.1765
       8    H5      20.115223   17.222260   23.835970 H          1 MOL1         0.0830
       9    H6      19.473857   16.646786   22.283603 H          1 MOL1         0.0830
      10    C4      18.480553   18.444952   23.020663 C.3        1 MOL1         0.1214
      11    H7      18.401418   18.798807   24.058951 H          1 MOL1         0.0787
      12    C5      18.695539   19.652986   22.085640 C.3        1 MOL1        -0.1765
      13    H8      17.811966   19.865201   21.468966 H          1 MOL1         0.0830
      14    H9      18.900116   20.544024   22.693324 H          1 MOL1         0.0830
      15    O1      17.309036   17.732843   22.640744 O.3        1 MOL1        -0.5512
      16    H10     17.228384   16.974702   23.257388 H          1 MOL1         0.3776
@<TRIPOS>BOND
    1     1     2    1
    2     1     3    1
    3     1     4    1
    4     4     5    1
    5     4     6    1
    6     4     7    1
    7     7     8    1
    8     7     9    1
    9     7    10    1
   10    10    11    1
   11     1    12    1
   12    10    12    1
   13    12    13    1
   14    12    14    1
   15    10    15    1
   16    15    16    1
@<TRIPOS>SUBSTRUCTURE
       1 MOL1            1 RESIDUE      1      MOL     
@<SCITEGIC>MOL_PROPERTY
VConf Rank
SciTegic.value.IntegerValue
415

@<SCITEGIC>MOL_PROPERTY
Conf_Id
SciTegic.value.IntegerValue
59

@<SCITEGIC>MOL_PROPERTY
Delta U+W
SciTegic.value.DoubleValue
0.000

@<SCITEGIC>MOL_PROPERTY
U+W
SciTegic.value.DoubleValue
3.010

@<SCITEGIC>MOL_PROPERTY
Grad RMS
SciTegic.value.DoubleValue
0.000000

@<SCITEGIC>MOL_PROPERTY
U
SciTegic.value.DoubleValue
5.843

@<SCITEGIC>MOL_PROPERTY
W
SciTegic.value.DoubleValue
-2.833

@<SCITEGIC>MOL_PROPERTY
W(PB)
SciTegic.value.DoubleValue
-4.568

@<SCITEGIC>MOL_PROPERTY
W(SA)
SciTegic.value.DoubleValue
1.735

@<SCITEGIC>MOL_PROPERTY
Valence
SciTegic.value.DoubleValue
13.789

@<SCITEGIC>MOL_PROPERTY
Coulomb
SciTegic.value.DoubleValue
-8.574

@<SCITEGIC>MOL_PROPERTY
VdW
SciTegic.value.DoubleValue
0.628

@<SCITEGIC>MOL_PROPERTY
VdW6
SciTegic.value.DoubleValue
-3.284

@<SCITEGIC>MOL_PROPERTY
VdW12
SciTegic.value.DoubleValue
3.912

@<SCITEGIC>MOL_PROPERTY
Bond
SciTegic.value.DoubleValue
0.054

@<SCITEGIC>MOL_PROPERTY
Angle
SciTegic.value.DoubleValue
4.034

@<SCITEGIC>MOL_PROPERTY
Pdih
SciTegic.value.DoubleValue
9.702

@<SCITEGIC>MOL_PROPERTY
Idih
SciTegic.value.DoubleValue
0.000

@<SCITEGIC>MOL_PROPERTY
Tether
SciTegic.value.DoubleValue
0.000

@<TRIPOS>MOLECULE
guest-4_confgen4.mol2 : confsearch ligand conformer 416
          16          16           1
SMALL
USER_CHARGES
 
@<TRIPOS>ATOM
       1    C1      19.865625   19.542121   23.304736 C.3        1 MOL1        -0.1689
       2    H1      19.433978   20.110723   24.139680 H          1 MOL1         0.0830
       3    H2      20.958290   19.653108   23.341993 H          1 MOL1         0.0830
       4    C2      19.344423   20.019072   21.942167 C.3        1 MOL1        -0.1689
       5    H3      18.272558   20.249382   22.017947 H          1 MOL1         0.0830
       6    H4      19.865138   20.917934   21.585033 H          1 MOL1         0.0830
       7    C3      19.547674   18.812002   21.007958 C.3        1 MOL1        -0.1765
       8    H5      20.540222   18.869371   20.542510 H          1 MOL1         0.0830
       9    H6      18.801686   18.794193   20.202227 H          1 MOL1         0.0830
      10    C4      19.480599   17.552360   21.895991 C.3        1 MOL1         0.1214
      11    H7      20.363959   16.925705   21.704948 H          1 MOL1         0.0787
      12    C5      19.491568   18.049485   23.356977 C.3        1 MOL1        -0.1765
      13    H8      18.493908   17.940408   23.803697 H          1 MOL1         0.0830
      14    H9      20.200307   17.479685   23.971684 H          1 MOL1         0.0830
      15    O1      18.283981   16.829502   21.632401 O.3        1 MOL1        -0.5512
      16    H10     18.288700   16.050860   22.228408 H          1 MOL1         0.3776
@<TRIPOS>BOND
    1     1     2    1
    2     1     3    1
    3     1     4    1
    4     4     5    1
    5     4     6    1
    6     4     7    1
    7     7     8    1
    8     7     9    1
    9     7    10    1
   10    10    11    1
   11     1    12    1
   12    10    12    1
   13    12    13    1
   14    12    14    1
   15    10    15    1
   16    15    16    1
@<TRIPOS>SUBSTRUCTURE
       1 MOL1            1 RESIDUE      1      MOL     
@<SCITEGIC>MOL_PROPERTY
VConf Rank
SciTegic.value.IntegerValue
416

@<SCITEGIC>MOL_PROPERTY
Conf_Id
SciTegic.value.IntegerValue
33

@<SCITEGIC>MOL_PROPERTY
Delta U+W
SciTegic.value.DoubleValue
0.015

@<SCITEGIC>MOL_PROPERTY
U+W
SciTegic.value.DoubleValue
3.025

@<SCITEGIC>MOL_PROPERTY
Grad RMS
SciTegic.value.DoubleValue
0.000000

@<SCITEGIC>MOL_PROPERTY
U
SciTegic.value.DoubleValue
5.843

@<SCITEGIC>MOL_PROPERTY
W
SciTegic.value.DoubleValue
-2.819

@<SCITEGIC>MOL_PROPERTY
W(PB)
SciTegic.value.DoubleValue
-4.568

@<SCITEGIC>MOL_PROPERTY
W(SA)
SciTegic.value.DoubleValue
1.750

@<SCITEGIC>MOL_PROPERTY
Valence
SciTegic.value.DoubleValue
13.789

@<SCITEGIC>MOL_PROPERTY
Coulomb
SciTegic.value.DoubleValue
-8.574

@<SCITEGIC>MOL_PROPERTY
VdW
SciTegic.value.DoubleValue
0.628

@<SCITEGIC>MOL_PROPERTY
VdW6
SciTegic.value.DoubleValue
-3.284

@<SCITEGIC>MOL_PROPERTY
VdW12
SciTegic.value.DoubleValue
3.913

@<SCITEGIC>MOL_PROPERTY
Bond
SciTegic.value.DoubleValue
0.054

@<SCITEGIC>MOL_PROPERTY
Angle
SciTegic.value.DoubleValue
4.033

@<SCITEGIC>MOL_PROPERTY
Pdih
SciTegic.value.DoubleValue
9.702

@<SCITEGIC>MOL_PROPERTY
Idih
SciTegic.value.DoubleValue
0.000

@<SCITEGIC>MOL_PROPERTY
Tether
SciTegic.value.DoubleValue
0.000

@<TRIPOS>MOLECULE
guest-4_confgen4.mol2 : confsearch ligand conformer 417
          16          16           1
SMALL
USER_CHARGES
 
@<TRIPOS>ATOM
       1    C1      18.789604   17.458485   21.923548 C.3        1 MOL1        -0.1689
       2    H1      18.246198   17.488984   20.969081 H          1 MOL1         0.0830
       3    H2      18.696927   16.441012   22.327474 H          1 MOL1         0.0830
       4    C2      18.207105   18.509734   22.893390 C.3        1 MOL1        -0.1689
       5    H3      17.381112   19.048270   22.408682 H          1 MOL1         0.0830
       6    H4      17.810627   18.042247   23.805124 H          1 MOL1         0.0830
       7    C3      19.357271   19.484284   23.224758 C.3        1 MOL1        -0.1765
       8    H5      19.813839   19.200884   24.182281 H          1 MOL1         0.0830
       9    H6      19.010461   20.522418   23.314243 H          1 MOL1         0.0830
      10    C4      20.395236   19.312456   22.107575 C.3        1 MOL1         0.1214
      11    H7      21.409702   19.552088   22.457458 H          1 MOL1         0.0787
      12    C5      20.270212   17.836560   21.706256 C.3        1 MOL1        -0.1765
      13    H8      20.598495   17.656963   20.673793 H          1 MOL1         0.0830
      14    H9      20.904168   17.232108   22.368342 H          1 MOL1         0.0830
      15    O1      20.033834   20.129532   21.003681 O.3        1 MOL1        -0.5512
      16    H10     19.126963   19.847737   20.764226 H          1 MOL1         0.3776
@<TRIPOS>BOND
    1     1     2    1
    2     1     3    1
    3     1     4    1
    4     4     5    1
    5     4     6    1
    6     4     7    1
    7     7     8    1
    8     7     9    1
    9     7    10    1
   10    10    11    1
   11     1    12    1
   12    10    12    1
   13    12    13    1
   14    12    14    1
   15    10    15    1
   16    15    16    1
@<TRIPOS>SUBSTRUCTURE
       1 MOL1            1 RESIDUE      1      MOL     
@<SCITEGIC>MOL_PROPERTY
VConf Rank
SciTegic.value.IntegerValue
417

@<SCITEGIC>MOL_PROPERTY
Conf_Id
SciTegic.value.IntegerValue
20

@<SCITEGIC>MOL_PROPERTY
Delta U+W
SciTegic.value.DoubleValue
-0.483

@<SCITEGIC>MOL_PROPERTY
U+W
SciTegic.value.DoubleValue
2.527

@<SCITEGIC>MOL_PROPERTY
Grad RMS
SciTegic.value.DoubleValue
0.000000

@<SCITEGIC>MOL_PROPERTY
U
SciTegic.value.DoubleValue
4.508

@<SCITEGIC>MOL_PROPERTY
W
SciTegic.value.DoubleValue
-1.981

@<SCITEGIC>MOL_PROPERTY
W(PB)
SciTegic.value.DoubleValue
-3.712

@<SCITEGIC>MOL_PROPERTY
W(SA)
SciTegic.value.DoubleValue
1.732

@<SCITEGIC>MOL_PROPERTY
Valence
SciTegic.value.DoubleValue
14.705

@<SCITEGIC>MOL_PROPERTY
Coulomb
SciTegic.value.DoubleValue
-10.687

@<SCITEGIC>MOL_PROPERTY
VdW
SciTegic.value.DoubleValue
0.490

@<SCITEGIC>MOL_PROPERTY
VdW6
SciTegic.value.DoubleValue
-3.745

@<SCITEGIC>MOL_PROPERTY
VdW12
SciTegic.value.DoubleValue
4.235

@<SCITEGIC>MOL_PROPERTY
Bond
SciTegic.value.DoubleValue
0.068

@<SCITEGIC>MOL_PROPERTY
Angle
SciTegic.value.DoubleValue
3.901

@<SCITEGIC>MOL_PROPERTY
Pdih
SciTegic.value.DoubleValue
10.737

@<SCITEGIC>MOL_PROPERTY
Idih
SciTegic.value.DoubleValue
0.000

@<SCITEGIC>MOL_PROPERTY
Tether
SciTegic.value.DoubleValue
0.000

@<TRIPOS>MOLECULE
guest-4_confgen4.mol2 : confsearch ligand conformer 418
          16          16           1
SMALL
USER_CHARGES
 
@<TRIPOS>ATOM
       1    C1      19.183136   19.162134   21.005184 C.3        1 MOL1        -0.1689
       2    H1      18.870020   18.338364   20.348649 H          1 MOL1         0.0830
       3    H2      19.176651   20.090990   20.418815 H          1 MOL1         0.0830
       4    C2      20.565112   18.851780   21.596413 C.3        1 MOL1        -0.1689
       5    H3      21.236713   18.381951   20.864995 H          1 MOL1         0.0830
       6    H4      21.034737   19.781611   21.946403 H          1 MOL1         0.0830
       7    C3      20.270889   17.933057   22.796387 C.3        1 MOL1        -0.1765
       8    H5      21.030166   18.043010   23.581407 H          1 MOL1         0.0830
       9    H6      20.279245   16.886325   22.463122 H          1 MOL1         0.0830
      10    C4      18.866966   18.320532   23.306822 C.3        1 MOL1         0.1214
      11    H7      18.950575   18.880138   24.249886 H          1 MOL1         0.0787
      12    C5      18.248216   19.231799   22.226741 C.3        1 MOL1        -0.1765
      13    H8      17.222872   18.935141   21.968507 H          1 MOL1         0.0830
      14    H9      18.212325   20.261710   22.604996 H          1 MOL1         0.0830
      15    O1      18.069347   17.155573   23.481639 O.3        1 MOL1        -0.5512
      16    H10     18.512595   16.611419   24.166446 H          1 MOL1         0.3776
@<TRIPOS>BOND
    1     1     2    1
    2     1     3    1
    3     1     4    1
    4     4     5    1
    5     4     6    1
    6     4     7    1
    7     7     8    1
    8     7     9    1
    9     7    10    1
   10    10    11    1
   11     1    12    1
   12    10    12    1
   13    12    13    1
   14    12    14    1
   15    10    15    1
   16    15    16    1
@<TRIPOS>SUBSTRUCTURE
       1 MOL1            1 RESIDUE      1      MOL     
@<SCITEGIC>MOL_PROPERTY
VConf Rank
SciTegic.value.IntegerValue
418

@<SCITEGIC>MOL_PROPERTY
Conf_Id
SciTegic.value.IntegerValue
59

@<SCITEGIC>MOL_PROPERTY
Delta U+W
SciTegic.value.DoubleValue
0.000

@<SCITEGIC>MOL_PROPERTY
U+W
SciTegic.value.DoubleValue
3.010

@<SCITEGIC>MOL_PROPERTY
Grad RMS
SciTegic.value.DoubleValue
0.000000

@<SCITEGIC>MOL_PROPERTY
U
SciTegic.value.DoubleValue
5.843

@<SCITEGIC>MOL_PROPERTY
W
SciTegic.value.DoubleValue
-2.833

@<SCITEGIC>MOL_PROPERTY
W(PB)
SciTegic.value.DoubleValue
-4.568

@<SCITEGIC>MOL_PROPERTY
W(SA)
SciTegic.value.DoubleValue
1.735

@<SCITEGIC>MOL_PROPERTY
Valence
SciTegic.value.DoubleValue
13.789

@<SCITEGIC>MOL_PROPERTY
Coulomb
SciTegic.value.DoubleValue
-8.574

@<SCITEGIC>MOL_PROPERTY
VdW
SciTegic.value.DoubleValue
0.628

@<SCITEGIC>MOL_PROPERTY
VdW6
SciTegic.value.DoubleValue
-3.284

@<SCITEGIC>MOL_PROPERTY
VdW12
SciTegic.value.DoubleValue
3.912

@<SCITEGIC>MOL_PROPERTY
Bond
SciTegic.value.DoubleValue
0.054

@<SCITEGIC>MOL_PROPERTY
Angle
SciTegic.value.DoubleValue
4.034

@<SCITEGIC>MOL_PROPERTY
Pdih
SciTegic.value.DoubleValue
9.702

@<SCITEGIC>MOL_PROPERTY
Idih
SciTegic.value.DoubleValue
0.000

@<SCITEGIC>MOL_PROPERTY
Tether
SciTegic.value.DoubleValue
0.000

@<TRIPOS>MOLECULE
guest-4_confgen4.mol2 : confsearch ligand conformer 419
          16          16           1
SMALL
USER_CHARGES
 
@<TRIPOS>ATOM
       1    C1      19.441710   18.170330   23.658106 C.3        1 MOL1        -0.1689
       2    H1      19.446301   17.232410   24.229984 H          1 MOL1         0.0830
       3    H2      19.575808   19.002968   24.362628 H          1 MOL1         0.0830
       4    C2      18.140179   18.366562   22.868652 C.3        1 MOL1        -0.1689
       5    H3      17.818787   17.405455   22.443612 H          1 MOL1         0.0830
       6    H4      17.325139   18.756238   23.493556 H          1 MOL1         0.0830
       7    C3      18.521428   19.331750   21.731050 C.3        1 MOL1        -0.1765
       8    H5      18.367427   20.367765   22.059744 H          1 MOL1         0.0830
       9    H6      17.902587   19.169251   20.838498 H          1 MOL1         0.0830
      10    C4      20.022288   19.110674   21.451153 C.3        1 MOL1         0.1214
      11    H7      20.541622   20.079967   21.467952 H          1 MOL1         0.0787
      12    C5      20.548386   18.209738   22.588374 C.3        1 MOL1        -0.1765
      13    H8      20.729419   17.192470   22.215314 H          1 MOL1         0.0830
      14    H9      21.491653   18.590327   23.000983 H          1 MOL1         0.0830
      15    O1      20.197358   18.467411   20.194387 O.3        1 MOL1        -0.5512
      16    H10     21.162523   18.342596   20.074364 H          1 MOL1         0.3776
@<TRIPOS>BOND
    1     1     2    1
    2     1     3    1
    3     1     4    1
    4     4     5    1
    5     4     6    1
    6     4     7    1
    7     7     8    1
    8     7     9    1
    9     7    10    1
   10    10    11    1
   11     1    12    1
   12    10    12    1
   13    12    13    1
   14    12    14    1
   15    10    15    1
   16    15    16    1
@<TRIPOS>SUBSTRUCTURE
       1 MOL1            1 RESIDUE      1      MOL     
@<SCITEGIC>MOL_PROPERTY
VConf Rank
SciTegic.value.IntegerValue
419

@<SCITEGIC>MOL_PROPERTY
Conf_Id
SciTegic.value.IntegerValue
33

@<SCITEGIC>MOL_PROPERTY
Delta U+W
SciTegic.value.DoubleValue
0.015

@<SCITEGIC>MOL_PROPERTY
U+W
SciTegic.value.DoubleValue
3.025

@<SCITEGIC>MOL_PROPERTY
Grad RMS
SciTegic.value.DoubleValue
0.000000

@<SCITEGIC>MOL_PROPERTY
U
SciTegic.value.DoubleValue
5.843

@<SCITEGIC>MOL_PROPERTY
W
SciTegic.value.DoubleValue
-2.819

@<SCITEGIC>MOL_PROPERTY
W(PB)
SciTegic.value.DoubleValue
-4.568

@<SCITEGIC>MOL_PROPERTY
W(SA)
SciTegic.value.DoubleValue
1.750

@<SCITEGIC>MOL_PROPERTY
Valence
SciTegic.value.DoubleValue
13.789

@<SCITEGIC>MOL_PROPERTY
Coulomb
SciTegic.value.DoubleValue
-8.574

@<SCITEGIC>MOL_PROPERTY
VdW
SciTegic.value.DoubleValue
0.628

@<SCITEGIC>MOL_PROPERTY
VdW6
SciTegic.value.DoubleValue
-3.284

@<SCITEGIC>MOL_PROPERTY
VdW12
SciTegic.value.DoubleValue
3.913

@<SCITEGIC>MOL_PROPERTY
Bond
SciTegic.value.DoubleValue
0.054

@<SCITEGIC>MOL_PROPERTY
Angle
SciTegic.value.DoubleValue
4.033

@<SCITEGIC>MOL_PROPERTY
Pdih
SciTegic.value.DoubleValue
9.702

@<SCITEGIC>MOL_PROPERTY
Idih
SciTegic.value.DoubleValue
0.000

@<SCITEGIC>MOL_PROPERTY
Tether
SciTegic.value.DoubleValue
0.000

@<TRIPOS>MOLECULE
guest-4_confgen4.mol2 : confsearch ligand conformer 420
          16          16           1
SMALL
USER_CHARGES
 
@<TRIPOS>ATOM
       1    C1      18.129076   19.023882   22.026925 C.3        1 MOL1        -0.1689
       2    H1      17.912717   19.241165   20.971840 H          1 MOL1         0.0830
       3    H2      17.208851   19.203238   22.599651 H          1 MOL1         0.0830
       4    C2      19.288177   19.917303   22.520184 C.3        1 MOL1        -0.1689
       5    H3      19.632079   20.567712   21.704141 H          1 MOL1         0.0830
       6    H4      18.974543   20.563305   23.351637 H          1 MOL1         0.0830
       7    C3      20.421125   18.963669   22.955440 C.3        1 MOL1        -0.1765
       8    H5      20.382805   18.820972   24.043461 H          1 MOL1         0.0830
       9    H6      21.415422   19.356833   22.704837 H          1 MOL1         0.0830
      10    C4      20.135907   17.622344   22.266608 C.3        1 MOL1         0.1214
      11    H7      20.542562   16.777792   22.841366 H          1 MOL1         0.0787
      12    C5      18.604672   17.563896   22.183795 C.3        1 MOL1        -0.1765
      13    H8      18.256637   16.922287   21.363298 H          1 MOL1         0.0830
      14    H9      18.212460   17.149065   23.121722 H          1 MOL1         0.0830
      15    O1      20.674723   17.647334   20.952888 O.3        1 MOL1        -0.5512
      16    H10     20.259999   18.422968   20.522122 H          1 MOL1         0.3776
@<TRIPOS>BOND
    1     1     2    1
    2     1     3    1
    3     1     4    1
    4     4     5    1
    5     4     6    1
    6     4     7    1
    7     7     8    1
    8     7     9    1
    9     7    10    1
   10    10    11    1
   11     1    12    1
   12    10    12    1
   13    12    13    1
   14    12    14    1
   15    10    15    1
   16    15    16    1
@<TRIPOS>SUBSTRUCTURE
       1 MOL1            1 RESIDUE      1      MOL     
@<SCITEGIC>MOL_PROPERTY
VConf Rank
SciTegic.value.IntegerValue
420

@<SCITEGIC>MOL_PROPERTY
Conf_Id
SciTegic.value.IntegerValue
20

@<SCITEGIC>MOL_PROPERTY
Delta U+W
SciTegic.value.DoubleValue
-0.483

@<SCITEGIC>MOL_PROPERTY
U+W
SciTegic.value.DoubleValue
2.527

@<SCITEGIC>MOL_PROPERTY
Grad RMS
SciTegic.value.DoubleValue
0.000000

@<SCITEGIC>MOL_PROPERTY
U
SciTegic.value.DoubleValue
4.508

@<SCITEGIC>MOL_PROPERTY
W
SciTegic.value.DoubleValue
-1.981

@<SCITEGIC>MOL_PROPERTY
W(PB)
SciTegic.value.DoubleValue
-3.712

@<SCITEGIC>MOL_PROPERTY
W(SA)
SciTegic.value.DoubleValue
1.732

@<SCITEGIC>MOL_PROPERTY
Valence
SciTegic.value.DoubleValue
14.705

@<SCITEGIC>MOL_PROPERTY
Coulomb
SciTegic.value.DoubleValue
-10.687

@<SCITEGIC>MOL_PROPERTY
VdW
SciTegic.value.DoubleValue
0.490

@<SCITEGIC>MOL_PROPERTY
VdW6
SciTegic.value.DoubleValue
-3.745

@<SCITEGIC>MOL_PROPERTY
VdW12
SciTegic.value.DoubleValue
4.235

@<SCITEGIC>MOL_PROPERTY
Bond
SciTegic.value.DoubleValue
0.068

@<SCITEGIC>MOL_PROPERTY
Angle
SciTegic.value.DoubleValue
3.901

@<SCITEGIC>MOL_PROPERTY
Pdih
SciTegic.value.DoubleValue
10.737

@<SCITEGIC>MOL_PROPERTY
Idih
SciTegic.value.DoubleValue
0.000

@<SCITEGIC>MOL_PROPERTY
Tether
SciTegic.value.DoubleValue
0.000

@<TRIPOS>MOLECULE
guest-4_confgen4.mol2 : confsearch ligand conformer 421
          16          16           1
SMALL
USER_CHARGES
 
@<TRIPOS>ATOM
       1    C1      18.848498   19.914711   22.366589 C.3        1 MOL1        -0.1689
       2    H1      18.429076   20.099860   21.367848 H          1 MOL1         0.0830
       3    H2      18.658074   20.799431   22.989206 H          1 MOL1         0.0830
       4    C2      20.344634   19.594573   22.244871 C.3        1 MOL1        -0.1689
       5    H3      20.845717   20.218583   21.492350 H          1 MOL1         0.0830
       6    H4      20.838093   19.760527   23.212644 H          1 MOL1         0.0830
       7    C3      20.388252   18.097517   21.887832 C.3        1 MOL1        -0.1765
       8    H5      21.305713   17.623101   22.259369 H          1 MOL1         0.0830
       9    H6      20.368213   17.983887   20.795371 H          1 MOL1         0.0830
      10    C4      19.128228   17.464067   22.514537 C.3        1 MOL1         0.1214
      11    H7      19.405720   16.866132   23.394873 H          1 MOL1         0.0787
      12    C5      18.227553   18.635535   22.957577 C.3        1 MOL1        -0.1765
      13    H8      17.185880   18.505529   22.635030 H          1 MOL1         0.0830
      14    H9      18.232357   18.696061   24.053658 H          1 MOL1         0.0830
      15    O1      18.452355   16.661743   21.553620 O.3        1 MOL1        -0.5512
      16    H10     19.071205   15.944277   21.301035 H          1 MOL1         0.3776
@<TRIPOS>BOND
    1     1     2    1
    2     1     3    1
    3     1     4    1
    4     4     5    1
    5     4     6    1
    6     4     7    1
    7     7     8    1
    8     7     9    1
    9     7    10    1
   10    10    11    1
   11     1    12    1
   12    10    12    1
   13    12    13    1
   14    12    14    1
   15    10    15    1
   16    15    16    1
@<TRIPOS>SUBSTRUCTURE
       1 MOL1            1 RESIDUE      1      MOL     
@<SCITEGIC>MOL_PROPERTY
VConf Rank
SciTegic.value.IntegerValue
421

@<SCITEGIC>MOL_PROPERTY
Conf_Id
SciTegic.value.IntegerValue
59

@<SCITEGIC>MOL_PROPERTY
Delta U+W
SciTegic.value.DoubleValue
0.000

@<SCITEGIC>MOL_PROPERTY
U+W
SciTegic.value.DoubleValue
3.010

@<SCITEGIC>MOL_PROPERTY
Grad RMS
SciTegic.value.DoubleValue
0.000000

@<SCITEGIC>MOL_PROPERTY
U
SciTegic.value.DoubleValue
5.843

@<SCITEGIC>MOL_PROPERTY
W
SciTegic.value.DoubleValue
-2.833

@<SCITEGIC>MOL_PROPERTY
W(PB)
SciTegic.value.DoubleValue
-4.568

@<SCITEGIC>MOL_PROPERTY
W(SA)
SciTegic.value.DoubleValue
1.735

@<SCITEGIC>MOL_PROPERTY
Valence
SciTegic.value.DoubleValue
13.789

@<SCITEGIC>MOL_PROPERTY
Coulomb
SciTegic.value.DoubleValue
-8.574

@<SCITEGIC>MOL_PROPERTY
VdW
SciTegic.value.DoubleValue
0.628

@<SCITEGIC>MOL_PROPERTY
VdW6
SciTegic.value.DoubleValue
-3.284

@<SCITEGIC>MOL_PROPERTY
VdW12
SciTegic.value.DoubleValue
3.912

@<SCITEGIC>MOL_PROPERTY
Bond
SciTegic.value.DoubleValue
0.054

@<SCITEGIC>MOL_PROPERTY
Angle
SciTegic.value.DoubleValue
4.034

@<SCITEGIC>MOL_PROPERTY
Pdih
SciTegic.value.DoubleValue
9.702

@<SCITEGIC>MOL_PROPERTY
Idih
SciTegic.value.DoubleValue
0.000

@<SCITEGIC>MOL_PROPERTY
Tether
SciTegic.value.DoubleValue
0.000

@<TRIPOS>MOLECULE
guest-4_confgen4.mol2 : confsearch ligand conformer 422
          16          16           1
SMALL
USER_CHARGES
 
@<TRIPOS>ATOM
       1    C1      19.352759   18.670613   23.723233 C.3        1 MOL1        -0.1689
       2    H1      19.275993   19.419952   24.522831 H          1 MOL1         0.0830
       3    H2      19.199590   17.677221   24.167455 H          1 MOL1         0.0830
       4    C2      20.711671   18.713710   23.011033 C.3        1 MOL1        -0.1689
       5    H3      21.027820   19.758480   22.883814 H          1 MOL1         0.0830
       6    H4      21.494813   18.182698   23.569025 H          1 MOL1         0.0830
       7    C3      20.443697   18.084439   21.631437 C.3        1 MOL1        -0.1765
       8    H5      20.610777   17.000649   21.682111 H          1 MOL1         0.0830
       9    H6      21.116533   18.490392   20.864291 H          1 MOL1         0.0830
      10    C4      18.958894   18.349893   21.307872 C.3        1 MOL1         0.1214
      11    H7      18.473820   17.404053   21.025718 H          1 MOL1         0.0787
      12    C5      18.324506   18.903644   22.601181 C.3        1 MOL1        -0.1765
      13    H8      18.134187   19.980904   22.500828 H          1 MOL1         0.0830
      14    H9      17.368915   18.411850   22.824413 H          1 MOL1         0.0830
      15    O1      18.848503   19.304776   20.259107 O.3        1 MOL1        -0.5512
      16    H10     17.890136   19.442638   20.104008 H          1 MOL1         0.3776
@<TRIPOS>BOND
    1     1     2    1
    2     1     3    1
    3     1     4    1
    4     4     5    1
    5     4     6    1
    6     4     7    1
    7     7     8    1
    8     7     9    1
    9     7    10    1
   10    10    11    1
   11     1    12    1
   12    10    12    1
   13    12    13    1
   14    12    14    1
   15    10    15    1
   16    15    16    1
@<TRIPOS>SUBSTRUCTURE
       1 MOL1            1 RESIDUE      1      MOL     
@<SCITEGIC>MOL_PROPERTY
VConf Rank
SciTegic.value.IntegerValue
422

@<SCITEGIC>MOL_PROPERTY
Conf_Id
SciTegic.value.IntegerValue
33

@<SCITEGIC>MOL_PROPERTY
Delta U+W
SciTegic.value.DoubleValue
0.015

@<SCITEGIC>MOL_PROPERTY
U+W
SciTegic.value.DoubleValue
3.025

@<SCITEGIC>MOL_PROPERTY
Grad RMS
SciTegic.value.DoubleValue
0.000000

@<SCITEGIC>MOL_PROPERTY
U
SciTegic.value.DoubleValue
5.843

@<SCITEGIC>MOL_PROPERTY
W
SciTegic.value.DoubleValue
-2.819

@<SCITEGIC>MOL_PROPERTY
W(PB)
SciTegic.value.DoubleValue
-4.568

@<SCITEGIC>MOL_PROPERTY
W(SA)
SciTegic.value.DoubleValue
1.750

@<SCITEGIC>MOL_PROPERTY
Valence
SciTegic.value.DoubleValue
13.789

@<SCITEGIC>MOL_PROPERTY
Coulomb
SciTegic.value.DoubleValue
-8.574

@<SCITEGIC>MOL_PROPERTY
VdW
SciTegic.value.DoubleValue
0.628

@<SCITEGIC>MOL_PROPERTY
VdW6
SciTegic.value.DoubleValue
-3.284

@<SCITEGIC>MOL_PROPERTY
VdW12
SciTegic.value.DoubleValue
3.913

@<SCITEGIC>MOL_PROPERTY
Bond
SciTegic.value.DoubleValue
0.054

@<SCITEGIC>MOL_PROPERTY
Angle
SciTegic.value.DoubleValue
4.033

@<SCITEGIC>MOL_PROPERTY
Pdih
SciTegic.value.DoubleValue
9.702

@<SCITEGIC>MOL_PROPERTY
Idih
SciTegic.value.DoubleValue
0.000

@<SCITEGIC>MOL_PROPERTY
Tether
SciTegic.value.DoubleValue
0.000

@<TRIPOS>MOLECULE
guest-4_confgen4.mol2 : confsearch ligand conformer 423
          16          16           1
SMALL
USER_CHARGES
 
@<TRIPOS>ATOM
       1    C1      20.447221   19.091539   21.617364 C.3        1 MOL1        -0.1689
       2    H1      21.204532   19.540120   22.274999 H          1 MOL1         0.0830
       3    H2      20.818684   19.160462   20.585734 H          1 MOL1         0.0830
       4    C2      19.101115   19.829333   21.786719 C.3        1 MOL1        -0.1689
       5    H3      19.207219   20.635647   22.525520 H          1 MOL1         0.0830
       6    H4      18.767914   20.283350   20.843403 H          1 MOL1         0.0830
       7    C3      18.086132   18.779035   22.285837 C.3        1 MOL1        -0.1765
       8    H5      17.501371   18.401470   21.436649 H          1 MOL1         0.0830
       9    H6      17.381488   19.196055   23.017668 H          1 MOL1         0.0830
      10    C4      18.917195   17.628485   22.869412 C.3        1 MOL1         0.1214
      11    H7      18.383125   16.669625   22.803530 H          1 MOL1         0.0787
      12    C5      20.194804   17.622843   22.019328 C.3        1 MOL1        -0.1765
      13    H8      21.048291   17.185028   22.554007 H          1 MOL1         0.0830
      14    H9      20.020638   17.020533   21.117935 H          1 MOL1         0.0830
      15    O1      19.252735   17.930039   24.215994 O.3        1 MOL1        -0.5512
      16    H10     19.719291   18.790198   24.175816 H          1 MOL1         0.3776
@<TRIPOS>BOND
    1     1     2    1
    2     1     3    1
    3     1     4    1
    4     4     5    1
    5     4     6    1
    6     4     7    1
    7     7     8    1
    8     7     9    1
    9     7    10    1
   10    10    11    1
   11     1    12    1
   12    10    12    1
   13    12    13    1
   14    12    14    1
   15    10    15    1
   16    15    16    1
@<TRIPOS>SUBSTRUCTURE
       1 MOL1            1 RESIDUE      1      MOL     
@<SCITEGIC>MOL_PROPERTY
VConf Rank
SciTegic.value.IntegerValue
423

@<SCITEGIC>MOL_PROPERTY
Conf_Id
SciTegic.value.IntegerValue
20

@<SCITEGIC>MOL_PROPERTY
Delta U+W
SciTegic.value.DoubleValue
-0.483

@<SCITEGIC>MOL_PROPERTY
U+W
SciTegic.value.DoubleValue
2.527

@<SCITEGIC>MOL_PROPERTY
Grad RMS
SciTegic.value.DoubleValue
0.000000

@<SCITEGIC>MOL_PROPERTY
U
SciTegic.value.DoubleValue
4.508

@<SCITEGIC>MOL_PROPERTY
W
SciTegic.value.DoubleValue
-1.981

@<SCITEGIC>MOL_PROPERTY
W(PB)
SciTegic.value.DoubleValue
-3.712

@<SCITEGIC>MOL_PROPERTY
W(SA)
SciTegic.value.DoubleValue
1.732

@<SCITEGIC>MOL_PROPERTY
Valence
SciTegic.value.DoubleValue
14.705

@<SCITEGIC>MOL_PROPERTY
Coulomb
SciTegic.value.DoubleValue
-10.687

@<SCITEGIC>MOL_PROPERTY
VdW
SciTegic.value.DoubleValue
0.490

@<SCITEGIC>MOL_PROPERTY
VdW6
SciTegic.value.DoubleValue
-3.745

@<SCITEGIC>MOL_PROPERTY
VdW12
SciTegic.value.DoubleValue
4.235

@<SCITEGIC>MOL_PROPERTY
Bond
SciTegic.value.DoubleValue
0.068

@<SCITEGIC>MOL_PROPERTY
Angle
SciTegic.value.DoubleValue
3.901

@<SCITEGIC>MOL_PROPERTY
Pdih
SciTegic.value.DoubleValue
10.737

@<SCITEGIC>MOL_PROPERTY
Idih
SciTegic.value.DoubleValue
0.000

@<SCITEGIC>MOL_PROPERTY
Tether
SciTegic.value.DoubleValue
0.000

@<TRIPOS>MOLECULE
guest-4_confgen4.mol2 : confsearch ligand conformer 424
          16          16           1
SMALL
USER_CHARGES
 
@<TRIPOS>ATOM
       1    C1      20.078544   17.352723   21.925081 C.3        1 MOL1        -0.1689
       2    H1      20.816631   17.192793   22.723408 H          1 MOL1         0.0830
       3    H2      20.156953   16.520669   21.212212 H          1 MOL1         0.0830
       4    C2      20.323245   18.716090   21.263962 C.3        1 MOL1        -0.1689
       5    H3      21.392698   18.935573   21.142076 H          1 MOL1         0.0830
       6    H4      19.853238   18.734995   20.270805 H          1 MOL1         0.0830
       7    C3      19.620419   19.723597   22.192145 C.3        1 MOL1        -0.1765
       8    H5      19.268366   20.602557   21.636868 H          1 MOL1         0.0830
       9    H6      20.329631   20.069213   22.956574 H          1 MOL1         0.0830
      10    C4      18.450644   18.963825   22.852488 C.3        1 MOL1         0.1214
      11    H7      17.495643   19.289332   22.414838 H          1 MOL1         0.0787
      12    C5      18.671458   17.469446   22.539586 C.3        1 MOL1        -0.1765
      13    H8      18.565917   16.836898   23.431082 H          1 MOL1         0.0830
      14    H9      17.921483   17.142362   21.807715 H          1 MOL1         0.0830
      15    O1      18.458539   19.176963   24.259043 O.3        1 MOL1        -0.5512
      16    H10     18.326159   20.138499   24.398529 H          1 MOL1         0.3776
@<TRIPOS>BOND
    1     1     2    1
    2     1     3    1
    3     1     4    1
    4     4     5    1
    5     4     6    1
    6     4     7    1
    7     7     8    1
    8     7     9    1
    9     7    10    1
   10    10    11    1
   11     1    12    1
   12    10    12    1
   13    12    13    1
   14    12    14    1
   15    10    15    1
   16    15    16    1
@<TRIPOS>SUBSTRUCTURE
       1 MOL1            1 RESIDUE      1      MOL     
@<SCITEGIC>MOL_PROPERTY
VConf Rank
SciTegic.value.IntegerValue
424

@<SCITEGIC>MOL_PROPERTY
Conf_Id
SciTegic.value.IntegerValue
59

@<SCITEGIC>MOL_PROPERTY
Delta U+W
SciTegic.value.DoubleValue
0.000

@<SCITEGIC>MOL_PROPERTY
U+W
SciTegic.value.DoubleValue
3.010

@<SCITEGIC>MOL_PROPERTY
Grad RMS
SciTegic.value.DoubleValue
0.000000

@<SCITEGIC>MOL_PROPERTY
U
SciTegic.value.DoubleValue
5.843

@<SCITEGIC>MOL_PROPERTY
W
SciTegic.value.DoubleValue
-2.833

@<SCITEGIC>MOL_PROPERTY
W(PB)
SciTegic.value.DoubleValue
-4.568

@<SCITEGIC>MOL_PROPERTY
W(SA)
SciTegic.value.DoubleValue
1.735

@<SCITEGIC>MOL_PROPERTY
Valence
SciTegic.value.DoubleValue
13.789

@<SCITEGIC>MOL_PROPERTY
Coulomb
SciTegic.value.DoubleValue
-8.574

@<SCITEGIC>MOL_PROPERTY
VdW
SciTegic.value.DoubleValue
0.628

@<SCITEGIC>MOL_PROPERTY
VdW6
SciTegic.value.DoubleValue
-3.284

@<SCITEGIC>MOL_PROPERTY
VdW12
SciTegic.value.DoubleValue
3.912

@<SCITEGIC>MOL_PROPERTY
Bond
SciTegic.value.DoubleValue
0.054

@<SCITEGIC>MOL_PROPERTY
Angle
SciTegic.value.DoubleValue
4.034

@<SCITEGIC>MOL_PROPERTY
Pdih
SciTegic.value.DoubleValue
9.702

@<SCITEGIC>MOL_PROPERTY
Idih
SciTegic.value.DoubleValue
0.000

@<SCITEGIC>MOL_PROPERTY
Tether
SciTegic.value.DoubleValue
0.000

@<TRIPOS>MOLECULE
guest-4_confgen4.mol2 : confsearch ligand conformer 425
          16          16           1
SMALL
USER_CHARGES
 
@<TRIPOS>ATOM
       1    C1      19.278626   17.226749   22.625392 C.3        1 MOL1        -0.1689
       2    H1      19.505682   16.532749   23.446104 H          1 MOL1         0.0830
       3    H2      18.634277   16.705991   21.903418 H          1 MOL1         0.0830
       4    C2      20.544864   17.729436   21.918516 C.3        1 MOL1        -0.1689
       5    H3      21.330970   17.919868   22.662460 H          1 MOL1         0.0830
       6    H4      20.931432   17.007357   21.186526 H          1 MOL1         0.0830
       7    C3      20.120051   19.057758   21.265699 C.3        1 MOL1        -0.1765
       8    H5      19.744106   18.866522   20.252200 H          1 MOL1         0.0830
       9    H6      20.964006   19.755499   21.182532 H          1 MOL1         0.0830
      10    C4      18.974042   19.625153   22.128556 C.3        1 MOL1         0.1214
      11    H7      18.120213   19.872900   21.481163 H          1 MOL1         0.0787
      12    C5      18.580350   18.507701   23.117516 C.3        1 MOL1        -0.1765
      13    H8      18.936823   18.750524   24.127836 H          1 MOL1         0.0830
      14    H9      17.491550   18.377445   23.166442 H          1 MOL1         0.0830
      15    O1      19.417809   20.775234   22.838685 O.3        1 MOL1        -0.5512
      16    H10     18.657815   21.085025   23.375312 H          1 MOL1         0.3776
@<TRIPOS>BOND
    1     1     2    1
    2     1     3    1
    3     1     4    1
    4     4     5    1
    5     4     6    1
    6     4     7    1
    7     7     8    1
    8     7     9    1
    9     7    10    1
   10    10    11    1
   11     1    12    1
   12    10    12    1
   13    12    13    1
   14    12    14    1
   15    10    15    1
   16    15    16    1
@<TRIPOS>SUBSTRUCTURE
       1 MOL1            1 RESIDUE      1      MOL     
@<SCITEGIC>MOL_PROPERTY
VConf Rank
SciTegic.value.IntegerValue
425

@<SCITEGIC>MOL_PROPERTY
Conf_Id
SciTegic.value.IntegerValue
33

@<SCITEGIC>MOL_PROPERTY
Delta U+W
SciTegic.value.DoubleValue
0.015

@<SCITEGIC>MOL_PROPERTY
U+W
SciTegic.value.DoubleValue
3.025

@<SCITEGIC>MOL_PROPERTY
Grad RMS
SciTegic.value.DoubleValue
0.000000

@<SCITEGIC>MOL_PROPERTY
U
SciTegic.value.DoubleValue
5.843

@<SCITEGIC>MOL_PROPERTY
W
SciTegic.value.DoubleValue
-2.819

@<SCITEGIC>MOL_PROPERTY
W(PB)
SciTegic.value.DoubleValue
-4.568

@<SCITEGIC>MOL_PROPERTY
W(SA)
SciTegic.value.DoubleValue
1.750

@<SCITEGIC>MOL_PROPERTY
Valence
SciTegic.value.DoubleValue
13.789

@<SCITEGIC>MOL_PROPERTY
Coulomb
SciTegic.value.DoubleValue
-8.574

@<SCITEGIC>MOL_PROPERTY
VdW
SciTegic.value.DoubleValue
0.628

@<SCITEGIC>MOL_PROPERTY
VdW6
SciTegic.value.DoubleValue
-3.284

@<SCITEGIC>MOL_PROPERTY
VdW12
SciTegic.value.DoubleValue
3.913

@<SCITEGIC>MOL_PROPERTY
Bond
SciTegic.value.DoubleValue
0.054

@<SCITEGIC>MOL_PROPERTY
Angle
SciTegic.value.DoubleValue
4.033

@<SCITEGIC>MOL_PROPERTY
Pdih
SciTegic.value.DoubleValue
9.702

@<SCITEGIC>MOL_PROPERTY
Idih
SciTegic.value.DoubleValue
0.000

@<SCITEGIC>MOL_PROPERTY
Tether
SciTegic.value.DoubleValue
0.000

@<TRIPOS>MOLECULE
guest-4_confgen4.mol2 : confsearch ligand conformer 426
          16          16           1
SMALL
USER_CHARGES
 
@<TRIPOS>ATOM
       1    C1      19.881241   19.283546   23.296671 C.3        1 MOL1        -0.1689
       2    H1      20.330219   18.648354   24.072673 H          1 MOL1         0.0830
       3    H2      20.000020   20.329236   23.611979 H          1 MOL1         0.0830
       4    C2      18.393899   18.912260   23.109635 C.3        1 MOL1        -0.1689
       5    H3      18.122777   18.098113   23.795845 H          1 MOL1         0.0830
       6    H4      17.734676   19.764055   23.326128 H          1 MOL1         0.0830
       7    C3      18.239201   18.449162   21.645379 C.3        1 MOL1        -0.1765
       8    H5      17.863014   19.280998   21.035335 H          1 MOL1         0.0830
       9    H6      17.532143   17.614877   21.545164 H          1 MOL1         0.0830
      10    C4      19.648754   18.077273   21.165947 C.3        1 MOL1         0.1214
      11    H7      19.753291   18.205254   20.078898 H          1 MOL1         0.0787
      12    C5      20.569202   19.032032   21.938066 C.3        1 MOL1        -0.1765
      13    H8      21.584075   18.628720   22.053720 H          1 MOL1         0.0830
      14    H9      20.646444   19.977627   21.385340 H          1 MOL1         0.0830
      15    O1      19.935240   16.739971   21.548510 O.3        1 MOL1        -0.5512
      16    H10     19.817557   16.722286   22.520622 H          1 MOL1         0.3776
@<TRIPOS>BOND
    1     1     2    1
    2     1     3    1
    3     1     4    1
    4     4     5    1
    5     4     6    1
    6     4     7    1
    7     7     8    1
    8     7     9    1
    9     7    10    1
   10    10    11    1
   11     1    12    1
   12    10    12    1
   13    12    13    1
   14    12    14    1
   15    10    15    1
   16    15    16    1
@<TRIPOS>SUBSTRUCTURE
       1 MOL1            1 RESIDUE      1      MOL     
@<SCITEGIC>MOL_PROPERTY
VConf Rank
SciTegic.value.IntegerValue
426

@<SCITEGIC>MOL_PROPERTY
Conf_Id
SciTegic.value.IntegerValue
20

@<SCITEGIC>MOL_PROPERTY
Delta U+W
SciTegic.value.DoubleValue
-0.483

@<SCITEGIC>MOL_PROPERTY
U+W
SciTegic.value.DoubleValue
2.527

@<SCITEGIC>MOL_PROPERTY
Grad RMS
SciTegic.value.DoubleValue
0.000000

@<SCITEGIC>MOL_PROPERTY
U
SciTegic.value.DoubleValue
4.508

@<SCITEGIC>MOL_PROPERTY
W
SciTegic.value.DoubleValue
-1.981

@<SCITEGIC>MOL_PROPERTY
W(PB)
SciTegic.value.DoubleValue
-3.712

@<SCITEGIC>MOL_PROPERTY
W(SA)
SciTegic.value.DoubleValue
1.732

@<SCITEGIC>MOL_PROPERTY
Valence
SciTegic.value.DoubleValue
14.705

@<SCITEGIC>MOL_PROPERTY
Coulomb
SciTegic.value.DoubleValue
-10.687

@<SCITEGIC>MOL_PROPERTY
VdW
SciTegic.value.DoubleValue
0.490

@<SCITEGIC>MOL_PROPERTY
VdW6
SciTegic.value.DoubleValue
-3.745

@<SCITEGIC>MOL_PROPERTY
VdW12
SciTegic.value.DoubleValue
4.235

@<SCITEGIC>MOL_PROPERTY
Bond
SciTegic.value.DoubleValue
0.068

@<SCITEGIC>MOL_PROPERTY
Angle
SciTegic.value.DoubleValue
3.901

@<SCITEGIC>MOL_PROPERTY
Pdih
SciTegic.value.DoubleValue
10.737

@<SCITEGIC>MOL_PROPERTY
Idih
SciTegic.value.DoubleValue
0.000

@<SCITEGIC>MOL_PROPERTY
Tether
SciTegic.value.DoubleValue
0.000

@<TRIPOS>MOLECULE
guest-4_confgen4.mol2 : confsearch ligand conformer 427
          16          16           1
SMALL
USER_CHARGES
 
@<TRIPOS>ATOM
       1    C1      18.849654   19.350754   23.418929 C.3        1 MOL1        -0.1689
       2    H1      19.744056   19.755668   23.912655 H          1 MOL1         0.0830
       3    H2      17.963469   19.757565   23.924721 H          1 MOL1         0.0830
       4    C2      18.892457   17.816926   23.454504 C.3        1 MOL1        -0.1689
       5    H3      19.274137   17.431489   24.409762 H          1 MOL1         0.0830
       6    H4      17.881098   17.415255   23.301401 H          1 MOL1         0.0830
       7    C3      19.791667   17.431106   22.265756 C.3        1 MOL1        -0.1765
       8    H5      19.517943   16.449553   21.857743 H          1 MOL1         0.0830
       9    H6      20.835881   17.377197   22.602648 H          1 MOL1         0.0830
      10    C4      19.625996   18.548680   21.214442 C.3        1 MOL1         0.1214
      11    H7      19.017530   18.186569   20.372917 H          1 MOL1         0.0787
      12    C5      18.884166   19.702553   21.920204 C.3        1 MOL1        -0.1765
      13    H8      19.362756   20.675172   21.744176 H          1 MOL1         0.0830
      14    H9      17.859130   19.759860   21.531488 H          1 MOL1         0.0830
      15    O1      20.900527   18.989289   20.761316 O.3        1 MOL1        -0.5512
      16    H10     21.329100   18.217897   20.333750 H          1 MOL1         0.3776
@<TRIPOS>BOND
    1     1     2    1
    2     1     3    1
    3     1     4    1
    4     4     5    1
    5     4     6    1
    6     4     7    1
    7     7     8    1
    8     7     9    1
    9     7    10    1
   10    10    11    1
   11     1    12    1
   12    10    12    1
   13    12    13    1
   14    12    14    1
   15    10    15    1
   16    15    16    1
@<TRIPOS>SUBSTRUCTURE
       1 MOL1            1 RESIDUE      1      MOL     
@<SCITEGIC>MOL_PROPERTY
VConf Rank
SciTegic.value.IntegerValue
427

@<SCITEGIC>MOL_PROPERTY
Conf_Id
SciTegic.value.IntegerValue
59

@<SCITEGIC>MOL_PROPERTY
Delta U+W
SciTegic.value.DoubleValue
0.000

@<SCITEGIC>MOL_PROPERTY
U+W
SciTegic.value.DoubleValue
3.010

@<SCITEGIC>MOL_PROPERTY
Grad RMS
SciTegic.value.DoubleValue
0.000000

@<SCITEGIC>MOL_PROPERTY
U
SciTegic.value.DoubleValue
5.843

@<SCITEGIC>MOL_PROPERTY
W
SciTegic.value.DoubleValue
-2.833

@<SCITEGIC>MOL_PROPERTY
W(PB)
SciTegic.value.DoubleValue
-4.568

@<SCITEGIC>MOL_PROPERTY
W(SA)
SciTegic.value.DoubleValue
1.735

@<SCITEGIC>MOL_PROPERTY
Valence
SciTegic.value.DoubleValue
13.789

@<SCITEGIC>MOL_PROPERTY
Coulomb
SciTegic.value.DoubleValue
-8.574

@<SCITEGIC>MOL_PROPERTY
VdW
SciTegic.value.DoubleValue
0.628

@<SCITEGIC>MOL_PROPERTY
VdW6
SciTegic.value.DoubleValue
-3.284

@<SCITEGIC>MOL_PROPERTY
VdW12
SciTegic.value.DoubleValue
3.912

@<SCITEGIC>MOL_PROPERTY
Bond
SciTegic.value.DoubleValue
0.054

@<SCITEGIC>MOL_PROPERTY
Angle
SciTegic.value.DoubleValue
4.034

@<SCITEGIC>MOL_PROPERTY
Pdih
SciTegic.value.DoubleValue
9.702

@<SCITEGIC>MOL_PROPERTY
Idih
SciTegic.value.DoubleValue
0.000

@<SCITEGIC>MOL_PROPERTY
Tether
SciTegic.value.DoubleValue
0.000

@<TRIPOS>MOLECULE
guest-4_confgen4.mol2 : confsearch ligand conformer 428
          16          16           1
SMALL
USER_CHARGES
 
@<TRIPOS>ATOM
       1    C1      19.405046   19.037901   23.662493 C.3        1 MOL1        -0.1689
       2    H1      19.792558   18.731236   24.643590 H          1 MOL1         0.0830
       3    H2      18.932315   20.023805   23.772676 H          1 MOL1         0.0830
       4    C2      18.387117   18.037461   23.097985 C.3        1 MOL1        -0.1689
       5    H3      18.717962   17.012535   23.316495 H          1 MOL1         0.0830
       6    H4      17.384088   18.173631   23.524638 H          1 MOL1         0.0830
       7    C3      18.415973   18.275362   21.576918 C.3        1 MOL1        -0.1765
       8    H5      17.673198   19.038032   21.309140 H          1 MOL1         0.0830
       9    H6      18.171288   17.361060   21.019961 H          1 MOL1         0.0830
      10    C4      19.825122   18.805950   21.241400 C.3        1 MOL1         0.1214
      11    H7      19.734570   19.729710   20.651496 H          1 MOL1         0.0787
      12    C5      20.509291   19.106424   22.591720 C.3        1 MOL1        -0.1765
      13    H8      21.273241   18.347400   22.808615 H          1 MOL1         0.0830
      14    H9      21.001273   20.087626   22.585178 H          1 MOL1         0.0830
      15    O1      20.562299   17.821858   20.525837 O.3        1 MOL1        -0.5512
      16    H10     21.447275   18.205921   20.350215 H          1 MOL1         0.3776
@<TRIPOS>BOND
    1     1     2    1
    2     1     3    1
    3     1     4    1
    4     4     5    1
    5     4     6    1
    6     4     7    1
    7     7     8    1
    8     7     9    1
    9     7    10    1
   10    10    11    1
   11     1    12    1
   12    10    12    1
   13    12    13    1
   14    12    14    1
   15    10    15    1
   16    15    16    1
@<TRIPOS>SUBSTRUCTURE
       1 MOL1            1 RESIDUE      1      MOL     
@<SCITEGIC>MOL_PROPERTY
VConf Rank
SciTegic.value.IntegerValue
428

@<SCITEGIC>MOL_PROPERTY
Conf_Id
SciTegic.value.IntegerValue
33

@<SCITEGIC>MOL_PROPERTY
Delta U+W
SciTegic.value.DoubleValue
0.015

@<SCITEGIC>MOL_PROPERTY
U+W
SciTegic.value.DoubleValue
3.025

@<SCITEGIC>MOL_PROPERTY
Grad RMS
SciTegic.value.DoubleValue
0.000000

@<SCITEGIC>MOL_PROPERTY
U
SciTegic.value.DoubleValue
5.843

@<SCITEGIC>MOL_PROPERTY
W
SciTegic.value.DoubleValue
-2.819

@<SCITEGIC>MOL_PROPERTY
W(PB)
SciTegic.value.DoubleValue
-4.568

@<SCITEGIC>MOL_PROPERTY
W(SA)
SciTegic.value.DoubleValue
1.750

@<SCITEGIC>MOL_PROPERTY
Valence
SciTegic.value.DoubleValue
13.789

@<SCITEGIC>MOL_PROPERTY
Coulomb
SciTegic.value.DoubleValue
-8.574

@<SCITEGIC>MOL_PROPERTY
VdW
SciTegic.value.DoubleValue
0.628

@<SCITEGIC>MOL_PROPERTY
VdW6
SciTegic.value.DoubleValue
-3.284

@<SCITEGIC>MOL_PROPERTY
VdW12
SciTegic.value.DoubleValue
3.913

@<SCITEGIC>MOL_PROPERTY
Bond
SciTegic.value.DoubleValue
0.054

@<SCITEGIC>MOL_PROPERTY
Angle
SciTegic.value.DoubleValue
4.033

@<SCITEGIC>MOL_PROPERTY
Pdih
SciTegic.value.DoubleValue
9.702

@<SCITEGIC>MOL_PROPERTY
Idih
SciTegic.value.DoubleValue
0.000

@<SCITEGIC>MOL_PROPERTY
Tether
SciTegic.value.DoubleValue
0.000

@<TRIPOS>MOLECULE
guest-4_confgen4.mol2 : confsearch ligand conformer 429
          16          16           1
SMALL
USER_CHARGES
 
@<TRIPOS>ATOM
       1    C1      18.594401   18.771985   21.188356 C.3        1 MOL1        -0.1689
       2    H1      19.101622   18.609131   20.227402 H          1 MOL1         0.0830
       3    H2      17.544197   19.013260   20.974221 H          1 MOL1         0.0830
       4    C2      19.291916   19.910735   21.964075 C.3        1 MOL1        -0.1689
       5    H3      20.136047   20.299711   21.378099 H          1 MOL1         0.0830
       6    H4      18.606275   20.747290   22.156616 H          1 MOL1         0.0830
       7    C3      19.799097   19.293849   23.284929 C.3        1 MOL1        -0.1765
       8    H5      19.081540   19.506371   24.088400 H          1 MOL1         0.0830
       9    H6      20.771864   19.702933   23.588873 H          1 MOL1         0.0830
      10    C4      19.852902   17.777830   23.053017 C.3        1 MOL1         0.1214
      11    H7      19.720560   17.220029   23.991274 H          1 MOL1         0.0787
      12    C5      18.705208   17.510031   22.070145 C.3        1 MOL1        -0.1765
      13    H8      18.869355   16.600671   21.476744 H          1 MOL1         0.0830
      14    H9      17.774447   17.375640   22.636930 H          1 MOL1         0.0830
      15    O1      21.086426   17.442850   22.434135 O.3        1 MOL1        -0.5512
      16    H10     21.115896   17.981448   21.616697 H          1 MOL1         0.3776
@<TRIPOS>BOND
    1     1     2    1
    2     1     3    1
    3     1     4    1
    4     4     5    1
    5     4     6    1
    6     4     7    1
    7     7     8    1
    8     7     9    1
    9     7    10    1
   10    10    11    1
   11     1    12    1
   12    10    12    1
   13    12    13    1
   14    12    14    1
   15    10    15    1
   16    15    16    1
@<TRIPOS>SUBSTRUCTURE
       1 MOL1            1 RESIDUE      1      MOL     
@<SCITEGIC>MOL_PROPERTY
VConf Rank
SciTegic.value.IntegerValue
429

@<SCITEGIC>MOL_PROPERTY
Conf_Id
SciTegic.value.IntegerValue
20

@<SCITEGIC>MOL_PROPERTY
Delta U+W
SciTegic.value.DoubleValue
-0.483

@<SCITEGIC>MOL_PROPERTY
U+W
SciTegic.value.DoubleValue
2.527

@<SCITEGIC>MOL_PROPERTY
Grad RMS
SciTegic.value.DoubleValue
0.000000

@<SCITEGIC>MOL_PROPERTY
U
SciTegic.value.DoubleValue
4.508

@<SCITEGIC>MOL_PROPERTY
W
SciTegic.value.DoubleValue
-1.981

@<SCITEGIC>MOL_PROPERTY
W(PB)
SciTegic.value.DoubleValue
-3.712

@<SCITEGIC>MOL_PROPERTY
W(SA)
SciTegic.value.DoubleValue
1.732

@<SCITEGIC>MOL_PROPERTY
Valence
SciTegic.value.DoubleValue
14.705

@<SCITEGIC>MOL_PROPERTY
Coulomb
SciTegic.value.DoubleValue
-10.687

@<SCITEGIC>MOL_PROPERTY
VdW
SciTegic.value.DoubleValue
0.490

@<SCITEGIC>MOL_PROPERTY
VdW6
SciTegic.value.DoubleValue
-3.745

@<SCITEGIC>MOL_PROPERTY
VdW12
SciTegic.value.DoubleValue
4.235

@<SCITEGIC>MOL_PROPERTY
Bond
SciTegic.value.DoubleValue
0.068

@<SCITEGIC>MOL_PROPERTY
Angle
SciTegic.value.DoubleValue
3.901

@<SCITEGIC>MOL_PROPERTY
Pdih
SciTegic.value.DoubleValue
10.737

@<SCITEGIC>MOL_PROPERTY
Idih
SciTegic.value.DoubleValue
0.000

@<SCITEGIC>MOL_PROPERTY
Tether
SciTegic.value.DoubleValue
0.000

@<TRIPOS>MOLECULE
guest-4_confgen4.mol2 : confsearch ligand conformer 430
          16          16           1
SMALL
USER_CHARGES
 
@<TRIPOS>ATOM
       1    C1      18.845680   19.367695   21.223647 C.3        1 MOL1        -0.1689
       2    H1      19.542415   19.198258   20.390862 H          1 MOL1         0.0830
       3    H2      18.038945   20.023657   20.869336 H          1 MOL1         0.0830
       4    C2      19.605233   19.964455   22.416410 C.3        1 MOL1        -0.1689
       5    H3      20.356827   20.703080   22.106086 H          1 MOL1         0.0830
       6    H4      18.897014   20.459384   23.095450 H          1 MOL1         0.0830
       7    C3      20.234911   18.746892   23.117554 C.3        1 MOL1        -0.1765
       8    H5      20.353879   18.921459   24.194689 H          1 MOL1         0.0830
       9    H6      21.230991   18.558866   22.694167 H          1 MOL1         0.0830
      10    C4      19.300062   17.551603   22.836451 C.3        1 MOL1         0.1214
      11    H7      18.734401   17.294665   23.743936 H          1 MOL1         0.0787
      12    C5      18.319812   18.015383   21.739249 C.3        1 MOL1        -0.1765
      13    H8      18.225773   17.282028   20.927234 H          1 MOL1         0.0830
      14    H9      17.324840   18.151761   22.182545 H          1 MOL1         0.0830
      15    O1      20.054436   16.435014   22.380338 O.3        1 MOL1        -0.5512
      16    H10     20.664348   16.191332   23.108458 H          1 MOL1         0.3776
@<TRIPOS>BOND
    1     1     2    1
    2     1     3    1
    3     1     4    1
    4     4     5    1
    5     4     6    1
    6     4     7    1
    7     7     8    1
    8     7     9    1
    9     7    10    1
   10    10    11    1
   11     1    12    1
   12    10    12    1
   13    12    13    1
   14    12    14    1
   15    10    15    1
   16    15    16    1
@<TRIPOS>SUBSTRUCTURE
       1 MOL1            1 RESIDUE      1      MOL     
@<SCITEGIC>MOL_PROPERTY
VConf Rank
SciTegic.value.IntegerValue
430

@<SCITEGIC>MOL_PROPERTY
Conf_Id
SciTegic.value.IntegerValue
59

@<SCITEGIC>MOL_PROPERTY
Delta U+W
SciTegic.value.DoubleValue
0.000

@<SCITEGIC>MOL_PROPERTY
U+W
SciTegic.value.DoubleValue
3.010

@<SCITEGIC>MOL_PROPERTY
Grad RMS
SciTegic.value.DoubleValue
0.000000

@<SCITEGIC>MOL_PROPERTY
U
SciTegic.value.DoubleValue
5.843

@<SCITEGIC>MOL_PROPERTY
W
SciTegic.value.DoubleValue
-2.833

@<SCITEGIC>MOL_PROPERTY
W(PB)
SciTegic.value.DoubleValue
-4.568

@<SCITEGIC>MOL_PROPERTY
W(SA)
SciTegic.value.DoubleValue
1.735

@<SCITEGIC>MOL_PROPERTY
Valence
SciTegic.value.DoubleValue
13.789

@<SCITEGIC>MOL_PROPERTY
Coulomb
SciTegic.value.DoubleValue
-8.574

@<SCITEGIC>MOL_PROPERTY
VdW
SciTegic.value.DoubleValue
0.628

@<SCITEGIC>MOL_PROPERTY
VdW6
SciTegic.value.DoubleValue
-3.284

@<SCITEGIC>MOL_PROPERTY
VdW12
SciTegic.value.DoubleValue
3.912

@<SCITEGIC>MOL_PROPERTY
Bond
SciTegic.value.DoubleValue
0.054

@<SCITEGIC>MOL_PROPERTY
Angle
SciTegic.value.DoubleValue
4.034

@<SCITEGIC>MOL_PROPERTY
Pdih
SciTegic.value.DoubleValue
9.702

@<SCITEGIC>MOL_PROPERTY
Idih
SciTegic.value.DoubleValue
0.000

@<SCITEGIC>MOL_PROPERTY
Tether
SciTegic.value.DoubleValue
0.000

@<TRIPOS>MOLECULE
guest-4_confgen4.mol2 : confsearch ligand conformer 431
          16          16           1
SMALL
USER_CHARGES
 
@<TRIPOS>ATOM
       1    C1      18.844456   17.314034   22.370167 C.3        1 MOL1        -0.1689
       2    H1      18.596819   16.554240   23.123922 H          1 MOL1         0.0830
       3    H2      18.386388   17.014675   21.417183 H          1 MOL1         0.0830
       4    C2      20.358904   17.481104   22.185061 C.3        1 MOL1        -0.1689
       5    H3      20.857961   17.423507   23.162457 H          1 MOL1         0.0830
       6    H4      20.789518   16.709261   21.532777 H          1 MOL1         0.0830
       7    C3      20.522142   18.898320   21.605468 C.3        1 MOL1        -0.1765
       8    H5      20.488260   18.854154   20.509117 H          1 MOL1         0.0830
       9    H6      21.484051   19.344017   21.892007 H          1 MOL1         0.0830
      10    C4      19.320707   19.722154   22.113058 C.3        1 MOL1         0.1214
      11    H7      18.832508   20.215957   21.260216 H          1 MOL1         0.0787
      12    C5      18.349959   18.716860   22.767864 C.3        1 MOL1        -0.1765
      13    H8      18.379767   18.816040   23.861507 H          1 MOL1         0.0830
      14    H9      17.315228   18.884620   22.442236 H          1 MOL1         0.0830
      15    O1      19.753182   20.681624   23.070282 O.3        1 MOL1        -0.5512
      16    H10     18.952766   21.165343   23.365036 H          1 MOL1         0.3776
@<TRIPOS>BOND
    1     1     2    1
    2     1     3    1
    3     1     4    1
    4     4     5    1
    5     4     6    1
    6     4     7    1
    7     7     8    1
    8     7     9    1
    9     7    10    1
   10    10    11    1
   11     1    12    1
   12    10    12    1
   13    12    13    1
   14    12    14    1
   15    10    15    1
   16    15    16    1
@<TRIPOS>SUBSTRUCTURE
       1 MOL1            1 RESIDUE      1      MOL     
@<SCITEGIC>MOL_PROPERTY
VConf Rank
SciTegic.value.IntegerValue
431

@<SCITEGIC>MOL_PROPERTY
Conf_Id
SciTegic.value.IntegerValue
33

@<SCITEGIC>MOL_PROPERTY
Delta U+W
SciTegic.value.DoubleValue
0.015

@<SCITEGIC>MOL_PROPERTY
U+W
SciTegic.value.DoubleValue
3.025

@<SCITEGIC>MOL_PROPERTY
Grad RMS
SciTegic.value.DoubleValue
0.000000

@<SCITEGIC>MOL_PROPERTY
U
SciTegic.value.DoubleValue
5.843

@<SCITEGIC>MOL_PROPERTY
W
SciTegic.value.DoubleValue
-2.819

@<SCITEGIC>MOL_PROPERTY
W(PB)
SciTegic.value.DoubleValue
-4.568

@<SCITEGIC>MOL_PROPERTY
W(SA)
SciTegic.value.DoubleValue
1.750

@<SCITEGIC>MOL_PROPERTY
Valence
SciTegic.value.DoubleValue
13.789

@<SCITEGIC>MOL_PROPERTY
Coulomb
SciTegic.value.DoubleValue
-8.574

@<SCITEGIC>MOL_PROPERTY
VdW
SciTegic.value.DoubleValue
0.628

@<SCITEGIC>MOL_PROPERTY
VdW6
SciTegic.value.DoubleValue
-3.284

@<SCITEGIC>MOL_PROPERTY
VdW12
SciTegic.value.DoubleValue
3.913

@<SCITEGIC>MOL_PROPERTY
Bond
SciTegic.value.DoubleValue
0.054

@<SCITEGIC>MOL_PROPERTY
Angle
SciTegic.value.DoubleValue
4.033

@<SCITEGIC>MOL_PROPERTY
Pdih
SciTegic.value.DoubleValue
9.702

@<SCITEGIC>MOL_PROPERTY
Idih
SciTegic.value.DoubleValue
0.000

@<SCITEGIC>MOL_PROPERTY
Tether
SciTegic.value.DoubleValue
0.000

@<TRIPOS>MOLECULE
guest-4_confgen4.mol2 : confsearch ligand conformer 432
          16          16           1
SMALL
USER_CHARGES
 
@<TRIPOS>ATOM
       1    C1      19.779362   19.649457   21.520511 C.3        1 MOL1        -0.1689
       2    H1      20.056647   19.391623   20.489075 H          1 MOL1         0.0830
       3    H2      19.904025   20.734677   21.637789 H          1 MOL1         0.0830
       4    C2      20.664547   18.865517   22.513943 C.3        1 MOL1        -0.1689
       5    H3      21.370935   18.229089   21.963307 H          1 MOL1         0.0830
       6    H4      21.251510   19.540696   23.151600 H          1 MOL1         0.0830
       7    C3      19.709605   17.995344   23.358526 C.3        1 MOL1        -0.1765
       8    H5      19.499445   18.499674   24.310947 H          1 MOL1         0.0830
       9    H6      20.137960   17.010808   23.589189 H          1 MOL1         0.0830
      10    C4      18.407601   17.888567   22.553306 C.3        1 MOL1         0.1214
      11    H7      17.537879   17.736575   23.208641 H          1 MOL1         0.0787
      12    C5      18.322655   19.224482   21.802925 C.3        1 MOL1        -0.1765
      13    H8      17.725694   19.148391   20.884310 H          1 MOL1         0.0830
      14    H9      17.842844   19.968411   22.452518 H          1 MOL1         0.0830
      15    O1      18.524562   16.830653   21.613122 O.3        1 MOL1        -0.5512
      16    H10     19.316482   17.049797   21.080204 H          1 MOL1         0.3776
@<TRIPOS>BOND
    1     1     2    1
    2     1     3    1
    3     1     4    1
    4     4     5    1
    5     4     6    1
    6     4     7    1
    7     7     8    1
    8     7     9    1
    9     7    10    1
   10    10    11    1
   11     1    12    1
   12    10    12    1
   13    12    13    1
   14    12    14    1
   15    10    15    1
   16    15    16    1
@<TRIPOS>SUBSTRUCTURE
       1 MOL1            1 RESIDUE      1      MOL     
@<SCITEGIC>MOL_PROPERTY
VConf Rank
SciTegic.value.IntegerValue
432

@<SCITEGIC>MOL_PROPERTY
Conf_Id
SciTegic.value.IntegerValue
20

@<SCITEGIC>MOL_PROPERTY
Delta U+W
SciTegic.value.DoubleValue
-0.483

@<SCITEGIC>MOL_PROPERTY
U+W
SciTegic.value.DoubleValue
2.527

@<SCITEGIC>MOL_PROPERTY
Grad RMS
SciTegic.value.DoubleValue
0.000000

@<SCITEGIC>MOL_PROPERTY
U
SciTegic.value.DoubleValue
4.508

@<SCITEGIC>MOL_PROPERTY
W
SciTegic.value.DoubleValue
-1.981

@<SCITEGIC>MOL_PROPERTY
W(PB)
SciTegic.value.DoubleValue
-3.712

@<SCITEGIC>MOL_PROPERTY
W(SA)
SciTegic.value.DoubleValue
1.732

@<SCITEGIC>MOL_PROPERTY
Valence
SciTegic.value.DoubleValue
14.705

@<SCITEGIC>MOL_PROPERTY
Coulomb
SciTegic.value.DoubleValue
-10.687

@<SCITEGIC>MOL_PROPERTY
VdW
SciTegic.value.DoubleValue
0.490

@<SCITEGIC>MOL_PROPERTY
VdW6
SciTegic.value.DoubleValue
-3.745

@<SCITEGIC>MOL_PROPERTY
VdW12
SciTegic.value.DoubleValue
4.235

@<SCITEGIC>MOL_PROPERTY
Bond
SciTegic.value.DoubleValue
0.068

@<SCITEGIC>MOL_PROPERTY
Angle
SciTegic.value.DoubleValue
3.901

@<SCITEGIC>MOL_PROPERTY
Pdih
SciTegic.value.DoubleValue
10.737

@<SCITEGIC>MOL_PROPERTY
Idih
SciTegic.value.DoubleValue
0.000

@<SCITEGIC>MOL_PROPERTY
Tether
SciTegic.value.DoubleValue
0.000

@<TRIPOS>MOLECULE
guest-4_confgen4.mol2 : confsearch ligand conformer 433
          16          16           1
SMALL
USER_CHARGES
 
@<TRIPOS>ATOM
       1    C1      18.349421   17.578030   21.935230 C.3        1 MOL1        -0.1689
       2    H1      18.882517   16.844900   21.313936 H          1 MOL1         0.0830
       3    H2      17.311098   17.239301   22.052673 H          1 MOL1         0.0830
       4    C2      18.443412   18.966299   21.287464 C.3        1 MOL1        -0.1689
       5    H3      18.344680   18.924947   20.194166 H          1 MOL1         0.0830
       6    H4      17.645893   19.612268   21.680292 H          1 MOL1         0.0830
       7    C3      19.815861   19.504283   21.731890 C.3        1 MOL1        -0.1765
       8    H5      19.815411   20.600034   21.796501 H          1 MOL1         0.0830
       9    H6      20.576912   19.209962   20.996389 H          1 MOL1         0.0830
      10    C4      20.115099   18.855496   23.099813 C.3        1 MOL1         0.1214
      11    H7      19.996207   19.597836   23.902506 H          1 MOL1         0.0787
      12    C5      19.073269   17.733019   23.285472 C.3        1 MOL1        -0.1765
      13    H8      19.531076   16.788842   23.609455 H          1 MOL1         0.0830
      14    H9      18.353481   18.036714   24.056676 H          1 MOL1         0.0830
      15    O1      21.429470   18.311208   23.108001 O.3        1 MOL1        -0.5512
      16    H10     22.045759   19.062395   22.975947 H          1 MOL1         0.3776
@<TRIPOS>BOND
    1     1     2    1
    2     1     3    1
    3     1     4    1
    4     4     5    1
    5     4     6    1
    6     4     7    1
    7     7     8    1
    8     7     9    1
    9     7    10    1
   10    10    11    1
   11     1    12    1
   12    10    12    1
   13    12    13    1
   14    12    14    1
   15    10    15    1
   16    15    16    1
@<TRIPOS>SUBSTRUCTURE
       1 MOL1            1 RESIDUE      1      MOL     
@<SCITEGIC>MOL_PROPERTY
VConf Rank
SciTegic.value.IntegerValue
433

@<SCITEGIC>MOL_PROPERTY
Conf_Id
SciTegic.value.IntegerValue
59

@<SCITEGIC>MOL_PROPERTY
Delta U+W
SciTegic.value.DoubleValue
0.000

@<SCITEGIC>MOL_PROPERTY
U+W
SciTegic.value.DoubleValue
3.010

@<SCITEGIC>MOL_PROPERTY
Grad RMS
SciTegic.value.DoubleValue
0.000000

@<SCITEGIC>MOL_PROPERTY
U
SciTegic.value.DoubleValue
5.843

@<SCITEGIC>MOL_PROPERTY
W
SciTegic.value.DoubleValue
-2.833

@<SCITEGIC>MOL_PROPERTY
W(PB)
SciTegic.value.DoubleValue
-4.568

@<SCITEGIC>MOL_PROPERTY
W(SA)
SciTegic.value.DoubleValue
1.735

@<SCITEGIC>MOL_PROPERTY
Valence
SciTegic.value.DoubleValue
13.789

@<SCITEGIC>MOL_PROPERTY
Coulomb
SciTegic.value.DoubleValue
-8.574

@<SCITEGIC>MOL_PROPERTY
VdW
SciTegic.value.DoubleValue
0.628

@<SCITEGIC>MOL_PROPERTY
VdW6
SciTegic.value.DoubleValue
-3.284

@<SCITEGIC>MOL_PROPERTY
VdW12
SciTegic.value.DoubleValue
3.912

@<SCITEGIC>MOL_PROPERTY
Bond
SciTegic.value.DoubleValue
0.054

@<SCITEGIC>MOL_PROPERTY
Angle
SciTegic.value.DoubleValue
4.034

@<SCITEGIC>MOL_PROPERTY
Pdih
SciTegic.value.DoubleValue
9.702

@<SCITEGIC>MOL_PROPERTY
Idih
SciTegic.value.DoubleValue
0.000

@<SCITEGIC>MOL_PROPERTY
Tether
SciTegic.value.DoubleValue
0.000

@<TRIPOS>MOLECULE
guest-4_confgen4.mol2 : confsearch ligand conformer 434
          16          16           1
SMALL
USER_CHARGES
 
@<TRIPOS>ATOM
       1    C1      19.421398   18.346835   20.882017 C.3        1 MOL1        -0.1689
       2    H1      18.883733   17.710663   20.165804 H          1 MOL1         0.0830
       3    H2      20.038844   19.057072   20.314614 H          1 MOL1         0.0830
       4    C2      20.311139   17.533586   21.832129 C.3        1 MOL1        -0.1689
       5    H3      19.790505   16.611203   22.125097 H          1 MOL1         0.0830
       6    H4      21.270546   17.256680   21.374412 H          1 MOL1         0.0830
       7    C3      20.487798   18.439654   23.064569 C.3        1 MOL1        -0.1765
       8    H5      21.373119   19.074835   22.931010 H          1 MOL1         0.0830
       9    H6      20.633693   17.852078   23.980805 H          1 MOL1         0.0830
      10    C4      19.233069   19.334259   23.136232 C.3        1 MOL1         0.1214
      11    H7      19.541469   20.386360   23.222789 H          1 MOL1         0.0787
      12    C5      18.467138   19.115344   21.814429 C.3        1 MOL1        -0.1765
      13    H8      17.567200   18.510769   21.991580 H          1 MOL1         0.0830
      14    H9      18.151303   20.067425   21.368743 H          1 MOL1         0.0830
      15    O1      18.422444   18.954621   24.241971 O.3        1 MOL1        -0.5512
      16    H10     17.639218   19.544528   24.232158 H          1 MOL1         0.3776
@<TRIPOS>BOND
    1     1     2    1
    2     1     3    1
    3     1     4    1
    4     4     5    1
    5     4     6    1
    6     4     7    1
    7     7     8    1
    8     7     9    1
    9     7    10    1
   10    10    11    1
   11     1    12    1
   12    10    12    1
   13    12    13    1
   14    12    14    1
   15    10    15    1
   16    15    16    1
@<TRIPOS>SUBSTRUCTURE
       1 MOL1            1 RESIDUE      1      MOL     
@<SCITEGIC>MOL_PROPERTY
VConf Rank
SciTegic.value.IntegerValue
434

@<SCITEGIC>MOL_PROPERTY
Conf_Id
SciTegic.value.IntegerValue
33

@<SCITEGIC>MOL_PROPERTY
Delta U+W
SciTegic.value.DoubleValue
0.015

@<SCITEGIC>MOL_PROPERTY
U+W
SciTegic.value.DoubleValue
3.025

@<SCITEGIC>MOL_PROPERTY
Grad RMS
SciTegic.value.DoubleValue
0.000000

@<SCITEGIC>MOL_PROPERTY
U
SciTegic.value.DoubleValue
5.843

@<SCITEGIC>MOL_PROPERTY
W
SciTegic.value.DoubleValue
-2.819

@<SCITEGIC>MOL_PROPERTY
W(PB)
SciTegic.value.DoubleValue
-4.568

@<SCITEGIC>MOL_PROPERTY
W(SA)
SciTegic.value.DoubleValue
1.750

@<SCITEGIC>MOL_PROPERTY
Valence
SciTegic.value.DoubleValue
13.789

@<SCITEGIC>MOL_PROPERTY
Coulomb
SciTegic.value.DoubleValue
-8.574

@<SCITEGIC>MOL_PROPERTY
VdW
SciTegic.value.DoubleValue
0.628

@<SCITEGIC>MOL_PROPERTY
VdW6
SciTegic.value.DoubleValue
-3.284

@<SCITEGIC>MOL_PROPERTY
VdW12
SciTegic.value.DoubleValue
3.913

@<SCITEGIC>MOL_PROPERTY
Bond
SciTegic.value.DoubleValue
0.054

@<SCITEGIC>MOL_PROPERTY
Angle
SciTegic.value.DoubleValue
4.033

@<SCITEGIC>MOL_PROPERTY
Pdih
SciTegic.value.DoubleValue
9.702

@<SCITEGIC>MOL_PROPERTY
Idih
SciTegic.value.DoubleValue
0.000

@<SCITEGIC>MOL_PROPERTY
Tether
SciTegic.value.DoubleValue
0.000

@<TRIPOS>MOLECULE
guest-4_confgen4.mol2 : confsearch ligand conformer 435
          16          16           1
SMALL
USER_CHARGES
 
@<TRIPOS>ATOM
       1    C1      18.111192   18.506333   21.847316 C.3        1 MOL1        -0.1689
       2    H1      17.606206   17.584548   22.167515 H          1 MOL1         0.0830
       3    H2      17.386954   19.101273   21.274147 H          1 MOL1         0.0830
       4    C2      19.355168   18.157054   21.001414 C.3        1 MOL1        -0.1689
       5    H3      19.451632   17.066272   20.911333 H          1 MOL1         0.0830
       6    H4      19.282109   18.570166   19.986032 H          1 MOL1         0.0830
       7    C3      20.571987   18.739804   21.751208 C.3        1 MOL1        -0.1765
       8    H5      20.841158   19.710786   21.314903 H          1 MOL1         0.0830
       9    H6      21.453184   18.087824   21.684736 H          1 MOL1         0.0830
      10    C4      20.115507   18.954133   23.200581 C.3        1 MOL1         0.1214
      11    H7      20.673397   19.768899   23.684211 H          1 MOL1         0.0787
      12    C5      18.622901   19.288096   23.075876 C.3        1 MOL1        -0.1765
      13    H8      18.063852   19.041763   23.988448 H          1 MOL1         0.0830
      14    H9      18.512404   20.365792   22.897036 H          1 MOL1         0.0830
      15    O1      20.264432   17.740100   23.922214 O.3        1 MOL1        -0.5512
      16    H10     19.739672   17.080919   23.422945 H          1 MOL1         0.3776
@<TRIPOS>BOND
    1     1     2    1
    2     1     3    1
    3     1     4    1
    4     4     5    1
    5     4     6    1
    6     4     7    1
    7     7     8    1
    8     7     9    1
    9     7    10    1
   10    10    11    1
   11     1    12    1
   12    10    12    1
   13    12    13    1
   14    12    14    1
   15    10    15    1
   16    15    16    1
@<TRIPOS>SUBSTRUCTURE
       1 MOL1            1 RESIDUE      1      MOL     
@<SCITEGIC>MOL_PROPERTY
VConf Rank
SciTegic.value.IntegerValue
435

@<SCITEGIC>MOL_PROPERTY
Conf_Id
SciTegic.value.IntegerValue
20

@<SCITEGIC>MOL_PROPERTY
Delta U+W
SciTegic.value.DoubleValue
-0.483

@<SCITEGIC>MOL_PROPERTY
U+W
SciTegic.value.DoubleValue
2.527

@<SCITEGIC>MOL_PROPERTY
Grad RMS
SciTegic.value.DoubleValue
0.000000

@<SCITEGIC>MOL_PROPERTY
U
SciTegic.value.DoubleValue
4.508

@<SCITEGIC>MOL_PROPERTY
W
SciTegic.value.DoubleValue
-1.981

@<SCITEGIC>MOL_PROPERTY
W(PB)
SciTegic.value.DoubleValue
-3.712

@<SCITEGIC>MOL_PROPERTY
W(SA)
SciTegic.value.DoubleValue
1.732

@<SCITEGIC>MOL_PROPERTY
Valence
SciTegic.value.DoubleValue
14.705

@<SCITEGIC>MOL_PROPERTY
Coulomb
SciTegic.value.DoubleValue
-10.687

@<SCITEGIC>MOL_PROPERTY
VdW
SciTegic.value.DoubleValue
0.490

@<SCITEGIC>MOL_PROPERTY
VdW6
SciTegic.value.DoubleValue
-3.745

@<SCITEGIC>MOL_PROPERTY
VdW12
SciTegic.value.DoubleValue
4.235

@<SCITEGIC>MOL_PROPERTY
Bond
SciTegic.value.DoubleValue
0.068

@<SCITEGIC>MOL_PROPERTY
Angle
SciTegic.value.DoubleValue
3.901

@<SCITEGIC>MOL_PROPERTY
Pdih
SciTegic.value.DoubleValue
10.737

@<SCITEGIC>MOL_PROPERTY
Idih
SciTegic.value.DoubleValue
0.000

@<SCITEGIC>MOL_PROPERTY
Tether
SciTegic.value.DoubleValue
0.000

@<TRIPOS>MOLECULE
guest-4_confgen4.mol2 : confsearch ligand conformer 436
          16          16           1
SMALL
USER_CHARGES
 
@<TRIPOS>ATOM
       1    C1      19.908759   17.239082   22.029152 C.3        1 MOL1        -0.1689
       2    H1      19.431688   16.928774   21.089051 H          1 MOL1         0.0830
       3    H2      20.629802   16.463646   22.321455 H          1 MOL1         0.0830
       4    C2      18.833330   17.472764   23.098999 C.3        1 MOL1        -0.1689
       5    H3      18.030192   16.724588   23.054722 H          1 MOL1         0.0830
       6    H4      19.289640   17.428322   24.097714 H          1 MOL1         0.0830
       7    C3      18.321796   18.898491   22.822972 C.3        1 MOL1        -0.1765
       8    H5      17.965341   19.381673   23.741842 H          1 MOL1         0.0830
       9    H6      17.480711   18.852482   22.117818 H          1 MOL1         0.0830
      10    C4      19.502495   19.670636   22.197334 C.3        1 MOL1         0.1214
      11    H7      19.919647   20.377842   22.929019 H          1 MOL1         0.0787
      12    C5      20.571014   18.616476   21.841178 C.3        1 MOL1        -0.1765
      13    H8      20.957867   18.743223   20.821226 H          1 MOL1         0.0830
      14    H9      21.416953   18.716160   22.533660 H          1 MOL1         0.0830
      15    O1      19.076238   20.352972   21.024043 O.3        1 MOL1        -0.5512
      16    H10     18.394094   20.998405   21.306225 H          1 MOL1         0.3776
@<TRIPOS>BOND
    1     1     2    1
    2     1     3    1
    3     1     4    1
    4     4     5    1
    5     4     6    1
    6     4     7    1
    7     7     8    1
    8     7     9    1
    9     7    10    1
   10    10    11    1
   11     1    12    1
   12    10    12    1
   13    12    13    1
   14    12    14    1
   15    10    15    1
   16    15    16    1
@<TRIPOS>SUBSTRUCTURE
       1 MOL1            1 RESIDUE      1      MOL     
@<SCITEGIC>MOL_PROPERTY
VConf Rank
SciTegic.value.IntegerValue
436

@<SCITEGIC>MOL_PROPERTY
Conf_Id
SciTegic.value.IntegerValue
59

@<SCITEGIC>MOL_PROPERTY
Delta U+W
SciTegic.value.DoubleValue
0.000

@<SCITEGIC>MOL_PROPERTY
U+W
SciTegic.value.DoubleValue
3.010

@<SCITEGIC>MOL_PROPERTY
Grad RMS
SciTegic.value.DoubleValue
0.000000

@<SCITEGIC>MOL_PROPERTY
U
SciTegic.value.DoubleValue
5.843

@<SCITEGIC>MOL_PROPERTY
W
SciTegic.value.DoubleValue
-2.833

@<SCITEGIC>MOL_PROPERTY
W(PB)
SciTegic.value.DoubleValue
-4.568

@<SCITEGIC>MOL_PROPERTY
W(SA)
SciTegic.value.DoubleValue
1.735

@<SCITEGIC>MOL_PROPERTY
Valence
SciTegic.value.DoubleValue
13.789

@<SCITEGIC>MOL_PROPERTY
Coulomb
SciTegic.value.DoubleValue
-8.574

@<SCITEGIC>MOL_PROPERTY
VdW
SciTegic.value.DoubleValue
0.628

@<SCITEGIC>MOL_PROPERTY
VdW6
SciTegic.value.DoubleValue
-3.284

@<SCITEGIC>MOL_PROPERTY
VdW12
SciTegic.value.DoubleValue
3.912

@<SCITEGIC>MOL_PROPERTY
Bond
SciTegic.value.DoubleValue
0.054

@<SCITEGIC>MOL_PROPERTY
Angle
SciTegic.value.DoubleValue
4.034

@<SCITEGIC>MOL_PROPERTY
Pdih
SciTegic.value.DoubleValue
9.702

@<SCITEGIC>MOL_PROPERTY
Idih
SciTegic.value.DoubleValue
0.000

@<SCITEGIC>MOL_PROPERTY
Tether
SciTegic.value.DoubleValue
0.000

@<TRIPOS>MOLECULE
guest-4_confgen4.mol2 : confsearch ligand conformer 437
          16          16           1
SMALL
USER_CHARGES
 
@<TRIPOS>ATOM
       1    C1      20.493728   19.289176   21.573231 C.3        1 MOL1        -0.1689
       2    H1      21.525579   19.113223   21.239939 H          1 MOL1         0.0830
       3    H2      20.140482   20.224926   21.118028 H          1 MOL1         0.0830
       4    C2      20.381658   19.383803   23.101044 C.3        1 MOL1        -0.1689
       5    H3      21.041064   18.637452   23.565613 H          1 MOL1         0.0830
       6    H4      20.662188   20.375295   23.481687 H          1 MOL1         0.0830
       7    C3      18.912908   19.032750   23.402058 C.3        1 MOL1        -0.1765
       8    H5      18.306553   19.947831   23.395319 H          1 MOL1         0.0830
       9    H6      18.802947   18.566737   24.390370 H          1 MOL1         0.0830
      10    C4      18.439444   18.107213   22.262316 C.3        1 MOL1         0.1214
      11    H7      17.501169   18.498425   21.842660 H          1 MOL1         0.0787
      12    C5      19.549494   18.134812   21.190512 C.3        1 MOL1        -0.1765
      13    H8      20.109472   17.189745   21.198011 H          1 MOL1         0.0830
      14    H9      19.134760   18.272932   20.183653 H          1 MOL1         0.0830
      15    O1      18.259642   16.782490   22.748812 O.3        1 MOL1        -0.5512
      16    H10     17.971528   16.239103   21.985104 H          1 MOL1         0.3776
@<TRIPOS>BOND
    1     1     2    1
    2     1     3    1
    3     1     4    1
    4     4     5    1
    5     4     6    1
    6     4     7    1
    7     7     8    1
    8     7     9    1
    9     7    10    1
   10    10    11    1
   11     1    12    1
   12    10    12    1
   13    12    13    1
   14    12    14    1
   15    10    15    1
   16    15    16    1
@<TRIPOS>SUBSTRUCTURE
       1 MOL1            1 RESIDUE      1      MOL     
@<SCITEGIC>MOL_PROPERTY
VConf Rank
SciTegic.value.IntegerValue
437

@<SCITEGIC>MOL_PROPERTY
Conf_Id
SciTegic.value.IntegerValue
33

@<SCITEGIC>MOL_PROPERTY
Delta U+W
SciTegic.value.DoubleValue
0.015

@<SCITEGIC>MOL_PROPERTY
U+W
SciTegic.value.DoubleValue
3.025

@<SCITEGIC>MOL_PROPERTY
Grad RMS
SciTegic.value.DoubleValue
0.000000

@<SCITEGIC>MOL_PROPERTY
U
SciTegic.value.DoubleValue
5.843

@<SCITEGIC>MOL_PROPERTY
W
SciTegic.value.DoubleValue
-2.819

@<SCITEGIC>MOL_PROPERTY
W(PB)
SciTegic.value.DoubleValue
-4.568

@<SCITEGIC>MOL_PROPERTY
W(SA)
SciTegic.value.DoubleValue
1.750

@<SCITEGIC>MOL_PROPERTY
Valence
SciTegic.value.DoubleValue
13.789

@<SCITEGIC>MOL_PROPERTY
Coulomb
SciTegic.value.DoubleValue
-8.574

@<SCITEGIC>MOL_PROPERTY
VdW
SciTegic.value.DoubleValue
0.628

@<SCITEGIC>MOL_PROPERTY
VdW6
SciTegic.value.DoubleValue
-3.284

@<SCITEGIC>MOL_PROPERTY
VdW12
SciTegic.value.DoubleValue
3.913

@<SCITEGIC>MOL_PROPERTY
Bond
SciTegic.value.DoubleValue
0.054

@<SCITEGIC>MOL_PROPERTY
Angle
SciTegic.value.DoubleValue
4.033

@<SCITEGIC>MOL_PROPERTY
Pdih
SciTegic.value.DoubleValue
9.702

@<SCITEGIC>MOL_PROPERTY
Idih
SciTegic.value.DoubleValue
0.000

@<SCITEGIC>MOL_PROPERTY
Tether
SciTegic.value.DoubleValue
0.000

@<TRIPOS>MOLECULE
guest-4_confgen4.mol2 : confsearch ligand conformer 438
          16          16           1
SMALL
USER_CHARGES
 
@<TRIPOS>ATOM
       1    C1      19.208170   18.941198   20.974962 C.3        1 MOL1        -0.1689
       2    H1      18.186978   19.257319   20.721070 H          1 MOL1         0.0830
       3    H2      19.815275   19.010665   20.061948 H          1 MOL1         0.0830
       4    C2      19.188465   17.502384   21.535717 C.3        1 MOL1        -0.1689
       5    H3      18.157886   17.121777   21.552225 H          1 MOL1         0.0830
       6    H4      19.786117   16.819390   20.916578 H          1 MOL1         0.0830
       7    C3      19.749596   17.584425   22.971278 C.3        1 MOL1        -0.1765
       8    H5      20.813755   17.313965   22.965211 H          1 MOL1         0.0830
       9    H6      19.234903   16.900321   23.659100 H          1 MOL1         0.0830
      10    C4      19.610811   19.051733   23.398759 C.3        1 MOL1         0.1214
      11    H7      20.372156   19.330540   24.141458 H          1 MOL1         0.0787
      12    C5      19.781618   19.838459   22.092297 C.3        1 MOL1        -0.1765
      13    H8      19.291029   20.820217   22.130727 H          1 MOL1         0.0830
      14    H9      20.852044   20.006588   21.914693 H          1 MOL1         0.0830
      15    O1      18.302964   19.268854   23.907878 O.3        1 MOL1        -0.5512
      16    H10     17.699985   18.995928   23.186012 H          1 MOL1         0.3776
@<TRIPOS>BOND
    1     1     2    1
    2     1     3    1
    3     1     4    1
    4     4     5    1
    5     4     6    1
    6     4     7    1
    7     7     8    1
    8     7     9    1
    9     7    10    1
   10    10    11    1
   11     1    12    1
   12    10    12    1
   13    12    13    1
   14    12    14    1
   15    10    15    1
   16    15    16    1
@<TRIPOS>SUBSTRUCTURE
       1 MOL1            1 RESIDUE      1      MOL     
@<SCITEGIC>MOL_PROPERTY
VConf Rank
SciTegic.value.IntegerValue
438

@<SCITEGIC>MOL_PROPERTY
Conf_Id
SciTegic.value.IntegerValue
20

@<SCITEGIC>MOL_PROPERTY
Delta U+W
SciTegic.value.DoubleValue
-0.483

@<SCITEGIC>MOL_PROPERTY
U+W
SciTegic.value.DoubleValue
2.527

@<SCITEGIC>MOL_PROPERTY
Grad RMS
SciTegic.value.DoubleValue
0.000000

@<SCITEGIC>MOL_PROPERTY
U
SciTegic.value.DoubleValue
4.508

@<SCITEGIC>MOL_PROPERTY
W
SciTegic.value.DoubleValue
-1.981

@<SCITEGIC>MOL_PROPERTY
W(PB)
SciTegic.value.DoubleValue
-3.712

@<SCITEGIC>MOL_PROPERTY
W(SA)
SciTegic.value.DoubleValue
1.732

@<SCITEGIC>MOL_PROPERTY
Valence
SciTegic.value.DoubleValue
14.705

@<SCITEGIC>MOL_PROPERTY
Coulomb
SciTegic.value.DoubleValue
-10.687

@<SCITEGIC>MOL_PROPERTY
VdW
SciTegic.value.DoubleValue
0.490

@<SCITEGIC>MOL_PROPERTY
VdW6
SciTegic.value.DoubleValue
-3.745

@<SCITEGIC>MOL_PROPERTY
VdW12
SciTegic.value.DoubleValue
4.235

@<SCITEGIC>MOL_PROPERTY
Bond
SciTegic.value.DoubleValue
0.068

@<SCITEGIC>MOL_PROPERTY
Angle
SciTegic.value.DoubleValue
3.901

@<SCITEGIC>MOL_PROPERTY
Pdih
SciTegic.value.DoubleValue
10.737

@<SCITEGIC>MOL_PROPERTY
Idih
SciTegic.value.DoubleValue
0.000

@<SCITEGIC>MOL_PROPERTY
Tether
SciTegic.value.DoubleValue
0.000

@<TRIPOS>MOLECULE
guest-4_confgen4.mol2 : confsearch ligand conformer 439
          16          16           1
SMALL
USER_CHARGES
 
@<TRIPOS>ATOM
       1    C1      19.762890   18.161976   20.973964 C.3        1 MOL1        -0.1689
       2    H1      19.739729   19.090664   20.386871 H          1 MOL1         0.0830
       3    H2      20.130399   17.354477   20.326255 H          1 MOL1         0.0830
       4    C2      18.363664   17.872880   21.534604 C.3        1 MOL1        -0.1689
       5    H3      17.568279   18.104319   20.813107 H          1 MOL1         0.0830
       6    H4      18.285364   16.810164   21.803176 H          1 MOL1         0.0830
       7    C3      18.273207   18.739087   22.804274 C.3        1 MOL1        -0.1765
       8    H5      17.609039   18.286717   23.551996 H          1 MOL1         0.0830
       9    H6      17.865231   19.725041   22.543059 H          1 MOL1         0.0830
      10    C4      19.714448   18.880948   23.337547 C.3        1 MOL1         0.1214
      11    H7      19.845774   18.261326   24.236625 H          1 MOL1         0.0787
      12    C5      20.643870   18.362100   22.220942 C.3        1 MOL1        -0.1765
      13    H8      21.478021   19.047776   22.020787 H          1 MOL1         0.0830
      14    H9      21.070469   17.398720   22.529155 H          1 MOL1         0.0830
      15    O1      20.001276   20.245417   23.620110 O.3        1 MOL1        -0.5512
      16    H10     19.377906   20.523923   24.323940 H          1 MOL1         0.3776
@<TRIPOS>BOND
    1     1     2    1
    2     1     3    1
    3     1     4    1
    4     4     5    1
    5     4     6    1
    6     4     7    1
    7     7     8    1
    8     7     9    1
    9     7    10    1
   10    10    11    1
   11     1    12    1
   12    10    12    1
   13    12    13    1
   14    12    14    1
   15    10    15    1
   16    15    16    1
@<TRIPOS>SUBSTRUCTURE
       1 MOL1            1 RESIDUE      1      MOL     
@<SCITEGIC>MOL_PROPERTY
VConf Rank
SciTegic.value.IntegerValue
439

@<SCITEGIC>MOL_PROPERTY
Conf_Id
SciTegic.value.IntegerValue
59

@<SCITEGIC>MOL_PROPERTY
Delta U+W
SciTegic.value.DoubleValue
0.000

@<SCITEGIC>MOL_PROPERTY
U+W
SciTegic.value.DoubleValue
3.010

@<SCITEGIC>MOL_PROPERTY
Grad RMS
SciTegic.value.DoubleValue
0.000000

@<SCITEGIC>MOL_PROPERTY
U
SciTegic.value.DoubleValue
5.843

@<SCITEGIC>MOL_PROPERTY
W
SciTegic.value.DoubleValue
-2.833

@<SCITEGIC>MOL_PROPERTY
W(PB)
SciTegic.value.DoubleValue
-4.568

@<SCITEGIC>MOL_PROPERTY
W(SA)
SciTegic.value.DoubleValue
1.735

@<SCITEGIC>MOL_PROPERTY
Valence
SciTegic.value.DoubleValue
13.789

@<SCITEGIC>MOL_PROPERTY
Coulomb
SciTegic.value.DoubleValue
-8.574

@<SCITEGIC>MOL_PROPERTY
VdW
SciTegic.value.DoubleValue
0.628

@<SCITEGIC>MOL_PROPERTY
VdW6
SciTegic.value.DoubleValue
-3.284

@<SCITEGIC>MOL_PROPERTY
VdW12
SciTegic.value.DoubleValue
3.912

@<SCITEGIC>MOL_PROPERTY
Bond
SciTegic.value.DoubleValue
0.054

@<SCITEGIC>MOL_PROPERTY
Angle
SciTegic.value.DoubleValue
4.034

@<SCITEGIC>MOL_PROPERTY
Pdih
SciTegic.value.DoubleValue
9.702

@<SCITEGIC>MOL_PROPERTY
Idih
SciTegic.value.DoubleValue
0.000

@<SCITEGIC>MOL_PROPERTY
Tether
SciTegic.value.DoubleValue
0.000

@<TRIPOS>MOLECULE
guest-4_confgen4.mol2 : confsearch ligand conformer 440
          16          16           1
SMALL
USER_CHARGES
 
@<TRIPOS>ATOM
       1    C1      19.554376   20.034841   22.130224 C.3        1 MOL1        -0.1689
       2    H1      20.102281   20.884698   22.559529 H          1 MOL1         0.0830
       3    H2      19.007750   20.390037   21.245544 H          1 MOL1         0.0830
       4    C2      18.570294   19.410067   23.128706 C.3        1 MOL1        -0.1689
       5    H3      19.026496   19.384031   24.128147 H          1 MOL1         0.0830
       6    H4      17.627721   19.970231   23.195148 H          1 MOL1         0.0830
       7    C3      18.364504   17.971971   22.618208 C.3        1 MOL1        -0.1765
       8    H5      17.521042   17.947440   21.916030 H          1 MOL1         0.0830
       9    H6      18.135132   17.280236   23.439738 H          1 MOL1         0.0830
      10    C4      19.655023   17.582685   21.867998 C.3        1 MOL1         0.1214
      11    H7      19.393956   17.199055   20.870907 H          1 MOL1         0.0787
      12    C5      20.487388   18.875472   21.735304 C.3        1 MOL1        -0.1765
      13    H8      21.344304   18.848675   22.422151 H          1 MOL1         0.0830
      14    H9      20.875773   19.002429   20.716537 H          1 MOL1         0.0830
      15    O1      20.378092   16.607221   22.609307 O.3        1 MOL1        -0.5512
      16    H10     21.188482   16.406821   22.094879 H          1 MOL1         0.3776
@<TRIPOS>BOND
    1     1     2    1
    2     1     3    1
    3     1     4    1
    4     4     5    1
    5     4     6    1
    6     4     7    1
    7     7     8    1
    8     7     9    1
    9     7    10    1
   10    10    11    1
   11     1    12    1
   12    10    12    1
   13    12    13    1
   14    12    14    1
   15    10    15    1
   16    15    16    1
@<TRIPOS>SUBSTRUCTURE
       1 MOL1            1 RESIDUE      1      MOL     
@<SCITEGIC>MOL_PROPERTY
VConf Rank
SciTegic.value.IntegerValue
440

@<SCITEGIC>MOL_PROPERTY
Conf_Id
SciTegic.value.IntegerValue
33

@<SCITEGIC>MOL_PROPERTY
Delta U+W
SciTegic.value.DoubleValue
0.015

@<SCITEGIC>MOL_PROPERTY
U+W
SciTegic.value.DoubleValue
3.025

@<SCITEGIC>MOL_PROPERTY
Grad RMS
SciTegic.value.DoubleValue
0.000000

@<SCITEGIC>MOL_PROPERTY
U
SciTegic.value.DoubleValue
5.843

@<SCITEGIC>MOL_PROPERTY
W
SciTegic.value.DoubleValue
-2.819

@<SCITEGIC>MOL_PROPERTY
W(PB)
SciTegic.value.DoubleValue
-4.568

@<SCITEGIC>MOL_PROPERTY
W(SA)
SciTegic.value.DoubleValue
1.750

@<SCITEGIC>MOL_PROPERTY
Valence
SciTegic.value.DoubleValue
13.789

@<SCITEGIC>MOL_PROPERTY
Coulomb
SciTegic.value.DoubleValue
-8.574

@<SCITEGIC>MOL_PROPERTY
VdW
SciTegic.value.DoubleValue
0.628

@<SCITEGIC>MOL_PROPERTY
VdW6
SciTegic.value.DoubleValue
-3.284

@<SCITEGIC>MOL_PROPERTY
VdW12
SciTegic.value.DoubleValue
3.913

@<SCITEGIC>MOL_PROPERTY
Bond
SciTegic.value.DoubleValue
0.054

@<SCITEGIC>MOL_PROPERTY
Angle
SciTegic.value.DoubleValue
4.033

@<SCITEGIC>MOL_PROPERTY
Pdih
SciTegic.value.DoubleValue
9.702

@<SCITEGIC>MOL_PROPERTY
Idih
SciTegic.value.DoubleValue
0.000

@<SCITEGIC>MOL_PROPERTY
Tether
SciTegic.value.DoubleValue
0.000

@<TRIPOS>MOLECULE
guest-4_confgen4.mol2 : confsearch ligand conformer 441
          16          16           1
SMALL
USER_CHARGES
 
@<TRIPOS>ATOM
       1    C1      19.149703   17.772605   21.242688 C.3        1 MOL1        -0.1689
       2    H1      18.118199   17.791094   20.864689 H          1 MOL1         0.0830
       3    H2      19.714297   17.051776   20.635533 H          1 MOL1         0.0830
       4    C2      19.154543   17.383151   22.737120 C.3        1 MOL1        -0.1689
       5    H3      18.125485   17.212127   23.082108 H          1 MOL1         0.0830
       6    H4      19.722547   16.459116   22.911850 H          1 MOL1         0.0830
       7    C3      19.781080   18.571576   23.497076 C.3        1 MOL1        -0.1765
       8    H5      20.843606   18.367925   23.684649 H          1 MOL1         0.0830
       9    H6      19.297933   18.746235   24.467679 H          1 MOL1         0.0830
      10    C4      19.663326   19.783260   22.562758 C.3        1 MOL1         0.1214
      11    H7      20.458214   20.518974   22.752126 H          1 MOL1         0.0787
      12    C5      19.774626   19.181236   21.155585 C.3        1 MOL1        -0.1765
      13    H8      19.287158   19.806635   20.395813 H          1 MOL1         0.0830
      14    H9      20.835909   19.095801   20.887256 H          1 MOL1         0.0830
      15    O1      18.380427   20.371816   22.719533 O.3        1 MOL1        -0.5512
      16    H10     17.744699   19.650437   22.533452 H          1 MOL1         0.3776
@<TRIPOS>BOND
    1     1     2    1
    2     1     3    1
    3     1     4    1
    4     4     5    1
    5     4     6    1
    6     4     7    1
    7     7     8    1
    8     7     9    1
    9     7    10    1
   10    10    11    1
   11     1    12    1
   12    10    12    1
   13    12    13    1
   14    12    14    1
   15    10    15    1
   16    15    16    1
@<TRIPOS>SUBSTRUCTURE
       1 MOL1            1 RESIDUE      1      MOL     
@<SCITEGIC>MOL_PROPERTY
VConf Rank
SciTegic.value.IntegerValue
441

@<SCITEGIC>MOL_PROPERTY
Conf_Id
SciTegic.value.IntegerValue
20

@<SCITEGIC>MOL_PROPERTY
Delta U+W
SciTegic.value.DoubleValue
-0.483

@<SCITEGIC>MOL_PROPERTY
U+W
SciTegic.value.DoubleValue
2.527

@<SCITEGIC>MOL_PROPERTY
Grad RMS
SciTegic.value.DoubleValue
0.000000

@<SCITEGIC>MOL_PROPERTY
U
SciTegic.value.DoubleValue
4.508

@<SCITEGIC>MOL_PROPERTY
W
SciTegic.value.DoubleValue
-1.981

@<SCITEGIC>MOL_PROPERTY
W(PB)
SciTegic.value.DoubleValue
-3.712

@<SCITEGIC>MOL_PROPERTY
W(SA)
SciTegic.value.DoubleValue
1.732

@<SCITEGIC>MOL_PROPERTY
Valence
SciTegic.value.DoubleValue
14.705

@<SCITEGIC>MOL_PROPERTY
Coulomb
SciTegic.value.DoubleValue
-10.687

@<SCITEGIC>MOL_PROPERTY
VdW
SciTegic.value.DoubleValue
0.490

@<SCITEGIC>MOL_PROPERTY
VdW6
SciTegic.value.DoubleValue
-3.745

@<SCITEGIC>MOL_PROPERTY
VdW12
SciTegic.value.DoubleValue
4.235

@<SCITEGIC>MOL_PROPERTY
Bond
SciTegic.value.DoubleValue
0.068

@<SCITEGIC>MOL_PROPERTY
Angle
SciTegic.value.DoubleValue
3.901

@<SCITEGIC>MOL_PROPERTY
Pdih
SciTegic.value.DoubleValue
10.737

@<SCITEGIC>MOL_PROPERTY
Idih
SciTegic.value.DoubleValue
0.000

@<SCITEGIC>MOL_PROPERTY
Tether
SciTegic.value.DoubleValue
0.000

@<TRIPOS>MOLECULE
guest-4_confgen4.mol2 : confsearch ligand conformer 442
          16          16           1
SMALL
USER_CHARGES
 
@<TRIPOS>ATOM
       1    C1      20.583969   19.176937   21.841896 C.3        1 MOL1        -0.1689
       2    H1      20.277343   19.795920   20.987192 H          1 MOL1         0.0830
       3    H2      21.658241   19.331749   22.011061 H          1 MOL1         0.0830
       4    C2      20.240378   17.707426   21.562235 C.3        1 MOL1        -0.1689
       5    H3      20.434469   17.424075   20.518779 H          1 MOL1         0.0830
       6    H4      20.841818   17.056971   22.212468 H          1 MOL1         0.0830
       7    C3      18.751758   17.584308   21.935610 C.3        1 MOL1        -0.1765
       8    H5      18.506234   16.570195   22.276402 H          1 MOL1         0.0830
       9    H6      18.136428   17.801521   21.051884 H          1 MOL1         0.0830
      10    C4      18.491983   18.631886   23.038686 C.3        1 MOL1         0.1214
      11    H7      18.379138   18.133110   24.012343 H          1 MOL1         0.0787
      12    C5      19.736275   19.543101   23.074158 C.3        1 MOL1        -0.1765
      13    H8      19.472234   20.609055   23.080942 H          1 MOL1         0.0830
      14    H9      20.306524   19.334795   23.988764 H          1 MOL1         0.0830
      15    O1      17.333086   19.395900   22.727031 O.3        1 MOL1        -0.5512
      16    H10     16.579689   18.768587   22.706961 H          1 MOL1         0.3776
@<TRIPOS>BOND
    1     1     2    1
    2     1     3    1
    3     1     4    1
    4     4     5    1
    5     4     6    1
    6     4     7    1
    7     7     8    1
    8     7     9    1
    9     7    10    1
   10    10    11    1
   11     1    12    1
   12    10    12    1
   13    12    13    1
   14    12    14    1
   15    10    15    1
   16    15    16    1
@<TRIPOS>SUBSTRUCTURE
       1 MOL1            1 RESIDUE      1      MOL     
@<SCITEGIC>MOL_PROPERTY
VConf Rank
SciTegic.value.IntegerValue
442

@<SCITEGIC>MOL_PROPERTY
Conf_Id
SciTegic.value.IntegerValue
59

@<SCITEGIC>MOL_PROPERTY
Delta U+W
SciTegic.value.DoubleValue
0.000

@<SCITEGIC>MOL_PROPERTY
U+W
SciTegic.value.DoubleValue
3.010

@<SCITEGIC>MOL_PROPERTY
Grad RMS
SciTegic.value.DoubleValue
0.000000

@<SCITEGIC>MOL_PROPERTY
U
SciTegic.value.DoubleValue
5.843

@<SCITEGIC>MOL_PROPERTY
W
SciTegic.value.DoubleValue
-2.833

@<SCITEGIC>MOL_PROPERTY
W(PB)
SciTegic.value.DoubleValue
-4.568

@<SCITEGIC>MOL_PROPERTY
W(SA)
SciTegic.value.DoubleValue
1.735

@<SCITEGIC>MOL_PROPERTY
Valence
SciTegic.value.DoubleValue
13.789

@<SCITEGIC>MOL_PROPERTY
Coulomb
SciTegic.value.DoubleValue
-8.574

@<SCITEGIC>MOL_PROPERTY
VdW
SciTegic.value.DoubleValue
0.628

@<SCITEGIC>MOL_PROPERTY
VdW6
SciTegic.value.DoubleValue
-3.284

@<SCITEGIC>MOL_PROPERTY
VdW12
SciTegic.value.DoubleValue
3.912

@<SCITEGIC>MOL_PROPERTY
Bond
SciTegic.value.DoubleValue
0.054

@<SCITEGIC>MOL_PROPERTY
Angle
SciTegic.value.DoubleValue
4.034

@<SCITEGIC>MOL_PROPERTY
Pdih
SciTegic.value.DoubleValue
9.702

@<SCITEGIC>MOL_PROPERTY
Idih
SciTegic.value.DoubleValue
0.000

@<SCITEGIC>MOL_PROPERTY
Tether
SciTegic.value.DoubleValue
0.000

@<TRIPOS>MOLECULE
guest-4_confgen4.mol2 : confsearch ligand conformer 443
          16          16           1
SMALL
USER_CHARGES
 
@<TRIPOS>ATOM
       1    C1      19.592641   17.199651   22.505387 C.3        1 MOL1        -0.1689
       2    H1      19.938061   16.505023   23.283162 H          1 MOL1         0.0830
       3    H2      19.121725   16.612386   21.704774 H          1 MOL1         0.0830
       4    C2      20.737017   18.040982   21.923759 C.3        1 MOL1        -0.1689
       5    H3      21.421900   18.338627   22.729998 H          1 MOL1         0.0830
       6    H4      21.314854   17.495886   21.165065 H          1 MOL1         0.0830
       7    C3      20.043433   19.289872   21.349049 C.3        1 MOL1        -0.1765
       8    H5      19.769384   19.109828   20.301401 H          1 MOL1         0.0830
       9    H6      20.703565   20.167113   21.375369 H          1 MOL1         0.0830
      10    C4      18.758277   19.499111   22.176328 C.3        1 MOL1         0.1214
      11    H7      17.900674   19.601889   21.495540 H          1 MOL1         0.0787
      12    C5      18.592260   18.236569   23.048201 C.3        1 MOL1        -0.1765
      13    H8      18.835470   18.462432   24.095396 H          1 MOL1         0.0830
      14    H9      17.563108   17.856265   23.015611 H          1 MOL1         0.0830
      15    O1      18.887666   20.651370   23.000619 O.3        1 MOL1        -0.5512
      16    H10     18.052580   20.728907   23.508701 H          1 MOL1         0.3776
@<TRIPOS>BOND
    1     1     2    1
    2     1     3    1
    3     1     4    1
    4     4     5    1
    5     4     6    1
    6     4     7    1
    7     7     8    1
    8     7     9    1
    9     7    10    1
   10    10    11    1
   11     1    12    1
   12    10    12    1
   13    12    13    1
   14    12    14    1
   15    10    15    1
   16    15    16    1
@<TRIPOS>SUBSTRUCTURE
       1 MOL1            1 RESIDUE      1      MOL     
@<SCITEGIC>MOL_PROPERTY
VConf Rank
SciTegic.value.IntegerValue
443

@<SCITEGIC>MOL_PROPERTY
Conf_Id
SciTegic.value.IntegerValue
33

@<SCITEGIC>MOL_PROPERTY
Delta U+W
SciTegic.value.DoubleValue
0.015

@<SCITEGIC>MOL_PROPERTY
U+W
SciTegic.value.DoubleValue
3.025

@<SCITEGIC>MOL_PROPERTY
Grad RMS
SciTegic.value.DoubleValue
0.000000

@<SCITEGIC>MOL_PROPERTY
U
SciTegic.value.DoubleValue
5.843

@<SCITEGIC>MOL_PROPERTY
W
SciTegic.value.DoubleValue
-2.819

@<SCITEGIC>MOL_PROPERTY
W(PB)
SciTegic.value.DoubleValue
-4.568

@<SCITEGIC>MOL_PROPERTY
W(SA)
SciTegic.value.DoubleValue
1.750

@<SCITEGIC>MOL_PROPERTY
Valence
SciTegic.value.DoubleValue
13.789

@<SCITEGIC>MOL_PROPERTY
Coulomb
SciTegic.value.DoubleValue
-8.574

@<SCITEGIC>MOL_PROPERTY
VdW
SciTegic.value.DoubleValue
0.628

@<SCITEGIC>MOL_PROPERTY
VdW6
SciTegic.value.DoubleValue
-3.284

@<SCITEGIC>MOL_PROPERTY
VdW12
SciTegic.value.DoubleValue
3.913

@<SCITEGIC>MOL_PROPERTY
Bond
SciTegic.value.DoubleValue
0.054

@<SCITEGIC>MOL_PROPERTY
Angle
SciTegic.value.DoubleValue
4.033

@<SCITEGIC>MOL_PROPERTY
Pdih
SciTegic.value.DoubleValue
9.702

@<SCITEGIC>MOL_PROPERTY
Idih
SciTegic.value.DoubleValue
0.000

@<SCITEGIC>MOL_PROPERTY
Tether
SciTegic.value.DoubleValue
0.000

@<TRIPOS>MOLECULE
guest-4_confgen4.mol2 : confsearch ligand conformer 444
          16          16           1
SMALL
USER_CHARGES
 
@<TRIPOS>ATOM
       1    C1      19.937204   18.984601   21.103843 C.3        1 MOL1        -0.1689
       2    H1      20.719667   19.748976   21.207330 H          1 MOL1         0.0830
       3    H2      19.856018   18.732989   20.037495 H          1 MOL1         0.0830
       4    C2      18.601696   19.520886   21.664053 C.3        1 MOL1        -0.1689
       5    H3      18.737554   20.545173   22.037692 H          1 MOL1         0.0830
       6    H4      17.821594   19.548849   20.890969 H          1 MOL1         0.0830
       7    C3      18.202947   18.579904   22.820767 C.3        1 MOL1        -0.1765
       8    H5      17.479530   17.838092   22.457445 H          1 MOL1         0.0830
       9    H6      17.736644   19.120500   23.655226 H          1 MOL1         0.0830
      10    C4      19.488882   17.856635   23.242961 C.3        1 MOL1         0.1214
      11    H7      19.274059   16.869306   23.676567 H          1 MOL1         0.0787
      12    C5      20.294691   17.738972   21.942276 C.3        1 MOL1        -0.1765
      13    H8      21.374073   17.657643   22.127543 H          1 MOL1         0.0830
      14    H9      19.978343   16.833658   21.407530 H          1 MOL1         0.0830
      15    O1      20.202244   18.669757   24.163153 O.3        1 MOL1        -0.5512
      16    H10     20.346605   19.517822   23.695064 H          1 MOL1         0.3776
@<TRIPOS>BOND
    1     1     2    1
    2     1     3    1
    3     1     4    1
    4     4     5    1
    5     4     6    1
    6     4     7    1
    7     7     8    1
    8     7     9    1
    9     7    10    1
   10    10    11    1
   11     1    12    1
   12    10    12    1
   13    12    13    1
   14    12    14    1
   15    10    15    1
   16    15    16    1
@<TRIPOS>SUBSTRUCTURE
       1 MOL1            1 RESIDUE      1      MOL     
@<SCITEGIC>MOL_PROPERTY
VConf Rank
SciTegic.value.IntegerValue
444

@<SCITEGIC>MOL_PROPERTY
Conf_Id
SciTegic.value.IntegerValue
20

@<SCITEGIC>MOL_PROPERTY
Delta U+W
SciTegic.value.DoubleValue
-0.483

@<SCITEGIC>MOL_PROPERTY
U+W
SciTegic.value.DoubleValue
2.527

@<SCITEGIC>MOL_PROPERTY
Grad RMS
SciTegic.value.DoubleValue
0.000000

@<SCITEGIC>MOL_PROPERTY
U
SciTegic.value.DoubleValue
4.508

@<SCITEGIC>MOL_PROPERTY
W
SciTegic.value.DoubleValue
-1.981

@<SCITEGIC>MOL_PROPERTY
W(PB)
SciTegic.value.DoubleValue
-3.712

@<SCITEGIC>MOL_PROPERTY
W(SA)
SciTegic.value.DoubleValue
1.732

@<SCITEGIC>MOL_PROPERTY
Valence
SciTegic.value.DoubleValue
14.705

@<SCITEGIC>MOL_PROPERTY
Coulomb
SciTegic.value.DoubleValue
-10.687

@<SCITEGIC>MOL_PROPERTY
VdW
SciTegic.value.DoubleValue
0.490

@<SCITEGIC>MOL_PROPERTY
VdW6
SciTegic.value.DoubleValue
-3.745

@<SCITEGIC>MOL_PROPERTY
VdW12
SciTegic.value.DoubleValue
4.235

@<SCITEGIC>MOL_PROPERTY
Bond
SciTegic.value.DoubleValue
0.068

@<SCITEGIC>MOL_PROPERTY
Angle
SciTegic.value.DoubleValue
3.901

@<SCITEGIC>MOL_PROPERTY
Pdih
SciTegic.value.DoubleValue
10.737

@<SCITEGIC>MOL_PROPERTY
Idih
SciTegic.value.DoubleValue
0.000

@<SCITEGIC>MOL_PROPERTY
Tether
SciTegic.value.DoubleValue
0.000

@<TRIPOS>MOLECULE
guest-4_confgen4.mol2 : confsearch ligand conformer 445
          16          16           1
SMALL
USER_CHARGES
 
@<TRIPOS>ATOM
       1    C1      18.933300   17.786355   21.154911 C.3        1 MOL1        -0.1689
       2    H1      17.861953   17.600471   21.314098 H          1 MOL1         0.0830
       3    H2      19.213229   17.370375   20.177546 H          1 MOL1         0.0830
       4    C2      19.738960   17.170067   22.306791 C.3        1 MOL1        -0.1689
       5    H3      19.341483   16.195067   22.620075 H          1 MOL1         0.0830
       6    H4      20.783362   17.031076   21.994490 H          1 MOL1         0.0830
       7    C3      19.666525   18.220647   23.429997 C.3        1 MOL1        -0.1765
       8    H5      20.555949   18.183272   24.072162 H          1 MOL1         0.0830
       9    H6      18.787983   18.020568   24.058421 H          1 MOL1         0.0830
      10    C4      19.525850   19.591359   22.734987 C.3        1 MOL1         0.1214
      11    H7      20.472302   20.147222   22.803994 H          1 MOL1         0.0787
      12    C5      19.214655   19.297102   21.252960 C.3        1 MOL1        -0.1765
      13    H8      18.370002   19.890752   20.878578 H          1 MOL1         0.0830
      14    H9      20.094085   19.548275   20.645839 H          1 MOL1         0.0830
      15    O1      18.462710   20.332508   23.321774 O.3        1 MOL1        -0.5512
      16    H10     18.707220   20.480418   24.259788 H          1 MOL1         0.3776
@<TRIPOS>BOND
    1     1     2    1
    2     1     3    1
    3     1     4    1
    4     4     5    1
    5     4     6    1
    6     4     7    1
    7     7     8    1
    8     7     9    1
    9     7    10    1
   10    10    11    1
   11     1    12    1
   12    10    12    1
   13    12    13    1
   14    12    14    1
   15    10    15    1
   16    15    16    1
@<TRIPOS>SUBSTRUCTURE
       1 MOL1            1 RESIDUE      1      MOL     
@<SCITEGIC>MOL_PROPERTY
VConf Rank
SciTegic.value.IntegerValue
445

@<SCITEGIC>MOL_PROPERTY
Conf_Id
SciTegic.value.IntegerValue
59

@<SCITEGIC>MOL_PROPERTY
Delta U+W
SciTegic.value.DoubleValue
0.000

@<SCITEGIC>MOL_PROPERTY
U+W
SciTegic.value.DoubleValue
3.010

@<SCITEGIC>MOL_PROPERTY
Grad RMS
SciTegic.value.DoubleValue
0.000000

@<SCITEGIC>MOL_PROPERTY
U
SciTegic.value.DoubleValue
5.843

@<SCITEGIC>MOL_PROPERTY
W
SciTegic.value.DoubleValue
-2.833

@<SCITEGIC>MOL_PROPERTY
W(PB)
SciTegic.value.DoubleValue
-4.568

@<SCITEGIC>MOL_PROPERTY
W(SA)
SciTegic.value.DoubleValue
1.735

@<SCITEGIC>MOL_PROPERTY
Valence
SciTegic.value.DoubleValue
13.789

@<SCITEGIC>MOL_PROPERTY
Coulomb
SciTegic.value.DoubleValue
-8.574

@<SCITEGIC>MOL_PROPERTY
VdW
SciTegic.value.DoubleValue
0.628

@<SCITEGIC>MOL_PROPERTY
VdW6
SciTegic.value.DoubleValue
-3.284

@<SCITEGIC>MOL_PROPERTY
VdW12
SciTegic.value.DoubleValue
3.912

@<SCITEGIC>MOL_PROPERTY
Bond
SciTegic.value.DoubleValue
0.054

@<SCITEGIC>MOL_PROPERTY
Angle
SciTegic.value.DoubleValue
4.034

@<SCITEGIC>MOL_PROPERTY
Pdih
SciTegic.value.DoubleValue
9.702

@<SCITEGIC>MOL_PROPERTY
Idih
SciTegic.value.DoubleValue
0.000

@<SCITEGIC>MOL_PROPERTY
Tether
SciTegic.value.DoubleValue
0.000

@<TRIPOS>MOLECULE
guest-4_confgen4.mol2 : confsearch ligand conformer 446
          16          16           1
SMALL
USER_CHARGES
 
@<TRIPOS>ATOM
       1    C1      20.416000   19.096549   21.345411 C.3        1 MOL1        -0.1689
       2    H1      21.432501   18.864874   20.999276 H          1 MOL1         0.0830
       3    H2      19.993425   19.863529   20.681488 H          1 MOL1         0.0830
       4    C2      20.393258   19.599439   22.795347 C.3        1 MOL1        -0.1689
       5    H3      21.113062   19.025552   23.395526 H          1 MOL1         0.0830
       6    H4      20.651132   20.664300   22.874171 H          1 MOL1         0.0830
       7    C3      18.963119   19.303448   23.283371 C.3        1 MOL1        -0.1765
       8    H5      18.316499   20.165437   23.073747 H          1 MOL1         0.0830
       9    H6      18.935029   19.120529   24.365855 H          1 MOL1         0.0830
      10    C4      18.463513   18.090632   22.471417 C.3        1 MOL1         0.1214
      11    H7      17.484542   18.327464   22.029778 H          1 MOL1         0.0787
      12    C5      19.503628   17.856354   21.355616 C.3        1 MOL1        -0.1765
      13    H8      20.105415   16.964461   21.577338 H          1 MOL1         0.0830
      14    H9      19.022326   17.704499   20.380868 H          1 MOL1         0.0830
      15    O1      18.374187   16.943425   23.307977 O.3        1 MOL1        -0.5512
      16    H10     18.064979   16.205419   22.741173 H          1 MOL1         0.3776
@<TRIPOS>BOND
    1     1     2    1
    2     1     3    1
    3     1     4    1
    4     4     5    1
    5     4     6    1
    6     4     7    1
    7     7     8    1
    8     7     9    1
    9     7    10    1
   10    10    11    1
   11     1    12    1
   12    10    12    1
   13    12    13    1
   14    12    14    1
   15    10    15    1
   16    15    16    1
@<TRIPOS>SUBSTRUCTURE
       1 MOL1            1 RESIDUE      1      MOL     
@<SCITEGIC>MOL_PROPERTY
VConf Rank
SciTegic.value.IntegerValue
446

@<SCITEGIC>MOL_PROPERTY
Conf_Id
SciTegic.value.IntegerValue
33

@<SCITEGIC>MOL_PROPERTY
Delta U+W
SciTegic.value.DoubleValue
0.015

@<SCITEGIC>MOL_PROPERTY
U+W
SciTegic.value.DoubleValue
3.025

@<SCITEGIC>MOL_PROPERTY
Grad RMS
SciTegic.value.DoubleValue
0.000000

@<SCITEGIC>MOL_PROPERTY
U
SciTegic.value.DoubleValue
5.843

@<SCITEGIC>MOL_PROPERTY
W
SciTegic.value.DoubleValue
-2.819

@<SCITEGIC>MOL_PROPERTY
W(PB)
SciTegic.value.DoubleValue
-4.568

@<SCITEGIC>MOL_PROPERTY
W(SA)
SciTegic.value.DoubleValue
1.750

@<SCITEGIC>MOL_PROPERTY
Valence
SciTegic.value.DoubleValue
13.789

@<SCITEGIC>MOL_PROPERTY
Coulomb
SciTegic.value.DoubleValue
-8.574

@<SCITEGIC>MOL_PROPERTY
VdW
SciTegic.value.DoubleValue
0.628

@<SCITEGIC>MOL_PROPERTY
VdW6
SciTegic.value.DoubleValue
-3.284

@<SCITEGIC>MOL_PROPERTY
VdW12
SciTegic.value.DoubleValue
3.913

@<SCITEGIC>MOL_PROPERTY
Bond
SciTegic.value.DoubleValue
0.054

@<SCITEGIC>MOL_PROPERTY
Angle
SciTegic.value.DoubleValue
4.033

@<SCITEGIC>MOL_PROPERTY
Pdih
SciTegic.value.DoubleValue
9.702

@<SCITEGIC>MOL_PROPERTY
Idih
SciTegic.value.DoubleValue
0.000

@<SCITEGIC>MOL_PROPERTY
Tether
SciTegic.value.DoubleValue
0.000

@<TRIPOS>MOLECULE
guest-4_confgen4.mol2 : confsearch ligand conformer 447
          16          16           1
SMALL
USER_CHARGES
 
@<TRIPOS>ATOM
       1    C1      18.559902   17.890163   23.030635 C.3        1 MOL1        -0.1689
       2    H1      18.664354   18.086843   24.106569 H          1 MOL1         0.0830
       3    H2      17.767531   17.139693   22.904385 H          1 MOL1         0.0830
       4    C2      19.905247   17.398108   22.453617 C.3        1 MOL1        -0.1689
       5    H3      20.660513   17.355635   23.250483 H          1 MOL1         0.0830
       6    H4      19.816381   16.390613   22.024599 H          1 MOL1         0.0830
       7    C3      20.321761   18.424182   21.378385 C.3        1 MOL1        -0.1765
       8    H5      20.031909   18.053924   20.386158 H          1 MOL1         0.0830
       9    H6      21.406067   18.597812   21.366583 H          1 MOL1         0.0830
      10    C4      19.531467   19.703850   21.683145 C.3        1 MOL1         0.1214
      11    H7      19.360033   20.299488   20.774955 H          1 MOL1         0.0787
      12    C5      18.213372   19.194441   22.281547 C.3        1 MOL1        -0.1765
      13    H8      17.739373   19.937427   22.936757 H          1 MOL1         0.0830
      14    H9      17.512997   18.973674   21.465239 H          1 MOL1         0.0830
      15    O1      20.227574   20.461497   22.662029 O.3        1 MOL1        -0.5512
      16    H10     20.333269   19.856414   23.424830 H          1 MOL1         0.3776
@<TRIPOS>BOND
    1     1     2    1
    2     1     3    1
    3     1     4    1
    4     4     5    1
    5     4     6    1
    6     4     7    1
    7     7     8    1
    8     7     9    1
    9     7    10    1
   10    10    11    1
   11     1    12    1
   12    10    12    1
   13    12    13    1
   14    12    14    1
   15    10    15    1
   16    15    16    1
@<TRIPOS>SUBSTRUCTURE
       1 MOL1            1 RESIDUE      1      MOL     
@<SCITEGIC>MOL_PROPERTY
VConf Rank
SciTegic.value.IntegerValue
447

@<SCITEGIC>MOL_PROPERTY
Conf_Id
SciTegic.value.IntegerValue
20

@<SCITEGIC>MOL_PROPERTY
Delta U+W
SciTegic.value.DoubleValue
-0.483

@<SCITEGIC>MOL_PROPERTY
U+W
SciTegic.value.DoubleValue
2.527

@<SCITEGIC>MOL_PROPERTY
Grad RMS
SciTegic.value.DoubleValue
0.000000

@<SCITEGIC>MOL_PROPERTY
U
SciTegic.value.DoubleValue
4.508

@<SCITEGIC>MOL_PROPERTY
W
SciTegic.value.DoubleValue
-1.981

@<SCITEGIC>MOL_PROPERTY
W(PB)
SciTegic.value.DoubleValue
-3.712

@<SCITEGIC>MOL_PROPERTY
W(SA)
SciTegic.value.DoubleValue
1.732

@<SCITEGIC>MOL_PROPERTY
Valence
SciTegic.value.DoubleValue
14.705

@<SCITEGIC>MOL_PROPERTY
Coulomb
SciTegic.value.DoubleValue
-10.687

@<SCITEGIC>MOL_PROPERTY
VdW
SciTegic.value.DoubleValue
0.490

@<SCITEGIC>MOL_PROPERTY
VdW6
SciTegic.value.DoubleValue
-3.745

@<SCITEGIC>MOL_PROPERTY
VdW12
SciTegic.value.DoubleValue
4.235

@<SCITEGIC>MOL_PROPERTY
Bond
SciTegic.value.DoubleValue
0.068

@<SCITEGIC>MOL_PROPERTY
Angle
SciTegic.value.DoubleValue
3.901

@<SCITEGIC>MOL_PROPERTY
Pdih
SciTegic.value.DoubleValue
10.737

@<SCITEGIC>MOL_PROPERTY
Idih
SciTegic.value.DoubleValue
0.000

@<SCITEGIC>MOL_PROPERTY
Tether
SciTegic.value.DoubleValue
0.000

@<TRIPOS>MOLECULE
guest-4_confgen4.mol2 : confsearch ligand conformer 448
          16          16           1
SMALL
USER_CHARGES
 
@<TRIPOS>ATOM
       1    C1      20.565696   19.023505   22.973755 C.3        1 MOL1        -0.1689
       2    H1      20.358034   18.927754   24.048643 H          1 MOL1         0.0830
       3    H2      21.599959   19.373279   22.852913 H          1 MOL1         0.0830
       4    C2      19.546102   19.977061   22.335877 C.3        1 MOL1        -0.1689
       5    H3      19.318841   20.837570   22.979799 H          1 MOL1         0.0830
       6    H4      19.940311   20.355873   21.382605 H          1 MOL1         0.0830
       7    C3      18.309613   19.097373   22.075490 C.3        1 MOL1        -0.1765
       8    H5      17.735846   19.457456   21.211790 H          1 MOL1         0.0830
       9    H6      17.651041   19.127177   22.954227 H          1 MOL1         0.0830
      10    C4      18.835339   17.664099   21.849623 C.3        1 MOL1         0.1214
      11    H7      18.766924   17.401722   20.783792 H          1 MOL1         0.0787
      12    C5      20.317251   17.672339   22.278229 C.3        1 MOL1        -0.1765
      13    H8      20.565951   16.827910   22.934818 H          1 MOL1         0.0830
      14    H9      20.949017   17.596750   21.383668 H          1 MOL1         0.0830
      15    O1      18.100067   16.740662   22.643682 O.3        1 MOL1        -0.5512
      16    H10     17.169574   16.785005   22.337498 H          1 MOL1         0.3776
@<TRIPOS>BOND
    1     1     2    1
    2     1     3    1
    3     1     4    1
    4     4     5    1
    5     4     6    1
    6     4     7    1
    7     7     8    1
    8     7     9    1
    9     7    10    1
   10    10    11    1
   11     1    12    1
   12    10    12    1
   13    12    13    1
   14    12    14    1
   15    10    15    1
   16    15    16    1
@<TRIPOS>SUBSTRUCTURE
       1 MOL1            1 RESIDUE      1      MOL     
@<SCITEGIC>MOL_PROPERTY
VConf Rank
SciTegic.value.IntegerValue
448

@<SCITEGIC>MOL_PROPERTY
Conf_Id
SciTegic.value.IntegerValue
59

@<SCITEGIC>MOL_PROPERTY
Delta U+W
SciTegic.value.DoubleValue
0.000

@<SCITEGIC>MOL_PROPERTY
U+W
SciTegic.value.DoubleValue
3.010

@<SCITEGIC>MOL_PROPERTY
Grad RMS
SciTegic.value.DoubleValue
0.000000

@<SCITEGIC>MOL_PROPERTY
U
SciTegic.value.DoubleValue
5.843

@<SCITEGIC>MOL_PROPERTY
W
SciTegic.value.DoubleValue
-2.833

@<SCITEGIC>MOL_PROPERTY
W(PB)
SciTegic.value.DoubleValue
-4.568

@<SCITEGIC>MOL_PROPERTY
W(SA)
SciTegic.value.DoubleValue
1.735

@<SCITEGIC>MOL_PROPERTY
Valence
SciTegic.value.DoubleValue
13.789

@<SCITEGIC>MOL_PROPERTY
Coulomb
SciTegic.value.DoubleValue
-8.574

@<SCITEGIC>MOL_PROPERTY
VdW
SciTegic.value.DoubleValue
0.628

@<SCITEGIC>MOL_PROPERTY
VdW6
SciTegic.value.DoubleValue
-3.284

@<SCITEGIC>MOL_PROPERTY
VdW12
SciTegic.value.DoubleValue
3.912

@<SCITEGIC>MOL_PROPERTY
Bond
SciTegic.value.DoubleValue
0.054

@<SCITEGIC>MOL_PROPERTY
Angle
SciTegic.value.DoubleValue
4.034

@<SCITEGIC>MOL_PROPERTY
Pdih
SciTegic.value.DoubleValue
9.702

@<SCITEGIC>MOL_PROPERTY
Idih
SciTegic.value.DoubleValue
0.000

@<SCITEGIC>MOL_PROPERTY
Tether
SciTegic.value.DoubleValue
0.000

@<TRIPOS>MOLECULE
guest-4_confgen4.mol2 : confsearch ligand conformer 449
          16          16           1
SMALL
USER_CHARGES
 
@<TRIPOS>ATOM
       1    C1      20.742531   18.265308   22.816629 C.3        1 MOL1        -0.1689
       2    H1      21.654658   17.739251   22.503504 H          1 MOL1         0.0830
       3    H2      20.940894   18.752383   23.781528 H          1 MOL1         0.0830
       4    C2      19.540889   17.320190   22.952782 C.3        1 MOL1        -0.1689
       5    H3      19.556589   16.584564   22.136518 H          1 MOL1         0.0830
       6    H4      19.541366   16.775693   23.906807 H          1 MOL1         0.0830
       7    C3      18.311868   18.235014   22.798896 C.3        1 MOL1        -0.1765
       8    H5      18.007243   18.611610   23.784017 H          1 MOL1         0.0830
       9    H6      17.457448   17.695393   22.369017 H          1 MOL1         0.0830
      10    C4      18.755432   19.423567   21.921178 C.3        1 MOL1         0.1214
      11    H7      18.486841   20.365162   22.421955 H          1 MOL1         0.0787
      12    C5      20.289033   19.315761   21.786338 C.3        1 MOL1        -0.1765
      13    H8      20.559481   18.975469   20.777458 H          1 MOL1         0.0830
      14    H9      20.778122   20.283290   21.958169 H          1 MOL1         0.0830
      15    O1      18.143063   19.342406   20.639650 O.3        1 MOL1        -0.5512
      16    H10     18.467157   20.110850   20.123912 H          1 MOL1         0.3776
@<TRIPOS>BOND
    1     1     2    1
    2     1     3    1
    3     1     4    1
    4     4     5    1
    5     4     6    1
    6     4     7    1
    7     7     8    1
    8     7     9    1
    9     7    10    1
   10    10    11    1
   11     1    12    1
   12    10    12    1
   13    12    13    1
   14    12    14    1
   15    10    15    1
   16    15    16    1
@<TRIPOS>SUBSTRUCTURE
       1 MOL1            1 RESIDUE      1      MOL     
@<SCITEGIC>MOL_PROPERTY
VConf Rank
SciTegic.value.IntegerValue
449

@<SCITEGIC>MOL_PROPERTY
Conf_Id
SciTegic.value.IntegerValue
33

@<SCITEGIC>MOL_PROPERTY
Delta U+W
SciTegic.value.DoubleValue
0.015

@<SCITEGIC>MOL_PROPERTY
U+W
SciTegic.value.DoubleValue
3.025

@<SCITEGIC>MOL_PROPERTY
Grad RMS
SciTegic.value.DoubleValue
0.000000

@<SCITEGIC>MOL_PROPERTY
U
SciTegic.value.DoubleValue
5.843

@<SCITEGIC>MOL_PROPERTY
W
SciTegic.value.DoubleValue
-2.819

@<SCITEGIC>MOL_PROPERTY
W(PB)
SciTegic.value.DoubleValue
-4.568

@<SCITEGIC>MOL_PROPERTY
W(SA)
SciTegic.value.DoubleValue
1.750

@<SCITEGIC>MOL_PROPERTY
Valence
SciTegic.value.DoubleValue
13.789

@<SCITEGIC>MOL_PROPERTY
Coulomb
SciTegic.value.DoubleValue
-8.574

@<SCITEGIC>MOL_PROPERTY
VdW
SciTegic.value.DoubleValue
0.628

@<SCITEGIC>MOL_PROPERTY
VdW6
SciTegic.value.DoubleValue
-3.284

@<SCITEGIC>MOL_PROPERTY
VdW12
SciTegic.value.DoubleValue
3.913

@<SCITEGIC>MOL_PROPERTY
Bond
SciTegic.value.DoubleValue
0.054

@<SCITEGIC>MOL_PROPERTY
Angle
SciTegic.value.DoubleValue
4.033

@<SCITEGIC>MOL_PROPERTY
Pdih
SciTegic.value.DoubleValue
9.702

@<SCITEGIC>MOL_PROPERTY
Idih
SciTegic.value.DoubleValue
0.000

@<SCITEGIC>MOL_PROPERTY
Tether
SciTegic.value.DoubleValue
0.000

@<TRIPOS>MOLECULE
guest-4_confgen4.mol2 : confsearch ligand conformer 450
          16          16           1
SMALL
USER_CHARGES
 
@<TRIPOS>ATOM
       1    C1      18.553881   18.431738   23.294234 C.3        1 MOL1        -0.1689
       2    H1      19.061642   18.323270   24.262552 H          1 MOL1         0.0830
       3    H2      17.472026   18.375455   23.477040 H          1 MOL1         0.0830
       4    C2      19.024813   17.323558   22.327186 C.3        1 MOL1        -0.1689
       5    H3      19.759685   16.678140   22.827810 H          1 MOL1         0.0830
       6    H4      18.189103   16.688187   22.003317 H          1 MOL1         0.0830
       7    C3      19.675730   18.039612   21.124684 C.3        1 MOL1        -0.1765
       8    H5      18.948428   18.116095   20.305658 H          1 MOL1         0.0830
       9    H6      20.552646   17.499520   20.743469 H          1 MOL1         0.0830
      10    C4      20.028870   19.451633   21.610978 C.3        1 MOL1         0.1214
      11    H7      20.032995   20.175404   20.783258 H          1 MOL1         0.0787
      12    C5      18.936810   19.775856   22.639199 C.3        1 MOL1        -0.1765
      13    H8      19.267485   20.519156   23.376874 H          1 MOL1         0.0830
      14    H9      18.065339   20.190021   22.115149 H          1 MOL1         0.0830
      15    O1      21.290275   19.420031   22.262642 O.3        1 MOL1        -0.5512
      16    H10     21.192025   18.756086   22.975864 H          1 MOL1         0.3776
@<TRIPOS>BOND
    1     1     2    1
    2     1     3    1
    3     1     4    1
    4     4     5    1
    5     4     6    1
    6     4     7    1
    7     7     8    1
    8     7     9    1
    9     7    10    1
   10    10    11    1
   11     1    12    1
   12    10    12    1
   13    12    13    1
   14    12    14    1
   15    10    15    1
   16    15    16    1
@<TRIPOS>SUBSTRUCTURE
       1 MOL1            1 RESIDUE      1      MOL     
@<SCITEGIC>MOL_PROPERTY
VConf Rank
SciTegic.value.IntegerValue
450

@<SCITEGIC>MOL_PROPERTY
Conf_Id
SciTegic.value.IntegerValue
20

@<SCITEGIC>MOL_PROPERTY
Delta U+W
SciTegic.value.DoubleValue
-0.483

@<SCITEGIC>MOL_PROPERTY
U+W
SciTegic.value.DoubleValue
2.527

@<SCITEGIC>MOL_PROPERTY
Grad RMS
SciTegic.value.DoubleValue
0.000000

@<SCITEGIC>MOL_PROPERTY
U
SciTegic.value.DoubleValue
4.508

@<SCITEGIC>MOL_PROPERTY
W
SciTegic.value.DoubleValue
-1.981

@<SCITEGIC>MOL_PROPERTY
W(PB)
SciTegic.value.DoubleValue
-3.712

@<SCITEGIC>MOL_PROPERTY
W(SA)
SciTegic.value.DoubleValue
1.732

@<SCITEGIC>MOL_PROPERTY
Valence
SciTegic.value.DoubleValue
14.705

@<SCITEGIC>MOL_PROPERTY
Coulomb
SciTegic.value.DoubleValue
-10.687

@<SCITEGIC>MOL_PROPERTY
VdW
SciTegic.value.DoubleValue
0.490

@<SCITEGIC>MOL_PROPERTY
VdW6
SciTegic.value.DoubleValue
-3.745

@<SCITEGIC>MOL_PROPERTY
VdW12
SciTegic.value.DoubleValue
4.235

@<SCITEGIC>MOL_PROPERTY
Bond
SciTegic.value.DoubleValue
0.068

@<SCITEGIC>MOL_PROPERTY
Angle
SciTegic.value.DoubleValue
3.901

@<SCITEGIC>MOL_PROPERTY
Pdih
SciTegic.value.DoubleValue
10.737

@<SCITEGIC>MOL_PROPERTY
Idih
SciTegic.value.DoubleValue
0.000

@<SCITEGIC>MOL_PROPERTY
Tether
SciTegic.value.DoubleValue
0.000

@<TRIPOS>MOLECULE
guest-4_confgen4.mol2 : confsearch ligand conformer 451
          16          16           1
SMALL
USER_CHARGES
 
@<TRIPOS>ATOM
       1    C1      18.234379   19.452675   22.522782 C.3        1 MOL1        -0.1689
       2    H1      18.054917   19.915784   21.542476 H          1 MOL1         0.0830
       3    H2      17.466769   19.814786   23.220130 H          1 MOL1         0.0830
       4    C2      19.657260   19.782190   22.994542 C.3        1 MOL1        -0.1689
       5    H3      19.946722   20.815513   22.759565 H          1 MOL1         0.0830
       6    H4      19.727072   19.644781   24.082600 H          1 MOL1         0.0830
       7    C3      20.546702   18.747826   22.280723 C.3        1 MOL1        -0.1765
       8    H5      21.444875   18.517651   22.868219 H          1 MOL1         0.0830
       9    H6      20.871390   19.154084   21.313088 H          1 MOL1         0.0830
      10    C4      19.671461   17.494680   22.067980 C.3        1 MOL1         0.1214
      11    H7      19.974925   16.700751   22.765909 H          1 MOL1         0.0787
      12    C5      18.221438   17.919615   22.378943 C.3        1 MOL1        -0.1765
      13    H8      17.515810   17.592254   21.603736 H          1 MOL1         0.0830
      14    H9      17.910296   17.463149   23.327579 H          1 MOL1         0.0830
      15    O1      19.773570   17.047388   20.721358 O.3        1 MOL1        -0.5512
      16    H10     20.711981   16.802408   20.576780 H          1 MOL1         0.3776
@<TRIPOS>BOND
    1     1     2    1
    2     1     3    1
    3     1     4    1
    4     4     5    1
    5     4     6    1
    6     4     7    1
    7     7     8    1
    8     7     9    1
    9     7    10    1
   10    10    11    1
   11     1    12    1
   12    10    12    1
   13    12    13    1
   14    12    14    1
   15    10    15    1
   16    15    16    1
@<TRIPOS>SUBSTRUCTURE
       1 MOL1            1 RESIDUE      1      MOL     
@<SCITEGIC>MOL_PROPERTY
VConf Rank
SciTegic.value.IntegerValue
451

@<SCITEGIC>MOL_PROPERTY
Conf_Id
SciTegic.value.IntegerValue
59

@<SCITEGIC>MOL_PROPERTY
Delta U+W
SciTegic.value.DoubleValue
0.000

@<SCITEGIC>MOL_PROPERTY
U+W
SciTegic.value.DoubleValue
3.010

@<SCITEGIC>MOL_PROPERTY
Grad RMS
SciTegic.value.DoubleValue
0.000000

@<SCITEGIC>MOL_PROPERTY
U
SciTegic.value.DoubleValue
5.843

@<SCITEGIC>MOL_PROPERTY
W
SciTegic.value.DoubleValue
-2.833

@<SCITEGIC>MOL_PROPERTY
W(PB)
SciTegic.value.DoubleValue
-4.568

@<SCITEGIC>MOL_PROPERTY
W(SA)
SciTegic.value.DoubleValue
1.735

@<SCITEGIC>MOL_PROPERTY
Valence
SciTegic.value.DoubleValue
13.789

@<SCITEGIC>MOL_PROPERTY
Coulomb
SciTegic.value.DoubleValue
-8.574

@<SCITEGIC>MOL_PROPERTY
VdW
SciTegic.value.DoubleValue
0.628

@<SCITEGIC>MOL_PROPERTY
VdW6
SciTegic.value.DoubleValue
-3.284

@<SCITEGIC>MOL_PROPERTY
VdW12
SciTegic.value.DoubleValue
3.912

@<SCITEGIC>MOL_PROPERTY
Bond
SciTegic.value.DoubleValue
0.054

@<SCITEGIC>MOL_PROPERTY
Angle
SciTegic.value.DoubleValue
4.034

@<SCITEGIC>MOL_PROPERTY
Pdih
SciTegic.value.DoubleValue
9.702

@<SCITEGIC>MOL_PROPERTY
Idih
SciTegic.value.DoubleValue
0.000

@<SCITEGIC>MOL_PROPERTY
Tether
SciTegic.value.DoubleValue
0.000

@<TRIPOS>MOLECULE
guest-4_confgen4.mol2 : confsearch ligand conformer 452
          16          16           1
SMALL
USER_CHARGES
 
@<TRIPOS>ATOM
       1    C1      19.497453   18.170901   23.657574 C.3        1 MOL1        -0.1689
       2    H1      19.077446   18.443499   24.635349 H          1 MOL1         0.0830
       3    H2      20.019155   17.209554   23.763682 H          1 MOL1         0.0830
       4    C2      20.471268   19.230656   23.124348 C.3        1 MOL1        -0.1689
       5    H3      20.083487   20.233864   23.349913 H          1 MOL1         0.0830
       6    H4      21.472492   19.141109   23.567266 H          1 MOL1         0.0830
       7    C3      20.481316   19.012417   21.600095 C.3        1 MOL1        -0.1765
       8    H5      21.267529   18.293225   21.336059 H          1 MOL1         0.0830
       9    H6      20.687442   19.945765   21.059361 H          1 MOL1         0.0830
      10    C4      19.107908   18.413766   21.232449 C.3        1 MOL1         0.1214
      11    H7      19.256915   17.504140   20.632535 H          1 MOL1         0.0787
      12    C5      18.417064   18.059595   22.566253 C.3        1 MOL1        -0.1765
      13    H8      17.610782   18.774741   22.778992 H          1 MOL1         0.0830
      14    H9      17.977302   17.054272   22.538310 H          1 MOL1         0.0830
      15    O1      18.332766   19.367811   20.516313 O.3        1 MOL1        -0.5512
      16    H10     17.472289   18.940596   20.319857 H          1 MOL1         0.3776
@<TRIPOS>BOND
    1     1     2    1
    2     1     3    1
    3     1     4    1
    4     4     5    1
    5     4     6    1
    6     4     7    1
    7     7     8    1
    8     7     9    1
    9     7    10    1
   10    10    11    1
   11     1    12    1
   12    10    12    1
   13    12    13    1
   14    12    14    1
   15    10    15    1
   16    15    16    1
@<TRIPOS>SUBSTRUCTURE
       1 MOL1            1 RESIDUE      1      MOL     
@<SCITEGIC>MOL_PROPERTY
VConf Rank
SciTegic.value.IntegerValue
452

@<SCITEGIC>MOL_PROPERTY
Conf_Id
SciTegic.value.IntegerValue
33

@<SCITEGIC>MOL_PROPERTY
Delta U+W
SciTegic.value.DoubleValue
0.015

@<SCITEGIC>MOL_PROPERTY
U+W
SciTegic.value.DoubleValue
3.025

@<SCITEGIC>MOL_PROPERTY
Grad RMS
SciTegic.value.DoubleValue
0.000000

@<SCITEGIC>MOL_PROPERTY
U
SciTegic.value.DoubleValue
5.843

@<SCITEGIC>MOL_PROPERTY
W
SciTegic.value.DoubleValue
-2.819

@<SCITEGIC>MOL_PROPERTY
W(PB)
SciTegic.value.DoubleValue
-4.568

@<SCITEGIC>MOL_PROPERTY
W(SA)
SciTegic.value.DoubleValue
1.750

@<SCITEGIC>MOL_PROPERTY
Valence
SciTegic.value.DoubleValue
13.789

@<SCITEGIC>MOL_PROPERTY
Coulomb
SciTegic.value.DoubleValue
-8.574

@<SCITEGIC>MOL_PROPERTY
VdW
SciTegic.value.DoubleValue
0.628

@<SCITEGIC>MOL_PROPERTY
VdW6
SciTegic.value.DoubleValue
-3.284

@<SCITEGIC>MOL_PROPERTY
VdW12
SciTegic.value.DoubleValue
3.913

@<SCITEGIC>MOL_PROPERTY
Bond
SciTegic.value.DoubleValue
0.054

@<SCITEGIC>MOL_PROPERTY
Angle
SciTegic.value.DoubleValue
4.033

@<SCITEGIC>MOL_PROPERTY
Pdih
SciTegic.value.DoubleValue
9.702

@<SCITEGIC>MOL_PROPERTY
Idih
SciTegic.value.DoubleValue
0.000

@<SCITEGIC>MOL_PROPERTY
Tether
SciTegic.value.DoubleValue
0.000

@<TRIPOS>MOLECULE
guest-4_confgen4.mol2 : confsearch ligand conformer 453
          16          16           1
SMALL
USER_CHARGES
 
@<TRIPOS>ATOM
       1    C1      19.125113   17.783651   23.276765 C.3        1 MOL1        -0.1689
       2    H1      18.792235   16.781353   22.973749 H          1 MOL1         0.0830
       3    H2      19.168577   17.802749   24.374373 H          1 MOL1         0.0830
       4    C2      18.150593   18.848846   22.728412 C.3        1 MOL1        -0.1689
       5    H3      17.345507   18.362011   22.160913 H          1 MOL1         0.0830
       6    H4      17.685037   19.425853   23.539165 H          1 MOL1         0.0830
       7    C3      18.978697   19.763633   21.801134 C.3        1 MOL1        -0.1765
       8    H5      19.281067   20.665261   22.350005 H          1 MOL1         0.0830
       9    H6      18.410628   20.084913   20.917911 H          1 MOL1         0.0830
      10    C4      20.233808   18.964348   21.425853 C.3        1 MOL1         0.1214
      11    H7      21.082870   19.626030   21.201683 H          1 MOL1         0.0787
      12    C5      20.505764   18.095509   22.661214 C.3        1 MOL1        -0.1765
      13    H8      21.066576   17.184346   22.413675 H          1 MOL1         0.0830
      14    H9      21.105114   18.672379   23.377888 H          1 MOL1         0.0830
      15    O1      19.939908   18.124581   20.318957 O.3        1 MOL1        -0.5512
      16    H10     19.180258   17.578300   20.608217 H          1 MOL1         0.3776
@<TRIPOS>BOND
    1     1     2    1
    2     1     3    1
    3     1     4    1
    4     4     5    1
    5     4     6    1
    6     4     7    1
    7     7     8    1
    8     7     9    1
    9     7    10    1
   10    10    11    1
   11     1    12    1
   12    10    12    1
   13    12    13    1
   14    12    14    1
   15    10    15    1
   16    15    16    1
@<TRIPOS>SUBSTRUCTURE
       1 MOL1            1 RESIDUE      1      MOL     
@<SCITEGIC>MOL_PROPERTY
VConf Rank
SciTegic.value.IntegerValue
453

@<SCITEGIC>MOL_PROPERTY
Conf_Id
SciTegic.value.IntegerValue
20

@<SCITEGIC>MOL_PROPERTY
Delta U+W
SciTegic.value.DoubleValue
-0.483

@<SCITEGIC>MOL_PROPERTY
U+W
SciTegic.value.DoubleValue
2.527

@<SCITEGIC>MOL_PROPERTY
Grad RMS
SciTegic.value.DoubleValue
0.000000

@<SCITEGIC>MOL_PROPERTY
U
SciTegic.value.DoubleValue
4.508

@<SCITEGIC>MOL_PROPERTY
W
SciTegic.value.DoubleValue
-1.981

@<SCITEGIC>MOL_PROPERTY
W(PB)
SciTegic.value.DoubleValue
-3.712

@<SCITEGIC>MOL_PROPERTY
W(SA)
SciTegic.value.DoubleValue
1.732

@<SCITEGIC>MOL_PROPERTY
Valence
SciTegic.value.DoubleValue
14.705

@<SCITEGIC>MOL_PROPERTY
Coulomb
SciTegic.value.DoubleValue
-10.687

@<SCITEGIC>MOL_PROPERTY
VdW
SciTegic.value.DoubleValue
0.490

@<SCITEGIC>MOL_PROPERTY
VdW6
SciTegic.value.DoubleValue
-3.745

@<SCITEGIC>MOL_PROPERTY
VdW12
SciTegic.value.DoubleValue
4.235

@<SCITEGIC>MOL_PROPERTY
Bond
SciTegic.value.DoubleValue
0.068

@<SCITEGIC>MOL_PROPERTY
Angle
SciTegic.value.DoubleValue
3.901

@<SCITEGIC>MOL_PROPERTY
Pdih
SciTegic.value.DoubleValue
10.737

@<SCITEGIC>MOL_PROPERTY
Idih
SciTegic.value.DoubleValue
0.000

@<SCITEGIC>MOL_PROPERTY
Tether
SciTegic.value.DoubleValue
0.000

@<TRIPOS>MOLECULE
guest-4_confgen4.mol2 : confsearch ligand conformer 454
          16          16           1
SMALL
USER_CHARGES
 
@<TRIPOS>ATOM
       1    C1      19.810122   17.563147   23.277172 C.3        1 MOL1        -0.1689
       2    H1      18.892509   17.076999   23.636787 H          1 MOL1         0.0830
       3    H2      20.669741   17.065367   23.746123 H          1 MOL1         0.0830
       4    C2      19.756058   19.063567   23.595835 C.3        1 MOL1        -0.1689
       5    H3      19.320275   19.265598   24.583780 H          1 MOL1         0.0830
       6    H4      20.771810   19.482477   23.576163 H          1 MOL1         0.0830
       7    C3      18.920974   19.668213   22.452334 C.3        1 MOL1        -0.1765
       8    H5      19.210630   20.707495   22.250252 H          1 MOL1         0.0830
       9    H6      17.859563   19.662722   22.735465 H          1 MOL1         0.0830
      10    C4      19.150814   18.765744   21.221724 C.3        1 MOL1         0.1214
      11    H7      19.802238   19.275945   20.497252 H          1 MOL1         0.0787
      12    C5      19.859911   17.497325   21.739537 C.3        1 MOL1        -0.1765
      13    H8      19.397636   16.576663   21.359137 H          1 MOL1         0.0830
      14    H9      20.905031   17.509229   21.403884 H          1 MOL1         0.0830
      15    O1      17.905735   18.422808   20.625014 O.3        1 MOL1        -0.5512
      16    H10     17.496519   19.262234   20.325953 H          1 MOL1         0.3776
@<TRIPOS>BOND
    1     1     2    1
    2     1     3    1
    3     1     4    1
    4     4     5    1
    5     4     6    1
    6     4     7    1
    7     7     8    1
    8     7     9    1
    9     7    10    1
   10    10    11    1
   11     1    12    1
   12    10    12    1
   13    12    13    1
   14    12    14    1
   15    10    15    1
   16    15    16    1
@<TRIPOS>SUBSTRUCTURE
       1 MOL1            1 RESIDUE      1      MOL     
@<SCITEGIC>MOL_PROPERTY
VConf Rank
SciTegic.value.IntegerValue
454

@<SCITEGIC>MOL_PROPERTY
Conf_Id
SciTegic.value.IntegerValue
59

@<SCITEGIC>MOL_PROPERTY
Delta U+W
SciTegic.value.DoubleValue
0.000

@<SCITEGIC>MOL_PROPERTY
U+W
SciTegic.value.DoubleValue
3.010

@<SCITEGIC>MOL_PROPERTY
Grad RMS
SciTegic.value.DoubleValue
0.000000

@<SCITEGIC>MOL_PROPERTY
U
SciTegic.value.DoubleValue
5.843

@<SCITEGIC>MOL_PROPERTY
W
SciTegic.value.DoubleValue
-2.833

@<SCITEGIC>MOL_PROPERTY
W(PB)
SciTegic.value.DoubleValue
-4.568

@<SCITEGIC>MOL_PROPERTY
W(SA)
SciTegic.value.DoubleValue
1.735

@<SCITEGIC>MOL_PROPERTY
Valence
SciTegic.value.DoubleValue
13.789

@<SCITEGIC>MOL_PROPERTY
Coulomb
SciTegic.value.DoubleValue
-8.574

@<SCITEGIC>MOL_PROPERTY
VdW
SciTegic.value.DoubleValue
0.628

@<SCITEGIC>MOL_PROPERTY
VdW6
SciTegic.value.DoubleValue
-3.284

@<SCITEGIC>MOL_PROPERTY
VdW12
SciTegic.value.DoubleValue
3.912

@<SCITEGIC>MOL_PROPERTY
Bond
SciTegic.value.DoubleValue
0.054

@<SCITEGIC>MOL_PROPERTY
Angle
SciTegic.value.DoubleValue
4.034

@<SCITEGIC>MOL_PROPERTY
Pdih
SciTegic.value.DoubleValue
9.702

@<SCITEGIC>MOL_PROPERTY
Idih
SciTegic.value.DoubleValue
0.000

@<SCITEGIC>MOL_PROPERTY
Tether
SciTegic.value.DoubleValue
0.000

@<TRIPOS>MOLECULE
guest-4_confgen4.mol2 : confsearch ligand conformer 455
          16          16           1
SMALL
USER_CHARGES
 
@<TRIPOS>ATOM
       1    C1      19.675434   18.882306   20.900379 C.3        1 MOL1        -0.1689
       2    H1      20.305473   19.521210   20.266651 H          1 MOL1         0.0830
       3    H2      19.142427   18.173496   20.251446 H          1 MOL1         0.0830
       4    C2      18.662901   19.691796   21.722103 C.3        1 MOL1        -0.1689
       5    H3      19.137389   20.613583   22.086589 H          1 MOL1         0.0830
       6    H4      17.774983   19.969519   21.138054 H          1 MOL1         0.0830
       7    C3      18.320001   18.781559   22.915821 C.3        1 MOL1        -0.1765
       8    H5      17.462084   18.146189   22.660147 H          1 MOL1         0.0830
       9    H6      18.049196   19.366019   23.805254 H          1 MOL1         0.0830
      10    C4      19.554093   17.887619   23.156002 C.3        1 MOL1         0.1214
      11    H7      19.237955   16.835020   23.196141 H          1 MOL1         0.0787
      12    C5      20.493746   18.111420   21.952382 C.3        1 MOL1        -0.1765
      13    H8      21.360202   18.716052   22.253143 H          1 MOL1         0.0830
      14    H9      20.868801   17.161033   21.551202 H          1 MOL1         0.0830
      15    O1      20.205037   18.264202   24.363625 O.3        1 MOL1        -0.5512
      16    H10     20.982895   17.674888   24.459419 H          1 MOL1         0.3776
@<TRIPOS>BOND
    1     1     2    1
    2     1     3    1
    3     1     4    1
    4     4     5    1
    5     4     6    1
    6     4     7    1
    7     7     8    1
    8     7     9    1
    9     7    10    1
   10    10    11    1
   11     1    12    1
   12    10    12    1
   13    12    13    1
   14    12    14    1
   15    10    15    1
   16    15    16    1
@<TRIPOS>SUBSTRUCTURE
       1 MOL1            1 RESIDUE      1      MOL     
@<SCITEGIC>MOL_PROPERTY
VConf Rank
SciTegic.value.IntegerValue
455

@<SCITEGIC>MOL_PROPERTY
Conf_Id
SciTegic.value.IntegerValue
33

@<SCITEGIC>MOL_PROPERTY
Delta U+W
SciTegic.value.DoubleValue
0.015

@<SCITEGIC>MOL_PROPERTY
U+W
SciTegic.value.DoubleValue
3.025

@<SCITEGIC>MOL_PROPERTY
Grad RMS
SciTegic.value.DoubleValue
0.000000

@<SCITEGIC>MOL_PROPERTY
U
SciTegic.value.DoubleValue
5.843

@<SCITEGIC>MOL_PROPERTY
W
SciTegic.value.DoubleValue
-2.819

@<SCITEGIC>MOL_PROPERTY
W(PB)
SciTegic.value.DoubleValue
-4.568

@<SCITEGIC>MOL_PROPERTY
W(SA)
SciTegic.value.DoubleValue
1.750

@<SCITEGIC>MOL_PROPERTY
Valence
SciTegic.value.DoubleValue
13.789

@<SCITEGIC>MOL_PROPERTY
Coulomb
SciTegic.value.DoubleValue
-8.574

@<SCITEGIC>MOL_PROPERTY
VdW
SciTegic.value.DoubleValue
0.628

@<SCITEGIC>MOL_PROPERTY
VdW6
SciTegic.value.DoubleValue
-3.284

@<SCITEGIC>MOL_PROPERTY
VdW12
SciTegic.value.DoubleValue
3.913

@<SCITEGIC>MOL_PROPERTY
Bond
SciTegic.value.DoubleValue
0.054

@<SCITEGIC>MOL_PROPERTY
Angle
SciTegic.value.DoubleValue
4.033

@<SCITEGIC>MOL_PROPERTY
Pdih
SciTegic.value.DoubleValue
9.702

@<SCITEGIC>MOL_PROPERTY
Idih
SciTegic.value.DoubleValue
0.000

@<SCITEGIC>MOL_PROPERTY
Tether
SciTegic.value.DoubleValue
0.000

@<TRIPOS>MOLECULE
guest-4_confgen4.mol2 : confsearch ligand conformer 456
          16          16           1
SMALL
USER_CHARGES
 
@<TRIPOS>ATOM
       1    C1      20.182752   18.730135   21.198248 C.3        1 MOL1        -0.1689
       2    H1      20.136809   17.884861   20.497799 H          1 MOL1         0.0830
       3    H2      20.895002   19.461324   20.791974 H          1 MOL1         0.0830
       4    C2      20.614706   18.232095   22.594813 C.3        1 MOL1        -0.1689
       5    H3      20.778839   17.145968   22.570005 H          1 MOL1         0.0830
       6    H4      21.552414   18.703541   22.919532 H          1 MOL1         0.0830
       7    C3      19.458731   18.574757   23.558525 C.3        1 MOL1        -0.1765
       8    H5      19.684806   19.511969   24.084018 H          1 MOL1         0.0830
       9    H6      19.304042   17.795511   24.316715 H          1 MOL1         0.0830
      10    C4      18.219141   18.783535   22.678285 C.3        1 MOL1         0.1214
      11    H7      17.502079   19.473305   23.146282 H          1 MOL1         0.0787
      12    C5      18.782499   19.356152   21.370732 C.3        1 MOL1        -0.1765
      13    H8      18.127879   19.154784   20.512287 H          1 MOL1         0.0830
      14    H9      18.877395   20.445517   21.470238 H          1 MOL1         0.0830
      15    O1      17.614629   17.525564   22.415831 O.3        1 MOL1        -0.5512
      16    H10     18.320031   16.984746   22.004630 H          1 MOL1         0.3776
@<TRIPOS>BOND
    1     1     2    1
    2     1     3    1
    3     1     4    1
    4     4     5    1
    5     4     6    1
    6     4     7    1
    7     7     8    1
    8     7     9    1
    9     7    10    1
   10    10    11    1
   11     1    12    1
   12    10    12    1
   13    12    13    1
   14    12    14    1
   15    10    15    1
   16    15    16    1
@<TRIPOS>SUBSTRUCTURE
       1 MOL1            1 RESIDUE      1      MOL     
@<SCITEGIC>MOL_PROPERTY
VConf Rank
SciTegic.value.IntegerValue
456

@<SCITEGIC>MOL_PROPERTY
Conf_Id
SciTegic.value.IntegerValue
20

@<SCITEGIC>MOL_PROPERTY
Delta U+W
SciTegic.value.DoubleValue
-0.483

@<SCITEGIC>MOL_PROPERTY
U+W
SciTegic.value.DoubleValue
2.527

@<SCITEGIC>MOL_PROPERTY
Grad RMS
SciTegic.value.DoubleValue
0.000000

@<SCITEGIC>MOL_PROPERTY
U
SciTegic.value.DoubleValue
4.508

@<SCITEGIC>MOL_PROPERTY
W
SciTegic.value.DoubleValue
-1.981

@<SCITEGIC>MOL_PROPERTY
W(PB)
SciTegic.value.DoubleValue
-3.712

@<SCITEGIC>MOL_PROPERTY
W(SA)
SciTegic.value.DoubleValue
1.732

@<SCITEGIC>MOL_PROPERTY
Valence
SciTegic.value.DoubleValue
14.705

@<SCITEGIC>MOL_PROPERTY
Coulomb
SciTegic.value.DoubleValue
-10.687

@<SCITEGIC>MOL_PROPERTY
VdW
SciTegic.value.DoubleValue
0.490

@<SCITEGIC>MOL_PROPERTY
VdW6
SciTegic.value.DoubleValue
-3.745

@<SCITEGIC>MOL_PROPERTY
VdW12
SciTegic.value.DoubleValue
4.235

@<SCITEGIC>MOL_PROPERTY
Bond
SciTegic.value.DoubleValue
0.068

@<SCITEGIC>MOL_PROPERTY
Angle
SciTegic.value.DoubleValue
3.901

@<SCITEGIC>MOL_PROPERTY
Pdih
SciTegic.value.DoubleValue
10.737

@<SCITEGIC>MOL_PROPERTY
Idih
SciTegic.value.DoubleValue
0.000

@<SCITEGIC>MOL_PROPERTY
Tether
SciTegic.value.DoubleValue
0.000

@<TRIPOS>MOLECULE
guest-4_confgen4.mol2 : confsearch ligand conformer 457
          16          16           1
SMALL
USER_CHARGES
 
@<TRIPOS>ATOM
       1    C1      18.117555   18.738033   23.049633 C.3        1 MOL1        -0.1689
       2    H1      17.555956   19.488910   22.476513 H          1 MOL1         0.0830
       3    H2      17.491689   18.407488   23.889678 H          1 MOL1         0.0830
       4    C2      19.452230   19.337471   23.513363 C.3        1 MOL1        -0.1689
       5    H3      19.351449   20.382861   23.835484 H          1 MOL1         0.0830
       6    H4      19.845974   18.754277   24.357446 H          1 MOL1         0.0830
       7    C3      20.383371   19.186499   22.296506 C.3        1 MOL1        -0.1765
       8    H5      21.431805   19.081883   22.604218 H          1 MOL1         0.0830
       9    H6      20.304687   20.082309   21.665540 H          1 MOL1         0.0830
      10    C4      19.892066   17.943816   21.524471 C.3        1 MOL1         0.1214
      11    H7      20.589783   17.107110   21.674908 H          1 MOL1         0.0787
      12    C5      18.518538   17.575725   22.122605 C.3        1 MOL1        -0.1765
      13    H8      17.761020   17.396684   21.347923 H          1 MOL1         0.0830
      14    H9      18.619379   16.653859   22.710037 H          1 MOL1         0.0830
      15    O1      19.759466   18.246254   20.140694 O.3        1 MOL1        -0.5512
      16    H10     20.654599   18.482356   19.817392 H          1 MOL1         0.3776
@<TRIPOS>BOND
    1     1     2    1
    2     1     3    1
    3     1     4    1
    4     4     5    1
    5     4     6    1
    6     4     7    1
    7     7     8    1
    8     7     9    1
    9     7    10    1
   10    10    11    1
   11     1    12    1
   12    10    12    1
   13    12    13    1
   14    12    14    1
   15    10    15    1
   16    15    16    1
@<TRIPOS>SUBSTRUCTURE
       1 MOL1            1 RESIDUE      1      MOL     
@<SCITEGIC>MOL_PROPERTY
VConf Rank
SciTegic.value.IntegerValue
457

@<SCITEGIC>MOL_PROPERTY
Conf_Id
SciTegic.value.IntegerValue
59

@<SCITEGIC>MOL_PROPERTY
Delta U+W
SciTegic.value.DoubleValue
0.000

@<SCITEGIC>MOL_PROPERTY
U+W
SciTegic.value.DoubleValue
3.010

@<SCITEGIC>MOL_PROPERTY
Grad RMS
SciTegic.value.DoubleValue
0.000000

@<SCITEGIC>MOL_PROPERTY
U
SciTegic.value.DoubleValue
5.843

@<SCITEGIC>MOL_PROPERTY
W
SciTegic.value.DoubleValue
-2.833

@<SCITEGIC>MOL_PROPERTY
W(PB)
SciTegic.value.DoubleValue
-4.568

@<SCITEGIC>MOL_PROPERTY
W(SA)
SciTegic.value.DoubleValue
1.735

@<SCITEGIC>MOL_PROPERTY
Valence
SciTegic.value.DoubleValue
13.789

@<SCITEGIC>MOL_PROPERTY
Coulomb
SciTegic.value.DoubleValue
-8.574

@<SCITEGIC>MOL_PROPERTY
VdW
SciTegic.value.DoubleValue
0.628

@<SCITEGIC>MOL_PROPERTY
VdW6
SciTegic.value.DoubleValue
-3.284

@<SCITEGIC>MOL_PROPERTY
VdW12
SciTegic.value.DoubleValue
3.912

@<SCITEGIC>MOL_PROPERTY
Bond
SciTegic.value.DoubleValue
0.054

@<SCITEGIC>MOL_PROPERTY
Angle
SciTegic.value.DoubleValue
4.034

@<SCITEGIC>MOL_PROPERTY
Pdih
SciTegic.value.DoubleValue
9.702

@<SCITEGIC>MOL_PROPERTY
Idih
SciTegic.value.DoubleValue
0.000

@<SCITEGIC>MOL_PROPERTY
Tether
SciTegic.value.DoubleValue
0.000

@<TRIPOS>MOLECULE
guest-4_confgen4.mol2 : confsearch ligand conformer 458
          16          16           1
SMALL
USER_CHARGES
 
@<TRIPOS>ATOM
       1    C1      19.506450   18.814777   23.712459 C.3        1 MOL1        -0.1689
       2    H1      20.084469   19.387496   24.450460 H          1 MOL1         0.0830
       3    H2      18.655904   18.348552   24.229012 H          1 MOL1         0.0830
       4    C2      20.348656   17.732136   23.023761 C.3        1 MOL1        -0.1689
       5    H3      21.356159   18.122000   22.822210 H          1 MOL1         0.0830
       6    H4      20.446700   16.824758   23.635066 H          1 MOL1         0.0830
       7    C3      19.622079   17.467886   21.692095 C.3        1 MOL1        -0.1765
       8    H5      18.880230   16.670404   21.829089 H          1 MOL1         0.0830
       9    H6      20.319650   17.143806   20.908268 H          1 MOL1         0.0830
      10    C4      18.892230   18.775679   21.322236 C.3        1 MOL1         0.1214
      11    H7      17.837152   18.553987   21.105022 H          1 MOL1         0.0787
      12    C5      18.995354   19.695212   22.557372 C.3        1 MOL1        -0.1765
      13    H8      19.715226   20.503796   22.370937 H          1 MOL1         0.0830
      14    H9      18.028354   20.154182   22.800483 H          1 MOL1         0.0830
      15    O1      19.519317   19.387239   20.201230 O.3        1 MOL1        -0.5512
      16    H10     19.024685   20.214002   20.018660 H          1 MOL1         0.3776
@<TRIPOS>BOND
    1     1     2    1
    2     1     3    1
    3     1     4    1
    4     4     5    1
    5     4     6    1
    6     4     7    1
    7     7     8    1
    8     7     9    1
    9     7    10    1
   10    10    11    1
   11     1    12    1
   12    10    12    1
   13    12    13    1
   14    12    14    1
   15    10    15    1
   16    15    16    1
@<TRIPOS>SUBSTRUCTURE
       1 MOL1            1 RESIDUE      1      MOL     
@<SCITEGIC>MOL_PROPERTY
VConf Rank
SciTegic.value.IntegerValue
458

@<SCITEGIC>MOL_PROPERTY
Conf_Id
SciTegic.value.IntegerValue
33

@<SCITEGIC>MOL_PROPERTY
Delta U+W
SciTegic.value.DoubleValue
0.015

@<SCITEGIC>MOL_PROPERTY
U+W
SciTegic.value.DoubleValue
3.025

@<SCITEGIC>MOL_PROPERTY
Grad RMS
SciTegic.value.DoubleValue
0.000000

@<SCITEGIC>MOL_PROPERTY
U
SciTegic.value.DoubleValue
5.843

@<SCITEGIC>MOL_PROPERTY
W
SciTegic.value.DoubleValue
-2.819

@<SCITEGIC>MOL_PROPERTY
W(PB)
SciTegic.value.DoubleValue
-4.568

@<SCITEGIC>MOL_PROPERTY
W(SA)
SciTegic.value.DoubleValue
1.750

@<SCITEGIC>MOL_PROPERTY
Valence
SciTegic.value.DoubleValue
13.789

@<SCITEGIC>MOL_PROPERTY
Coulomb
SciTegic.value.DoubleValue
-8.574

@<SCITEGIC>MOL_PROPERTY
VdW
SciTegic.value.DoubleValue
0.628

@<SCITEGIC>MOL_PROPERTY
VdW6
SciTegic.value.DoubleValue
-3.284

@<SCITEGIC>MOL_PROPERTY
VdW12
SciTegic.value.DoubleValue
3.913

@<SCITEGIC>MOL_PROPERTY
Bond
SciTegic.value.DoubleValue
0.054

@<SCITEGIC>MOL_PROPERTY
Angle
SciTegic.value.DoubleValue
4.033

@<SCITEGIC>MOL_PROPERTY
Pdih
SciTegic.value.DoubleValue
9.702

@<SCITEGIC>MOL_PROPERTY
Idih
SciTegic.value.DoubleValue
0.000

@<SCITEGIC>MOL_PROPERTY
Tether
SciTegic.value.DoubleValue
0.000

@<TRIPOS>MOLECULE
guest-4_confgen4.mol2 : confsearch ligand conformer 459
          16          16           1
SMALL
USER_CHARGES
 
@<TRIPOS>ATOM
       1    C1      19.452853   18.644035   20.924612 C.3        1 MOL1        -0.1689
       2    H1      18.481980   18.570776   20.415431 H          1 MOL1         0.0830
       3    H2      20.227583   18.744529   20.152154 H          1 MOL1         0.0830
       4    C2      19.682621   17.392609   21.799918 C.3        1 MOL1        -0.1689
       5    H3      18.823440   16.713217   21.713537 H          1 MOL1         0.0830
       6    H4      20.578149   16.839017   21.485968 H          1 MOL1         0.0830
       7    C3      19.821608   17.894358   23.252972 C.3        1 MOL1        -0.1765
       8    H5      20.885341   17.979109   23.511645 H          1 MOL1         0.0830
       9    H6      19.355423   17.211332   23.975573 H          1 MOL1         0.0830
      10    C4      19.188729   19.292067   23.282455 C.3        1 MOL1         0.1214
      11    H7      19.634577   19.921662   24.065917 H          1 MOL1         0.0787
      12    C5      19.462856   19.855111   21.881458 C.3        1 MOL1        -0.1765
      13    H8      18.731880   20.621371   21.590728 H          1 MOL1         0.0830
      14    H9      20.456942   20.321307   21.872787 H          1 MOL1         0.0830
      15    O1      17.786619   19.166744   23.470038 O.3        1 MOL1        -0.5512
      16    H10     17.481150   18.596518   22.734720 H          1 MOL1         0.3776
@<TRIPOS>BOND
    1     1     2    1
    2     1     3    1
    3     1     4    1
    4     4     5    1
    5     4     6    1
    6     4     7    1
    7     7     8    1
    8     7     9    1
    9     7    10    1
   10    10    11    1
   11     1    12    1
   12    10    12    1
   13    12    13    1
   14    12    14    1
   15    10    15    1
   16    15    16    1
@<TRIPOS>SUBSTRUCTURE
       1 MOL1            1 RESIDUE      1      MOL     
@<SCITEGIC>MOL_PROPERTY
VConf Rank
SciTegic.value.IntegerValue
459

@<SCITEGIC>MOL_PROPERTY
Conf_Id
SciTegic.value.IntegerValue
20

@<SCITEGIC>MOL_PROPERTY
Delta U+W
SciTegic.value.DoubleValue
-0.483

@<SCITEGIC>MOL_PROPERTY
U+W
SciTegic.value.DoubleValue
2.527

@<SCITEGIC>MOL_PROPERTY
Grad RMS
SciTegic.value.DoubleValue
0.000000

@<SCITEGIC>MOL_PROPERTY
U
SciTegic.value.DoubleValue
4.508

@<SCITEGIC>MOL_PROPERTY
W
SciTegic.value.DoubleValue
-1.981

@<SCITEGIC>MOL_PROPERTY
W(PB)
SciTegic.value.DoubleValue
-3.712

@<SCITEGIC>MOL_PROPERTY
W(SA)
SciTegic.value.DoubleValue
1.732

@<SCITEGIC>MOL_PROPERTY
Valence
SciTegic.value.DoubleValue
14.705

@<SCITEGIC>MOL_PROPERTY
Coulomb
SciTegic.value.DoubleValue
-10.687

@<SCITEGIC>MOL_PROPERTY
VdW
SciTegic.value.DoubleValue
0.490

@<SCITEGIC>MOL_PROPERTY
VdW6
SciTegic.value.DoubleValue
-3.745

@<SCITEGIC>MOL_PROPERTY
VdW12
SciTegic.value.DoubleValue
4.235

@<SCITEGIC>MOL_PROPERTY
Bond
SciTegic.value.DoubleValue
0.068

@<SCITEGIC>MOL_PROPERTY
Angle
SciTegic.value.DoubleValue
3.901

@<SCITEGIC>MOL_PROPERTY
Pdih
SciTegic.value.DoubleValue
10.737

@<SCITEGIC>MOL_PROPERTY
Idih
SciTegic.value.DoubleValue
0.000

@<SCITEGIC>MOL_PROPERTY
Tether
SciTegic.value.DoubleValue
0.000

@<TRIPOS>MOLECULE
guest-4_confgen4.mol2 : confsearch ligand conformer 460
          16          16           1
SMALL
USER_CHARGES
 
@<TRIPOS>ATOM
       1    C1      19.973133   17.505877   21.516226 C.3        1 MOL1        -0.1689
       2    H1      19.681610   17.729032   20.480420 H          1 MOL1         0.0830
       3    H2      20.640984   16.633809   21.505470 H          1 MOL1         0.0830
       4    C2      18.716144   17.271152   22.365114 C.3        1 MOL1        -0.1689
       5    H3      17.947093   16.702477   21.824810 H          1 MOL1         0.0830
       6    H4      18.982327   16.712247   23.273077 H          1 MOL1         0.0830
       7    C3      18.240588   18.685489   22.744660 C.3        1 MOL1        -0.1765
       8    H5      17.713881   18.686620   23.707688 H          1 MOL1         0.0830
       9    H6      17.543874   19.052248   21.978591 H          1 MOL1         0.0830
      10    C4      19.503153   19.571925   22.787586 C.3        1 MOL1         0.1214
      11    H7      19.767481   19.800175   23.830443 H          1 MOL1         0.0787
      12    C5      20.635971   18.745961   22.143895 C.3        1 MOL1        -0.1765
      13    H8      21.201096   19.322643   21.399520 H          1 MOL1         0.0830
      14    H9      21.338900   18.431721   22.926344 H          1 MOL1         0.0830
      15    O1      19.288060   20.768742   22.049173 O.3        1 MOL1        -0.5512
      16    H10     18.555271   21.245416   22.493396 H          1 MOL1         0.3776
@<TRIPOS>BOND
    1     1     2    1
    2     1     3    1
    3     1     4    1
    4     4     5    1
    5     4     6    1
    6     4     7    1
    7     7     8    1
    8     7     9    1
    9     7    10    1
   10    10    11    1
   11     1    12    1
   12    10    12    1
   13    12    13    1
   14    12    14    1
   15    10    15    1
   16    15    16    1
@<TRIPOS>SUBSTRUCTURE
       1 MOL1            1 RESIDUE      1      MOL     
@<SCITEGIC>MOL_PROPERTY
VConf Rank
SciTegic.value.IntegerValue
460

@<SCITEGIC>MOL_PROPERTY
Conf_Id
SciTegic.value.IntegerValue
59

@<SCITEGIC>MOL_PROPERTY
Delta U+W
SciTegic.value.DoubleValue
0.000

@<SCITEGIC>MOL_PROPERTY
U+W
SciTegic.value.DoubleValue
3.010

@<SCITEGIC>MOL_PROPERTY
Grad RMS
SciTegic.value.DoubleValue
0.000000

@<SCITEGIC>MOL_PROPERTY
U
SciTegic.value.DoubleValue
5.843

@<SCITEGIC>MOL_PROPERTY
W
SciTegic.value.DoubleValue
-2.833

@<SCITEGIC>MOL_PROPERTY
W(PB)
SciTegic.value.DoubleValue
-4.568

@<SCITEGIC>MOL_PROPERTY
W(SA)
SciTegic.value.DoubleValue
1.735

@<SCITEGIC>MOL_PROPERTY
Valence
SciTegic.value.DoubleValue
13.789

@<SCITEGIC>MOL_PROPERTY
Coulomb
SciTegic.value.DoubleValue
-8.574

@<SCITEGIC>MOL_PROPERTY
VdW
SciTegic.value.DoubleValue
0.628

@<SCITEGIC>MOL_PROPERTY
VdW6
SciTegic.value.DoubleValue
-3.284

@<SCITEGIC>MOL_PROPERTY
VdW12
SciTegic.value.DoubleValue
3.912

@<SCITEGIC>MOL_PROPERTY
Bond
SciTegic.value.DoubleValue
0.054

@<SCITEGIC>MOL_PROPERTY
Angle
SciTegic.value.DoubleValue
4.034

@<SCITEGIC>MOL_PROPERTY
Pdih
SciTegic.value.DoubleValue
9.702

@<SCITEGIC>MOL_PROPERTY
Idih
SciTegic.value.DoubleValue
0.000

@<SCITEGIC>MOL_PROPERTY
Tether
SciTegic.value.DoubleValue
0.000

@<TRIPOS>MOLECULE
guest-4_confgen4.mol2 : confsearch ligand conformer 461
          16          16           1
SMALL
USER_CHARGES
 
@<TRIPOS>ATOM
       1    C1      18.654665   18.804288   23.470476 C.3        1 MOL1        -0.1689
       2    H1      18.381834   18.265889   24.388326 H          1 MOL1         0.0830
       3    H2      18.278288   19.833585   23.551158 H          1 MOL1         0.0830
       4    C2      18.079053   18.141305   22.211566 C.3        1 MOL1        -0.1689
       5    H3      18.147575   17.048630   22.306674 H          1 MOL1         0.0830
       6    H4      17.026759   18.406619   22.041483 H          1 MOL1         0.0830
       7    C3      18.997077   18.618191   21.071001 C.3        1 MOL1        -0.1765
       8    H5      18.602676   19.550287   20.645879 H          1 MOL1         0.0830
       9    H6      19.052571   17.878997   20.260735 H          1 MOL1         0.0830
      10    C4      20.375846   18.897862   21.703915 C.3        1 MOL1         0.1214
      11    H7      20.709665   19.905683   21.416894 H          1 MOL1         0.0787
      12    C5      20.175701   18.823001   23.232336 C.3        1 MOL1        -0.1765
      13    H8      20.616941   17.898566   23.629211 H          1 MOL1         0.0830
      14    H9      20.651279   19.670021   23.743442 H          1 MOL1         0.0830
      15    O1      21.316661   17.917074   21.283415 O.3        1 MOL1        -0.5512
      16    H10     22.166024   18.135913   21.721846 H          1 MOL1         0.3776
@<TRIPOS>BOND
    1     1     2    1
    2     1     3    1
    3     1     4    1
    4     4     5    1
    5     4     6    1
    6     4     7    1
    7     7     8    1
    8     7     9    1
    9     7    10    1
   10    10    11    1
   11     1    12    1
   12    10    12    1
   13    12    13    1
   14    12    14    1
   15    10    15    1
   16    15    16    1
@<TRIPOS>SUBSTRUCTURE
       1 MOL1            1 RESIDUE      1      MOL     
@<SCITEGIC>MOL_PROPERTY
VConf Rank
SciTegic.value.IntegerValue
461

@<SCITEGIC>MOL_PROPERTY
Conf_Id
SciTegic.value.IntegerValue
33

@<SCITEGIC>MOL_PROPERTY
Delta U+W
SciTegic.value.DoubleValue
0.015

@<SCITEGIC>MOL_PROPERTY
U+W
SciTegic.value.DoubleValue
3.025

@<SCITEGIC>MOL_PROPERTY
Grad RMS
SciTegic.value.DoubleValue
0.000000

@<SCITEGIC>MOL_PROPERTY
U
SciTegic.value.DoubleValue
5.843

@<SCITEGIC>MOL_PROPERTY
W
SciTegic.value.DoubleValue
-2.819

@<SCITEGIC>MOL_PROPERTY
W(PB)
SciTegic.value.DoubleValue
-4.568

@<SCITEGIC>MOL_PROPERTY
W(SA)
SciTegic.value.DoubleValue
1.750

@<SCITEGIC>MOL_PROPERTY
Valence
SciTegic.value.DoubleValue
13.789

@<SCITEGIC>MOL_PROPERTY
Coulomb
SciTegic.value.DoubleValue
-8.574

@<SCITEGIC>MOL_PROPERTY
VdW
SciTegic.value.DoubleValue
0.628

@<SCITEGIC>MOL_PROPERTY
VdW6
SciTegic.value.DoubleValue
-3.284

@<SCITEGIC>MOL_PROPERTY
VdW12
SciTegic.value.DoubleValue
3.913

@<SCITEGIC>MOL_PROPERTY
Bond
SciTegic.value.DoubleValue
0.054

@<SCITEGIC>MOL_PROPERTY
Angle
SciTegic.value.DoubleValue
4.033

@<SCITEGIC>MOL_PROPERTY
Pdih
SciTegic.value.DoubleValue
9.702

@<SCITEGIC>MOL_PROPERTY
Idih
SciTegic.value.DoubleValue
0.000

@<SCITEGIC>MOL_PROPERTY
Tether
SciTegic.value.DoubleValue
0.000

@<TRIPOS>MOLECULE
guest-4_confgen4.mol2 : confsearch ligand conformer 462
          16          16           1
SMALL
USER_CHARGES
 
@<TRIPOS>ATOM
       1    C1      20.216310   18.051554   23.135877 C.3        1 MOL1        -0.1689
       2    H1      19.761626   17.271065   23.761437 H          1 MOL1         0.0830
       3    H2      21.274685   18.131511   23.419505 H          1 MOL1         0.0830
       4    C2      19.471100   19.388715   23.340043 C.3        1 MOL1        -0.1689
       5    H3      18.656441   19.255630   24.065196 H          1 MOL1         0.0830
       6    H4      20.139918   20.168450   23.729525 H          1 MOL1         0.0830
       7    C3      18.899131   19.785759   21.962493 C.3        1 MOL1        -0.1765
       8    H5      19.571826   20.507114   21.480053 H          1 MOL1         0.0830
       9    H6      17.908920   20.253883   22.042170 H          1 MOL1         0.0830
      10    C4      18.867955   18.498257   21.128011 C.3        1 MOL1         0.1214
      11    H7      18.954392   18.710854   20.052691 H          1 MOL1         0.0787
      12    C5      20.067713   17.691424   21.642363 C.3        1 MOL1        -0.1765
      13    H8      19.941299   16.611947   21.485038 H          1 MOL1         0.0830
      14    H9      20.968159   18.005206   21.097975 H          1 MOL1         0.0830
      15    O1      17.671116   17.787448   21.409322 O.3        1 MOL1        -0.5512
      16    H10     17.681161   17.644946   22.378215 H          1 MOL1         0.3776
@<TRIPOS>BOND
    1     1     2    1
    2     1     3    1
    3     1     4    1
    4     4     5    1
    5     4     6    1
    6     4     7    1
    7     7     8    1
    8     7     9    1
    9     7    10    1
   10    10    11    1
   11     1    12    1
   12    10    12    1
   13    12    13    1
   14    12    14    1
   15    10    15    1
   16    15    16    1
@<TRIPOS>SUBSTRUCTURE
       1 MOL1            1 RESIDUE      1      MOL     
@<SCITEGIC>MOL_PROPERTY
VConf Rank
SciTegic.value.IntegerValue
462

@<SCITEGIC>MOL_PROPERTY
Conf_Id
SciTegic.value.IntegerValue
20

@<SCITEGIC>MOL_PROPERTY
Delta U+W
SciTegic.value.DoubleValue
-0.483

@<SCITEGIC>MOL_PROPERTY
U+W
SciTegic.value.DoubleValue
2.527

@<SCITEGIC>MOL_PROPERTY
Grad RMS
SciTegic.value.DoubleValue
0.000000

@<SCITEGIC>MOL_PROPERTY
U
SciTegic.value.DoubleValue
4.508

@<SCITEGIC>MOL_PROPERTY
W
SciTegic.value.DoubleValue
-1.981

@<SCITEGIC>MOL_PROPERTY
W(PB)
SciTegic.value.DoubleValue
-3.712

@<SCITEGIC>MOL_PROPERTY
W(SA)
SciTegic.value.DoubleValue
1.732

@<SCITEGIC>MOL_PROPERTY
Valence
SciTegic.value.DoubleValue
14.705

@<SCITEGIC>MOL_PROPERTY
Coulomb
SciTegic.value.DoubleValue
-10.687

@<SCITEGIC>MOL_PROPERTY
VdW
SciTegic.value.DoubleValue
0.490

@<SCITEGIC>MOL_PROPERTY
VdW6
SciTegic.value.DoubleValue
-3.745

@<SCITEGIC>MOL_PROPERTY
VdW12
SciTegic.value.DoubleValue
4.235

@<SCITEGIC>MOL_PROPERTY
Bond
SciTegic.value.DoubleValue
0.068

@<SCITEGIC>MOL_PROPERTY
Angle
SciTegic.value.DoubleValue
3.901

@<SCITEGIC>MOL_PROPERTY
Pdih
SciTegic.value.DoubleValue
10.737

@<SCITEGIC>MOL_PROPERTY
Idih
SciTegic.value.DoubleValue
0.000

@<SCITEGIC>MOL_PROPERTY
Tether
SciTegic.value.DoubleValue
0.000

@<TRIPOS>MOLECULE
guest-4_confgen4.mol2 : confsearch ligand conformer 463
          16          16           1
SMALL
USER_CHARGES
 
@<TRIPOS>ATOM
       1    C1      18.164687   19.181337   21.770042 C.3        1 MOL1        -0.1689
       2    H1      18.502433   20.157552   21.395063 H          1 MOL1         0.0830
       3    H2      17.098901   19.069926   21.528521 H          1 MOL1         0.0830
       4    C2      18.437075   19.087172   23.277578 C.3        1 MOL1        -0.1689
       5    H3      18.231251   20.031734   23.799304 H          1 MOL1         0.0830
       6    H4      17.803685   18.305435   23.719540 H          1 MOL1         0.0830
       7    C3      19.917332   18.674834   23.374391 C.3        1 MOL1        -0.1765
       8    H5      20.112798   18.092320   24.283960 H          1 MOL1         0.0830
       9    H6      20.543980   19.576407   23.409928 H          1 MOL1         0.0830
      10    C4      20.225728   17.859113   22.101139 C.3        1 MOL1         0.1214
      11    H7      20.312587   16.791396   22.350045 H          1 MOL1         0.0787
      12    C5      19.027039   18.065209   21.152191 C.3        1 MOL1        -0.1765
      13    H8      19.342459   18.316611   20.130756 H          1 MOL1         0.0830
      14    H9      18.445797   17.135277   21.102543 H          1 MOL1         0.0830
      15    O1      21.420848   18.332955   21.491999 O.3        1 MOL1        -0.5512
      16    H10     22.142966   18.188256   22.139410 H          1 MOL1         0.3776
@<TRIPOS>BOND
    1     1     2    1
    2     1     3    1
    3     1     4    1
    4     4     5    1
    5     4     6    1
    6     4     7    1
    7     7     8    1
    8     7     9    1
    9     7    10    1
   10    10    11    1
   11     1    12    1
   12    10    12    1
   13    12    13    1
   14    12    14    1
   15    10    15    1
   16    15    16    1
@<TRIPOS>SUBSTRUCTURE
       1 MOL1            1 RESIDUE      1      MOL     
@<SCITEGIC>MOL_PROPERTY
VConf Rank
SciTegic.value.IntegerValue
463

@<SCITEGIC>MOL_PROPERTY
Conf_Id
SciTegic.value.IntegerValue
59

@<SCITEGIC>MOL_PROPERTY
Delta U+W
SciTegic.value.DoubleValue
0.000

@<SCITEGIC>MOL_PROPERTY
U+W
SciTegic.value.DoubleValue
3.010

@<SCITEGIC>MOL_PROPERTY
Grad RMS
SciTegic.value.DoubleValue
0.000000

@<SCITEGIC>MOL_PROPERTY
U
SciTegic.value.DoubleValue
5.843

@<SCITEGIC>MOL_PROPERTY
W
SciTegic.value.DoubleValue
-2.833

@<SCITEGIC>MOL_PROPERTY
W(PB)
SciTegic.value.DoubleValue
-4.568

@<SCITEGIC>MOL_PROPERTY
W(SA)
SciTegic.value.DoubleValue
1.735

@<SCITEGIC>MOL_PROPERTY
Valence
SciTegic.value.DoubleValue
13.789

@<SCITEGIC>MOL_PROPERTY
Coulomb
SciTegic.value.DoubleValue
-8.574

@<SCITEGIC>MOL_PROPERTY
VdW
SciTegic.value.DoubleValue
0.628

@<SCITEGIC>MOL_PROPERTY
VdW6
SciTegic.value.DoubleValue
-3.284

@<SCITEGIC>MOL_PROPERTY
VdW12
SciTegic.value.DoubleValue
3.912

@<SCITEGIC>MOL_PROPERTY
Bond
SciTegic.value.DoubleValue
0.054

@<SCITEGIC>MOL_PROPERTY
Angle
SciTegic.value.DoubleValue
4.034

@<SCITEGIC>MOL_PROPERTY
Pdih
SciTegic.value.DoubleValue
9.702

@<SCITEGIC>MOL_PROPERTY
Idih
SciTegic.value.DoubleValue
0.000

@<SCITEGIC>MOL_PROPERTY
Tether
SciTegic.value.DoubleValue
0.000

@<TRIPOS>MOLECULE
guest-4_confgen4.mol2 : confsearch ligand conformer 464
          16          16           1
SMALL
USER_CHARGES
 
@<TRIPOS>ATOM
       1    C1      18.483766   18.681862   23.349826 C.3        1 MOL1        -0.1689
       2    H1      18.419344   18.508965   24.432746 H          1 MOL1         0.0830
       3    H2      17.544291   19.146578   23.019603 H          1 MOL1         0.0830
       4    C2      18.722093   17.384841   22.564546 C.3        1 MOL1        -0.1689
       5    H3      19.431236   16.748087   23.111665 H          1 MOL1         0.0830
       6    H4      17.797113   16.813572   22.407363 H          1 MOL1         0.0830
       7    C3      19.359246   17.847269   21.241190 C.3        1 MOL1        -0.1765
       8    H5      18.572008   18.039719   20.500715 H          1 MOL1         0.0830
       9    H6      20.028549   17.082183   20.825623 H          1 MOL1         0.0830
      10    C4      20.096806   19.167485   21.545877 C.3        1 MOL1         0.1214
      11    H7      19.784705   19.933611   20.821196 H          1 MOL1         0.0787
      12    C5      19.672588   19.583622   22.970168 C.3        1 MOL1        -0.1765
      13    H8      20.496413   19.415462   23.677146 H          1 MOL1         0.0830
      14    H9      19.400703   20.646089   23.015891 H          1 MOL1         0.0830
      15    O1      21.504192   18.966902   21.491766 O.3        1 MOL1        -0.5512
      16    H10     21.919563   19.829665   21.703035 H          1 MOL1         0.3776
@<TRIPOS>BOND
    1     1     2    1
    2     1     3    1
    3     1     4    1
    4     4     5    1
    5     4     6    1
    6     4     7    1
    7     7     8    1
    8     7     9    1
    9     7    10    1
   10    10    11    1
   11     1    12    1
   12    10    12    1
   13    12    13    1
   14    12    14    1
   15    10    15    1
   16    15    16    1
@<TRIPOS>SUBSTRUCTURE
       1 MOL1            1 RESIDUE      1      MOL     
@<SCITEGIC>MOL_PROPERTY
VConf Rank
SciTegic.value.IntegerValue
464

@<SCITEGIC>MOL_PROPERTY
Conf_Id
SciTegic.value.IntegerValue
33

@<SCITEGIC>MOL_PROPERTY
Delta U+W
SciTegic.value.DoubleValue
0.015

@<SCITEGIC>MOL_PROPERTY
U+W
SciTegic.value.DoubleValue
3.025

@<SCITEGIC>MOL_PROPERTY
Grad RMS
SciTegic.value.DoubleValue
0.000000

@<SCITEGIC>MOL_PROPERTY
U
SciTegic.value.DoubleValue
5.843

@<SCITEGIC>MOL_PROPERTY
W
SciTegic.value.DoubleValue
-2.819

@<SCITEGIC>MOL_PROPERTY
W(PB)
SciTegic.value.DoubleValue
-4.568

@<SCITEGIC>MOL_PROPERTY
W(SA)
SciTegic.value.DoubleValue
1.750

@<SCITEGIC>MOL_PROPERTY
Valence
SciTegic.value.DoubleValue
13.789

@<SCITEGIC>MOL_PROPERTY
Coulomb
SciTegic.value.DoubleValue
-8.574

@<SCITEGIC>MOL_PROPERTY
VdW
SciTegic.value.DoubleValue
0.628

@<SCITEGIC>MOL_PROPERTY
VdW6
SciTegic.value.DoubleValue
-3.284

@<SCITEGIC>MOL_PROPERTY
VdW12
SciTegic.value.DoubleValue
3.913

@<SCITEGIC>MOL_PROPERTY
Bond
SciTegic.value.DoubleValue
0.054

@<SCITEGIC>MOL_PROPERTY
Angle
SciTegic.value.DoubleValue
4.033

@<SCITEGIC>MOL_PROPERTY
Pdih
SciTegic.value.DoubleValue
9.702

@<SCITEGIC>MOL_PROPERTY
Idih
SciTegic.value.DoubleValue
0.000

@<SCITEGIC>MOL_PROPERTY
Tether
SciTegic.value.DoubleValue
0.000

@<TRIPOS>MOLECULE
guest-4_confgen4.mol2 : confsearch ligand conformer 465
          16          16           1
SMALL
USER_CHARGES
 
@<TRIPOS>ATOM
       1    C1      20.482951   19.289261   21.936441 C.3        1 MOL1        -0.1689
       2    H1      20.403113   19.867914   21.005843 H          1 MOL1         0.0830
       3    H2      21.485213   19.462528   22.351709 H          1 MOL1         0.0830
       4    C2      20.239442   17.792048   21.646478 C.3        1 MOL1        -0.1689
       5    H3      20.042804   17.645957   20.575396 H          1 MOL1         0.0830
       6    H4      21.113985   17.181976   21.911028 H          1 MOL1         0.0830
       7    C3      19.004612   17.380751   22.476216 C.3        1 MOL1        -0.1765
       8    H5      19.332007   16.903190   23.409151 H          1 MOL1         0.0830
       9    H6      18.363491   16.666602   21.942399 H          1 MOL1         0.0830
      10    C4      18.267208   18.683171   22.815228 C.3        1 MOL1         0.1214
      11    H7      17.698420   18.594047   23.751988 H          1 MOL1         0.0787
      12    C5      19.386861   19.726160   22.931461 C.3        1 MOL1        -0.1765
      13    H8      19.028139   20.745252   22.734553 H          1 MOL1         0.0830
      14    H9      19.789121   19.705090   23.952913 H          1 MOL1         0.0830
      15    O1      17.413409   19.031937   21.735323 O.3        1 MOL1        -0.5512
      16    H10     18.000977   19.087879   20.953788 H          1 MOL1         0.3776
@<TRIPOS>BOND
    1     1     2    1
    2     1     3    1
    3     1     4    1
    4     4     5    1
    5     4     6    1
    6     4     7    1
    7     7     8    1
    8     7     9    1
    9     7    10    1
   10    10    11    1
   11     1    12    1
   12    10    12    1
   13    12    13    1
   14    12    14    1
   15    10    15    1
   16    15    16    1
@<TRIPOS>SUBSTRUCTURE
       1 MOL1            1 RESIDUE      1      MOL     
@<SCITEGIC>MOL_PROPERTY
VConf Rank
SciTegic.value.IntegerValue
465

@<SCITEGIC>MOL_PROPERTY
Conf_Id
SciTegic.value.IntegerValue
20

@<SCITEGIC>MOL_PROPERTY
Delta U+W
SciTegic.value.DoubleValue
-0.483

@<SCITEGIC>MOL_PROPERTY
U+W
SciTegic.value.DoubleValue
2.527

@<SCITEGIC>MOL_PROPERTY
Grad RMS
SciTegic.value.DoubleValue
0.000000

@<SCITEGIC>MOL_PROPERTY
U
SciTegic.value.DoubleValue
4.508

@<SCITEGIC>MOL_PROPERTY
W
SciTegic.value.DoubleValue
-1.981

@<SCITEGIC>MOL_PROPERTY
W(PB)
SciTegic.value.DoubleValue
-3.712

@<SCITEGIC>MOL_PROPERTY
W(SA)
SciTegic.value.DoubleValue
1.732

@<SCITEGIC>MOL_PROPERTY
Valence
SciTegic.value.DoubleValue
14.705

@<SCITEGIC>MOL_PROPERTY
Coulomb
SciTegic.value.DoubleValue
-10.687

@<SCITEGIC>MOL_PROPERTY
VdW
SciTegic.value.DoubleValue
0.490

@<SCITEGIC>MOL_PROPERTY
VdW6
SciTegic.value.DoubleValue
-3.745

@<SCITEGIC>MOL_PROPERTY
VdW12
SciTegic.value.DoubleValue
4.235

@<SCITEGIC>MOL_PROPERTY
Bond
SciTegic.value.DoubleValue
0.068

@<SCITEGIC>MOL_PROPERTY
Angle
SciTegic.value.DoubleValue
3.901

@<SCITEGIC>MOL_PROPERTY
Pdih
SciTegic.value.DoubleValue
10.737

@<SCITEGIC>MOL_PROPERTY
Idih
SciTegic.value.DoubleValue
0.000

@<SCITEGIC>MOL_PROPERTY
Tether
SciTegic.value.DoubleValue
0.000

@<TRIPOS>MOLECULE
guest-4_confgen4.mol2 : confsearch ligand conformer 466
          16          16           1
SMALL
USER_CHARGES
 
@<TRIPOS>ATOM
       1    C1      20.213891   19.238542   23.269591 C.3        1 MOL1        -0.1689
       2    H1      19.536109   19.580870   24.064009 H          1 MOL1         0.0830
       3    H2      21.240866   19.503390   23.555637 H          1 MOL1         0.0830
       4    C2      19.797476   19.866270   21.932324 C.3        1 MOL1        -0.1689
       5    H3      19.485331   20.913837   22.041543 H          1 MOL1         0.0830
       6    H4      20.640846   19.830619   21.228703 H          1 MOL1         0.0830
       7    C3      18.657076   18.964976   21.424671 C.3        1 MOL1        -0.1765
       8    H5      18.611512   18.955094   20.328006 H          1 MOL1         0.0830
       9    H6      17.697697   19.347601   21.798803 H          1 MOL1         0.0830
      10    C4      18.929633   17.556619   21.993814 C.3        1 MOL1         0.1214
      11    H7      19.290589   16.891547   21.195748 H          1 MOL1         0.0787
      12    C5      20.035262   17.724001   23.056547 C.3        1 MOL1        -0.1765
      13    H8      19.791926   17.209567   23.995783 H          1 MOL1         0.0830
      14    H9      20.969090   17.293281   22.672455 H          1 MOL1         0.0830
      15    O1      17.750060   17.031894   22.591443 O.3        1 MOL1        -0.5512
      16    H10     17.082202   16.957426   21.877334 H          1 MOL1         0.3776
@<TRIPOS>BOND
    1     1     2    1
    2     1     3    1
    3     1     4    1
    4     4     5    1
    5     4     6    1
    6     4     7    1
    7     7     8    1
    8     7     9    1
    9     7    10    1
   10    10    11    1
   11     1    12    1
   12    10    12    1
   13    12    13    1
   14    12    14    1
   15    10    15    1
   16    15    16    1
@<TRIPOS>SUBSTRUCTURE
       1 MOL1            1 RESIDUE      1      MOL     
@<SCITEGIC>MOL_PROPERTY
VConf Rank
SciTegic.value.IntegerValue
466

@<SCITEGIC>MOL_PROPERTY
Conf_Id
SciTegic.value.IntegerValue
59

@<SCITEGIC>MOL_PROPERTY
Delta U+W
SciTegic.value.DoubleValue
0.000

@<SCITEGIC>MOL_PROPERTY
U+W
SciTegic.value.DoubleValue
3.010

@<SCITEGIC>MOL_PROPERTY
Grad RMS
SciTegic.value.DoubleValue
0.000000

@<SCITEGIC>MOL_PROPERTY
U
SciTegic.value.DoubleValue
5.843

@<SCITEGIC>MOL_PROPERTY
W
SciTegic.value.DoubleValue
-2.833

@<SCITEGIC>MOL_PROPERTY
W(PB)
SciTegic.value.DoubleValue
-4.568

@<SCITEGIC>MOL_PROPERTY
W(SA)
SciTegic.value.DoubleValue
1.735

@<SCITEGIC>MOL_PROPERTY
Valence
SciTegic.value.DoubleValue
13.789

@<SCITEGIC>MOL_PROPERTY
Coulomb
SciTegic.value.DoubleValue
-8.574

@<SCITEGIC>MOL_PROPERTY
VdW
SciTegic.value.DoubleValue
0.628

@<SCITEGIC>MOL_PROPERTY
VdW6
SciTegic.value.DoubleValue
-3.284

@<SCITEGIC>MOL_PROPERTY
VdW12
SciTegic.value.DoubleValue
3.912

@<SCITEGIC>MOL_PROPERTY
Bond
SciTegic.value.DoubleValue
0.054

@<SCITEGIC>MOL_PROPERTY
Angle
SciTegic.value.DoubleValue
4.034

@<SCITEGIC>MOL_PROPERTY
Pdih
SciTegic.value.DoubleValue
9.702

@<SCITEGIC>MOL_PROPERTY
Idih
SciTegic.value.DoubleValue
0.000

@<SCITEGIC>MOL_PROPERTY
Tether
SciTegic.value.DoubleValue
0.000

@<TRIPOS>MOLECULE
guest-4_confgen4.mol2 : confsearch ligand conformer 467
          16          16           1
SMALL
USER_CHARGES
 
@<TRIPOS>ATOM
       1    C1      18.604043   17.806635   21.460261 C.3        1 MOL1        -0.1689
       2    H1      18.194595   16.787801   21.427262 H          1 MOL1         0.0830
       3    H2      18.122711   18.396200   20.667573 H          1 MOL1         0.0830
       4    C2      20.126745   17.830522   21.269125 C.3        1 MOL1        -0.1689
       5    H3      20.578912   16.986583   21.808561 H          1 MOL1         0.0830
       6    H4      20.418106   17.759295   20.212395 H          1 MOL1         0.0830
       7    C3      20.575277   19.154727   21.914399 C.3        1 MOL1        -0.1765
       8    H5      20.563022   19.953955   21.161958 H          1 MOL1         0.0830
       9    H6      21.596932   19.085485   22.311193 H          1 MOL1         0.0830
      10    C4      19.541696   19.481376   23.012037 C.3        1 MOL1         0.1214
      11    H7      19.180802   20.511351   22.876294 H          1 MOL1         0.0787
      12    C5      18.378331   18.484915   22.823933 C.3        1 MOL1        -0.1765
      13    H8      18.397253   17.723769   23.615818 H          1 MOL1         0.0830
      14    H9      17.404385   18.989518   22.864570 H          1 MOL1         0.0830
      15    O1      20.124883   19.317779   24.299292 O.3        1 MOL1        -0.5512
      16    H10     19.424924   19.526001   24.953686 H          1 MOL1         0.3776
@<TRIPOS>BOND
    1     1     2    1
    2     1     3    1
    3     1     4    1
    4     4     5    1
    5     4     6    1
    6     4     7    1
    7     7     8    1
    8     7     9    1
    9     7    10    1
   10    10    11    1
   11     1    12    1
   12    10    12    1
   13    12    13    1
   14    12    14    1
   15    10    15    1
   16    15    16    1
@<TRIPOS>SUBSTRUCTURE
       1 MOL1            1 RESIDUE      1      MOL     
@<SCITEGIC>MOL_PROPERTY
VConf Rank
SciTegic.value.IntegerValue
467

@<SCITEGIC>MOL_PROPERTY
Conf_Id
SciTegic.value.IntegerValue
33

@<SCITEGIC>MOL_PROPERTY
Delta U+W
SciTegic.value.DoubleValue
0.015

@<SCITEGIC>MOL_PROPERTY
U+W
SciTegic.value.DoubleValue
3.025

@<SCITEGIC>MOL_PROPERTY
Grad RMS
SciTegic.value.DoubleValue
0.000000

@<SCITEGIC>MOL_PROPERTY
U
SciTegic.value.DoubleValue
5.843

@<SCITEGIC>MOL_PROPERTY
W
SciTegic.value.DoubleValue
-2.819

@<SCITEGIC>MOL_PROPERTY
W(PB)
SciTegic.value.DoubleValue
-4.568

@<SCITEGIC>MOL_PROPERTY
W(SA)
SciTegic.value.DoubleValue
1.750

@<SCITEGIC>MOL_PROPERTY
Valence
SciTegic.value.DoubleValue
13.789

@<SCITEGIC>MOL_PROPERTY
Coulomb
SciTegic.value.DoubleValue
-8.574

@<SCITEGIC>MOL_PROPERTY
VdW
SciTegic.value.DoubleValue
0.628

@<SCITEGIC>MOL_PROPERTY
VdW6
SciTegic.value.DoubleValue
-3.284

@<SCITEGIC>MOL_PROPERTY
VdW12
SciTegic.value.DoubleValue
3.913

@<SCITEGIC>MOL_PROPERTY
Bond
SciTegic.value.DoubleValue
0.054

@<SCITEGIC>MOL_PROPERTY
Angle
SciTegic.value.DoubleValue
4.033

@<SCITEGIC>MOL_PROPERTY
Pdih
SciTegic.value.DoubleValue
9.702

@<SCITEGIC>MOL_PROPERTY
Idih
SciTegic.value.DoubleValue
0.000

@<SCITEGIC>MOL_PROPERTY
Tether
SciTegic.value.DoubleValue
0.000

@<TRIPOS>MOLECULE
guest-4_confgen4.mol2 : confsearch ligand conformer 468
          16          16           1
SMALL
USER_CHARGES
 
@<TRIPOS>ATOM
       1    C1      19.892115   18.218982   23.427649 C.3        1 MOL1        -0.1689
       2    H1      19.153316   18.116186   24.234393 H          1 MOL1         0.0830
       3    H2      20.873148   17.941069   23.836717 H          1 MOL1         0.0830
       4    C2      19.889141   19.668299   22.894271 C.3        1 MOL1        -0.1689
       5    H3      19.149668   20.267186   23.443580 H          1 MOL1         0.0830
       6    H4      20.868946   20.148202   23.023407 H          1 MOL1         0.0830
       7    C3      19.504817   19.584577   21.401716 C.3        1 MOL1        -0.1765
       8    H5      20.414014   19.611789   20.786704 H          1 MOL1         0.0830
       9    H6      18.864865   20.420504   21.089156 H          1 MOL1         0.0830
      10    C4      18.817623   18.225164   21.215285 C.3        1 MOL1         0.1214
      11    H7      18.938236   17.848115   20.189483 H          1 MOL1         0.0787
      12    C5      19.510677   17.313792   22.237064 C.3        1 MOL1        -0.1765
      13    H8      18.875275   16.471400   22.541441 H          1 MOL1         0.0830
      14    H9      20.421328   16.899107   21.784989 H          1 MOL1         0.0830
      15    O1      17.443360   18.345651   21.552467 O.3        1 MOL1        -0.5512
      16    H10     17.435224   18.683741   22.471592 H          1 MOL1         0.3776
@<TRIPOS>BOND
    1     1     2    1
    2     1     3    1
    3     1     4    1
    4     4     5    1
    5     4     6    1
    6     4     7    1
    7     7     8    1
    8     7     9    1
    9     7    10    1
   10    10    11    1
   11     1    12    1
   12    10    12    1
   13    12    13    1
   14    12    14    1
   15    10    15    1
   16    15    16    1
@<TRIPOS>SUBSTRUCTURE
       1 MOL1            1 RESIDUE      1      MOL     
@<SCITEGIC>MOL_PROPERTY
VConf Rank
SciTegic.value.IntegerValue
468

@<SCITEGIC>MOL_PROPERTY
Conf_Id
SciTegic.value.IntegerValue
20

@<SCITEGIC>MOL_PROPERTY
Delta U+W
SciTegic.value.DoubleValue
-0.483

@<SCITEGIC>MOL_PROPERTY
U+W
SciTegic.value.DoubleValue
2.527

@<SCITEGIC>MOL_PROPERTY
Grad RMS
SciTegic.value.DoubleValue
0.000000

@<SCITEGIC>MOL_PROPERTY
U
SciTegic.value.DoubleValue
4.508

@<SCITEGIC>MOL_PROPERTY
W
SciTegic.value.DoubleValue
-1.981

@<SCITEGIC>MOL_PROPERTY
W(PB)
SciTegic.value.DoubleValue
-3.712

@<SCITEGIC>MOL_PROPERTY
W(SA)
SciTegic.value.DoubleValue
1.732

@<SCITEGIC>MOL_PROPERTY
Valence
SciTegic.value.DoubleValue
14.705

@<SCITEGIC>MOL_PROPERTY
Coulomb
SciTegic.value.DoubleValue
-10.687

@<SCITEGIC>MOL_PROPERTY
VdW
SciTegic.value.DoubleValue
0.490

@<SCITEGIC>MOL_PROPERTY
VdW6
SciTegic.value.DoubleValue
-3.745

@<SCITEGIC>MOL_PROPERTY
VdW12
SciTegic.value.DoubleValue
4.235

@<SCITEGIC>MOL_PROPERTY
Bond
SciTegic.value.DoubleValue
0.068

@<SCITEGIC>MOL_PROPERTY
Angle
SciTegic.value.DoubleValue
3.901

@<SCITEGIC>MOL_PROPERTY
Pdih
SciTegic.value.DoubleValue
10.737

@<SCITEGIC>MOL_PROPERTY
Idih
SciTegic.value.DoubleValue
0.000

@<SCITEGIC>MOL_PROPERTY
Tether
SciTegic.value.DoubleValue
0.000

@<TRIPOS>MOLECULE
guest-4_confgen4.mol2 : confsearch ligand conformer 469
          16          16           1
SMALL
USER_CHARGES
 
@<TRIPOS>ATOM
       1    C1      18.061039   19.197065   22.180199 C.3        1 MOL1        -0.1689
       2    H1      17.341682   18.370750   22.094138 H          1 MOL1         0.0830
       3    H2      17.500743   20.141882   22.185961 H          1 MOL1         0.0830
       4    C2      19.071304   19.121679   21.027199 C.3        1 MOL1        -0.1689
       5    H3      18.600352   18.835620   20.076865 H          1 MOL1         0.0830
       6    H4      19.551356   20.100874   20.891731 H          1 MOL1         0.0830
       7    C3      20.113798   18.091121   21.498062 C.3        1 MOL1        -0.1765
       8    H5      21.102818   18.295936   21.068252 H          1 MOL1         0.0830
       9    H6      19.805675   17.088106   21.172787 H          1 MOL1         0.0830
      10    C4      20.137686   18.169671   23.039146 C.3        1 MOL1         0.1214
      11    H7      21.054294   18.675479   23.376051 H          1 MOL1         0.0787
      12    C5      18.911296   19.010325   23.450365 C.3        1 MOL1        -0.1765
      13    H8      18.334469   18.538991   24.257295 H          1 MOL1         0.0830
      14    H9      19.253058   19.988798   23.812126 H          1 MOL1         0.0830
      15    O1      20.047987   16.864768   23.598673 O.3        1 MOL1        -0.5512
      16    H10     20.842010   16.374469   23.297562 H          1 MOL1         0.3776
@<TRIPOS>BOND
    1     1     2    1
    2     1     3    1
    3     1     4    1
    4     4     5    1
    5     4     6    1
    6     4     7    1
    7     7     8    1
    8     7     9    1
    9     7    10    1
   10    10    11    1
   11     1    12    1
   12    10    12    1
   13    12    13    1
   14    12    14    1
   15    10    15    1
   16    15    16    1
@<TRIPOS>SUBSTRUCTURE
       1 MOL1            1 RESIDUE      1      MOL     
@<SCITEGIC>MOL_PROPERTY
VConf Rank
SciTegic.value.IntegerValue
469

@<SCITEGIC>MOL_PROPERTY
Conf_Id
SciTegic.value.IntegerValue
59

@<SCITEGIC>MOL_PROPERTY
Delta U+W
SciTegic.value.DoubleValue
0.000

@<SCITEGIC>MOL_PROPERTY
U+W
SciTegic.value.DoubleValue
3.010

@<SCITEGIC>MOL_PROPERTY
Grad RMS
SciTegic.value.DoubleValue
0.000000

@<SCITEGIC>MOL_PROPERTY
U
SciTegic.value.DoubleValue
5.843

@<SCITEGIC>MOL_PROPERTY
W
SciTegic.value.DoubleValue
-2.833

@<SCITEGIC>MOL_PROPERTY
W(PB)
SciTegic.value.DoubleValue
-4.568

@<SCITEGIC>MOL_PROPERTY
W(SA)
SciTegic.value.DoubleValue
1.735

@<SCITEGIC>MOL_PROPERTY
Valence
SciTegic.value.DoubleValue
13.789

@<SCITEGIC>MOL_PROPERTY
Coulomb
SciTegic.value.DoubleValue
-8.574

@<SCITEGIC>MOL_PROPERTY
VdW
SciTegic.value.DoubleValue
0.628

@<SCITEGIC>MOL_PROPERTY
VdW6
SciTegic.value.DoubleValue
-3.284

@<SCITEGIC>MOL_PROPERTY
VdW12
SciTegic.value.DoubleValue
3.912

@<SCITEGIC>MOL_PROPERTY
Bond
SciTegic.value.DoubleValue
0.054

@<SCITEGIC>MOL_PROPERTY
Angle
SciTegic.value.DoubleValue
4.034

@<SCITEGIC>MOL_PROPERTY
Pdih
SciTegic.value.DoubleValue
9.702

@<SCITEGIC>MOL_PROPERTY
Idih
SciTegic.value.DoubleValue
0.000

@<SCITEGIC>MOL_PROPERTY
Tether
SciTegic.value.DoubleValue
0.000

@<TRIPOS>MOLECULE
guest-4_confgen4.mol2 : confsearch ligand conformer 470
          16          16           1
SMALL
USER_CHARGES
 
@<TRIPOS>ATOM
       1    C1      19.857472   19.935620   21.911800 C.3        1 MOL1        -0.1689
       2    H1      20.715796   20.443570   21.451338 H          1 MOL1         0.0830
       3    H2      19.036784   20.660883   22.001734 H          1 MOL1         0.0830
       4    C2      20.192308   19.360755   23.294963 C.3        1 MOL1        -0.1689
       5    H3      21.203832   18.931470   23.280341 H          1 MOL1         0.0830
       6    H4      20.152765   20.121586   24.086301 H          1 MOL1         0.0830
       7    C3      19.159023   18.238819   23.506287 C.3        1 MOL1        -0.1765
       8    H5      18.266146   18.647866   23.996731 H          1 MOL1         0.0830
       9    H6      19.555208   17.439682   24.146941 H          1 MOL1         0.0830
      10    C4      18.772350   17.727047   22.103301 C.3        1 MOL1         0.1214
      11    H7      17.676823   17.724499   22.006691 H          1 MOL1         0.0787
      12    C5      19.389351   18.718054   21.093871 C.3        1 MOL1        -0.1765
      13    H8      20.254510   18.262324   20.593281 H          1 MOL1         0.0830
      14    H9      18.666671   19.008357   20.320370 H          1 MOL1         0.0830
      15    O1      19.299201   16.422125   21.894727 O.3        1 MOL1        -0.5512
      16    H10     19.034376   16.153254   20.989682 H          1 MOL1         0.3776
@<TRIPOS>BOND
    1     1     2    1
    2     1     3    1
    3     1     4    1
    4     4     5    1
    5     4     6    1
    6     4     7    1
    7     7     8    1
    8     7     9    1
    9     7    10    1
   10    10    11    1
   11     1    12    1
   12    10    12    1
   13    12    13    1
   14    12    14    1
   15    10    15    1
   16    15    16    1
@<TRIPOS>SUBSTRUCTURE
       1 MOL1            1 RESIDUE      1      MOL     
@<SCITEGIC>MOL_PROPERTY
VConf Rank
SciTegic.value.IntegerValue
470

@<SCITEGIC>MOL_PROPERTY
Conf_Id
SciTegic.value.IntegerValue
33

@<SCITEGIC>MOL_PROPERTY
Delta U+W
SciTegic.value.DoubleValue
0.015

@<SCITEGIC>MOL_PROPERTY
U+W
SciTegic.value.DoubleValue
3.025

@<SCITEGIC>MOL_PROPERTY
Grad RMS
SciTegic.value.DoubleValue
0.000000

@<SCITEGIC>MOL_PROPERTY
U
SciTegic.value.DoubleValue
5.843

@<SCITEGIC>MOL_PROPERTY
W
SciTegic.value.DoubleValue
-2.819

@<SCITEGIC>MOL_PROPERTY
W(PB)
SciTegic.value.DoubleValue
-4.568

@<SCITEGIC>MOL_PROPERTY
W(SA)
SciTegic.value.DoubleValue
1.750

@<SCITEGIC>MOL_PROPERTY
Valence
SciTegic.value.DoubleValue
13.789

@<SCITEGIC>MOL_PROPERTY
Coulomb
SciTegic.value.DoubleValue
-8.574

@<SCITEGIC>MOL_PROPERTY
VdW
SciTegic.value.DoubleValue
0.628

@<SCITEGIC>MOL_PROPERTY
VdW6
SciTegic.value.DoubleValue
-3.284

@<SCITEGIC>MOL_PROPERTY
VdW12
SciTegic.value.DoubleValue
3.913

@<SCITEGIC>MOL_PROPERTY
Bond
SciTegic.value.DoubleValue
0.054

@<SCITEGIC>MOL_PROPERTY
Angle
SciTegic.value.DoubleValue
4.033

@<SCITEGIC>MOL_PROPERTY
Pdih
SciTegic.value.DoubleValue
9.702

@<SCITEGIC>MOL_PROPERTY
Idih
SciTegic.value.DoubleValue
0.000

@<SCITEGIC>MOL_PROPERTY
Tether
SciTegic.value.DoubleValue
0.000

@<TRIPOS>MOLECULE
guest-4_confgen4.mol2 : confsearch ligand conformer 471
          16          16           1
SMALL
USER_CHARGES
 
@<TRIPOS>ATOM
       1    C1      20.460076   18.884340   22.992585 C.3        1 MOL1        -0.1689
       2    H1      20.774144   19.936721   22.959691 H          1 MOL1         0.0830
       3    H2      21.149285   18.351603   23.662046 H          1 MOL1         0.0830
       4    C2      20.476036   18.286707   21.568646 C.3        1 MOL1        -0.1689
       5    H3      20.798840   19.049532   20.846758 H          1 MOL1         0.0830
       6    H4      21.172867   17.440668   21.493504 H          1 MOL1         0.0830
       7    C3      19.029469   17.842703   21.264113 C.3        1 MOL1        -0.1765
       8    H5      18.927367   16.766845   21.458341 H          1 MOL1         0.0830
       9    H6      18.751047   18.021067   20.216891 H          1 MOL1         0.0830
      10    C4      18.133310   18.613048   22.243123 C.3        1 MOL1         0.1214
      11    H7      17.207812   18.061937   22.463830 H          1 MOL1         0.0787
      12    C5      19.004705   18.777903   23.495501 C.3        1 MOL1        -0.1765
      13    H8      18.707689   19.647044   24.097481 H          1 MOL1         0.0830
      14    H9      18.898238   17.883974   24.124133 H          1 MOL1         0.0830
      15    O1      17.843572   19.894114   21.703004 O.3        1 MOL1        -0.5512
      16    H10     18.717296   20.305556   21.540267 H          1 MOL1         0.3776
@<TRIPOS>BOND
    1     1     2    1
    2     1     3    1
    3     1     4    1
    4     4     5    1
    5     4     6    1
    6     4     7    1
    7     7     8    1
    8     7     9    1
    9     7    10    1
   10    10    11    1
   11     1    12    1
   12    10    12    1
   13    12    13    1
   14    12    14    1
   15    10    15    1
   16    15    16    1
@<TRIPOS>SUBSTRUCTURE
       1 MOL1            1 RESIDUE      1      MOL     
@<SCITEGIC>MOL_PROPERTY
VConf Rank
SciTegic.value.IntegerValue
471

@<SCITEGIC>MOL_PROPERTY
Conf_Id
SciTegic.value.IntegerValue
20

@<SCITEGIC>MOL_PROPERTY
Delta U+W
SciTegic.value.DoubleValue
-0.483

@<SCITEGIC>MOL_PROPERTY
U+W
SciTegic.value.DoubleValue
2.527

@<SCITEGIC>MOL_PROPERTY
Grad RMS
SciTegic.value.DoubleValue
0.000000

@<SCITEGIC>MOL_PROPERTY
U
SciTegic.value.DoubleValue
4.508

@<SCITEGIC>MOL_PROPERTY
W
SciTegic.value.DoubleValue
-1.981

@<SCITEGIC>MOL_PROPERTY
W(PB)
SciTegic.value.DoubleValue
-3.712

@<SCITEGIC>MOL_PROPERTY
W(SA)
SciTegic.value.DoubleValue
1.732

@<SCITEGIC>MOL_PROPERTY
Valence
SciTegic.value.DoubleValue
14.705

@<SCITEGIC>MOL_PROPERTY
Coulomb
SciTegic.value.DoubleValue
-10.687

@<SCITEGIC>MOL_PROPERTY
VdW
SciTegic.value.DoubleValue
0.490

@<SCITEGIC>MOL_PROPERTY
VdW6
SciTegic.value.DoubleValue
-3.745

@<SCITEGIC>MOL_PROPERTY
VdW12
SciTegic.value.DoubleValue
4.235

@<SCITEGIC>MOL_PROPERTY
Bond
SciTegic.value.DoubleValue
0.068

@<SCITEGIC>MOL_PROPERTY
Angle
SciTegic.value.DoubleValue
3.901

@<SCITEGIC>MOL_PROPERTY
Pdih
SciTegic.value.DoubleValue
10.737

@<SCITEGIC>MOL_PROPERTY
Idih
SciTegic.value.DoubleValue
0.000

@<SCITEGIC>MOL_PROPERTY
Tether
SciTegic.value.DoubleValue
0.000

@<TRIPOS>MOLECULE
guest-4_confgen4.mol2 : confsearch ligand conformer 472
          16          16           1
SMALL
USER_CHARGES
 
@<TRIPOS>ATOM
       1    C1      19.716383   17.145194   22.332618 C.3        1 MOL1        -0.1689
       2    H1      18.811121   16.626166   22.677275 H          1 MOL1         0.0830
       3    H2      20.477894   16.389314   22.097265 H          1 MOL1         0.0830
       4    C2      20.184439   18.133190   23.409890 C.3        1 MOL1        -0.1689
       5    H3      20.078477   17.726172   24.424714 H          1 MOL1         0.0830
       6    H4      21.242484   18.382332   23.248354 H          1 MOL1         0.0830
       7    C3      19.314769   19.383916   23.186476 C.3        1 MOL1        -0.1765
       8    H5      19.839812   20.297634   23.493551 H          1 MOL1         0.0830
       9    H6      18.399498   19.302200   23.788461 H          1 MOL1         0.0830
      10    C4      18.965801   19.408134   21.683374 C.3        1 MOL1         0.1214
      11    H7      19.544140   20.193593   21.175341 H          1 MOL1         0.0787
      12    C5      19.373131   18.030760   21.120562 C.3        1 MOL1        -0.1765
      13    H8      18.583177   17.582564   20.503218 H          1 MOL1         0.0830
      14    H9      20.262584   18.151155   20.488534 H          1 MOL1         0.0830
      15    O1      17.569689   19.616914   21.506818 O.3        1 MOL1        -0.5512
      16    H10     17.366168   20.496297   21.889961 H          1 MOL1         0.3776
@<TRIPOS>BOND
    1     1     2    1
    2     1     3    1
    3     1     4    1
    4     4     5    1
    5     4     6    1
    6     4     7    1
    7     7     8    1
    8     7     9    1
    9     7    10    1
   10    10    11    1
   11     1    12    1
   12    10    12    1
   13    12    13    1
   14    12    14    1
   15    10    15    1
   16    15    16    1
@<TRIPOS>SUBSTRUCTURE
       1 MOL1            1 RESIDUE      1      MOL     
@<SCITEGIC>MOL_PROPERTY
VConf Rank
SciTegic.value.IntegerValue
472

@<SCITEGIC>MOL_PROPERTY
Conf_Id
SciTegic.value.IntegerValue
59

@<SCITEGIC>MOL_PROPERTY
Delta U+W
SciTegic.value.DoubleValue
0.000

@<SCITEGIC>MOL_PROPERTY
U+W
SciTegic.value.DoubleValue
3.010

@<SCITEGIC>MOL_PROPERTY
Grad RMS
SciTegic.value.DoubleValue
0.000000

@<SCITEGIC>MOL_PROPERTY
U
SciTegic.value.DoubleValue
5.843

@<SCITEGIC>MOL_PROPERTY
W
SciTegic.value.DoubleValue
-2.833

@<SCITEGIC>MOL_PROPERTY
W(PB)
SciTegic.value.DoubleValue
-4.568

@<SCITEGIC>MOL_PROPERTY
W(SA)
SciTegic.value.DoubleValue
1.735

@<SCITEGIC>MOL_PROPERTY
Valence
SciTegic.value.DoubleValue
13.789

@<SCITEGIC>MOL_PROPERTY
Coulomb
SciTegic.value.DoubleValue
-8.574

@<SCITEGIC>MOL_PROPERTY
VdW
SciTegic.value.DoubleValue
0.628

@<SCITEGIC>MOL_PROPERTY
VdW6
SciTegic.value.DoubleValue
-3.284

@<SCITEGIC>MOL_PROPERTY
VdW12
SciTegic.value.DoubleValue
3.912

@<SCITEGIC>MOL_PROPERTY
Bond
SciTegic.value.DoubleValue
0.054

@<SCITEGIC>MOL_PROPERTY
Angle
SciTegic.value.DoubleValue
4.034

@<SCITEGIC>MOL_PROPERTY
Pdih
SciTegic.value.DoubleValue
9.702

@<SCITEGIC>MOL_PROPERTY
Idih
SciTegic.value.DoubleValue
0.000

@<SCITEGIC>MOL_PROPERTY
Tether
SciTegic.value.DoubleValue
0.000

@<TRIPOS>MOLECULE
guest-4_confgen4.mol2 : confsearch ligand conformer 473
          16          16           1
SMALL
USER_CHARGES
 
@<TRIPOS>ATOM
       1    C1      18.100173   18.212186   22.562525 C.3        1 MOL1        -0.1689
       2    H1      17.100091   18.659158   22.645043 H          1 MOL1         0.0830
       3    H2      17.991823   17.119138   22.596117 H          1 MOL1         0.0830
       4    C2      19.040013   18.672562   23.685237 C.3        1 MOL1        -0.1689
       5    H3      18.877108   19.740438   23.887186 H          1 MOL1         0.0830
       6    H4      18.880860   18.117428   24.619655 H          1 MOL1         0.0830
       7    C3      20.454397   18.465987   23.112593 C.3        1 MOL1        -0.1765
       8    H5      20.807876   17.456366   23.359175 H          1 MOL1         0.0830
       9    H6      21.170593   19.182994   23.535657 H          1 MOL1         0.0830
      10    C4      20.331783   18.595734   21.580297 C.3        1 MOL1         0.1214
      11    H7      20.798900   17.721857   21.103160 H          1 MOL1         0.0787
      12    C5      18.821100   18.624584   21.266067 C.3        1 MOL1        -0.1765
      13    H8      18.510132   19.639920   20.984690 H          1 MOL1         0.0830
      14    H9      18.568858   17.952482   20.435705 H          1 MOL1         0.0830
      15    O1      20.948032   19.799667   21.139074 O.3        1 MOL1        -0.5512
      16    H10     20.830877   19.835410   20.166178 H          1 MOL1         0.3776
@<TRIPOS>BOND
    1     1     2    1
    2     1     3    1
    3     1     4    1
    4     4     5    1
    5     4     6    1
    6     4     7    1
    7     7     8    1
    8     7     9    1
    9     7    10    1
   10    10    11    1
   11     1    12    1
   12    10    12    1
   13    12    13    1
   14    12    14    1
   15    10    15    1
   16    15    16    1
@<TRIPOS>SUBSTRUCTURE
       1 MOL1            1 RESIDUE      1      MOL     
@<SCITEGIC>MOL_PROPERTY
VConf Rank
SciTegic.value.IntegerValue
473

@<SCITEGIC>MOL_PROPERTY
Conf_Id
SciTegic.value.IntegerValue
33

@<SCITEGIC>MOL_PROPERTY
Delta U+W
SciTegic.value.DoubleValue
0.015

@<SCITEGIC>MOL_PROPERTY
U+W
SciTegic.value.DoubleValue
3.025

@<SCITEGIC>MOL_PROPERTY
Grad RMS
SciTegic.value.DoubleValue
0.000000

@<SCITEGIC>MOL_PROPERTY
U
SciTegic.value.DoubleValue
5.843

@<SCITEGIC>MOL_PROPERTY
W
SciTegic.value.DoubleValue
-2.819

@<SCITEGIC>MOL_PROPERTY
W(PB)
SciTegic.value.DoubleValue
-4.568

@<SCITEGIC>MOL_PROPERTY
W(SA)
SciTegic.value.DoubleValue
1.750

@<SCITEGIC>MOL_PROPERTY
Valence
SciTegic.value.DoubleValue
13.789

@<SCITEGIC>MOL_PROPERTY
Coulomb
SciTegic.value.DoubleValue
-8.574

@<SCITEGIC>MOL_PROPERTY
VdW
SciTegic.value.DoubleValue
0.628

@<SCITEGIC>MOL_PROPERTY
VdW6
SciTegic.value.DoubleValue
-3.284

@<SCITEGIC>MOL_PROPERTY
VdW12
SciTegic.value.DoubleValue
3.913

@<SCITEGIC>MOL_PROPERTY
Bond
SciTegic.value.DoubleValue
0.054

@<SCITEGIC>MOL_PROPERTY
Angle
SciTegic.value.DoubleValue
4.033

@<SCITEGIC>MOL_PROPERTY
Pdih
SciTegic.value.DoubleValue
9.702

@<SCITEGIC>MOL_PROPERTY
Idih
SciTegic.value.DoubleValue
0.000

@<SCITEGIC>MOL_PROPERTY
Tether
SciTegic.value.DoubleValue
0.000

@<TRIPOS>MOLECULE
guest-4_confgen4.mol2 : confsearch ligand conformer 474
          16          16           1
SMALL
USER_CHARGES
 
@<TRIPOS>ATOM
       1    C1      19.068060   17.319728   22.410874 C.3        1 MOL1        -0.1689
       2    H1      19.155432   16.722001   21.493096 H          1 MOL1         0.0830
       3    H2      18.754295   16.645210   23.219313 H          1 MOL1         0.0830
       4    C2      18.051613   18.462845   22.198411 C.3        1 MOL1        -0.1689
       5    H3      17.646272   18.417719   21.178172 H          1 MOL1         0.0830
       6    H4      17.206620   18.386868   22.896419 H          1 MOL1         0.0830
       7    C3      18.826237   19.781588   22.406519 C.3        1 MOL1        -0.1765
       8    H5      18.662824   20.145517   23.429492 H          1 MOL1         0.0830
       9    H6      18.499406   20.569842   21.715257 H          1 MOL1         0.0830
      10    C4      20.310899   19.434577   22.232291 C.3        1 MOL1         0.1214
      11    H7      20.955606   20.114959   22.807110 H          1 MOL1         0.0787
      12    C5      20.418445   17.990620   22.740601 C.3        1 MOL1        -0.1765
      13    H8      21.268485   17.455539   22.296615 H          1 MOL1         0.0830
      14    H9      20.564613   18.005639   23.828733 H          1 MOL1         0.0830
      15    O1      20.640577   19.470074   20.851400 O.3        1 MOL1        -0.5512
      16    H10     20.022368   18.841040   20.425611 H          1 MOL1         0.3776
@<TRIPOS>BOND
    1     1     2    1
    2     1     3    1
    3     1     4    1
    4     4     5    1
    5     4     6    1
    6     4     7    1
    7     7     8    1
    8     7     9    1
    9     7    10    1
   10    10    11    1
   11     1    12    1
   12    10    12    1
   13    12    13    1
   14    12    14    1
   15    10    15    1
   16    15    16    1
@<TRIPOS>SUBSTRUCTURE
       1 MOL1            1 RESIDUE      1      MOL     
@<SCITEGIC>MOL_PROPERTY
VConf Rank
SciTegic.value.IntegerValue
474

@<SCITEGIC>MOL_PROPERTY
Conf_Id
SciTegic.value.IntegerValue
20

@<SCITEGIC>MOL_PROPERTY
Delta U+W
SciTegic.value.DoubleValue
-0.483

@<SCITEGIC>MOL_PROPERTY
U+W
SciTegic.value.DoubleValue
2.527

@<SCITEGIC>MOL_PROPERTY
Grad RMS
SciTegic.value.DoubleValue
0.000000

@<SCITEGIC>MOL_PROPERTY
U
SciTegic.value.DoubleValue
4.508

@<SCITEGIC>MOL_PROPERTY
W
SciTegic.value.DoubleValue
-1.981

@<SCITEGIC>MOL_PROPERTY
W(PB)
SciTegic.value.DoubleValue
-3.712

@<SCITEGIC>MOL_PROPERTY
W(SA)
SciTegic.value.DoubleValue
1.732

@<SCITEGIC>MOL_PROPERTY
Valence
SciTegic.value.DoubleValue
14.705

@<SCITEGIC>MOL_PROPERTY
Coulomb
SciTegic.value.DoubleValue
-10.687

@<SCITEGIC>MOL_PROPERTY
VdW
SciTegic.value.DoubleValue
0.490

@<SCITEGIC>MOL_PROPERTY
VdW6
SciTegic.value.DoubleValue
-3.745

@<SCITEGIC>MOL_PROPERTY
VdW12
SciTegic.value.DoubleValue
4.235

@<SCITEGIC>MOL_PROPERTY
Bond
SciTegic.value.DoubleValue
0.068

@<SCITEGIC>MOL_PROPERTY
Angle
SciTegic.value.DoubleValue
3.901

@<SCITEGIC>MOL_PROPERTY
Pdih
SciTegic.value.DoubleValue
10.737

@<SCITEGIC>MOL_PROPERTY
Idih
SciTegic.value.DoubleValue
0.000

@<SCITEGIC>MOL_PROPERTY
Tether
SciTegic.value.DoubleValue
0.000

@<TRIPOS>MOLECULE
guest-4_confgen4.mol2 : confsearch ligand conformer 475
          16          16           1
SMALL
USER_CHARGES
 
@<TRIPOS>ATOM
       1    C1      18.775444   17.299015   22.760245 C.3        1 MOL1        -0.1689
       2    H1      17.689958   17.437934   22.659761 H          1 MOL1         0.0830
       3    H2      18.961058   16.269422   23.095105 H          1 MOL1         0.0830
       4    C2      19.339602   18.342792   23.733888 C.3        1 MOL1        -0.1689
       5    H3      18.676811   18.514253   24.592997 H          1 MOL1         0.0830
       6    H4      20.314064   18.005410   24.113657 H          1 MOL1         0.0830
       7    C3      19.524620   19.607216   22.875076 C.3        1 MOL1        -0.1765
       8    H5      20.346878   20.230127   23.250203 H          1 MOL1         0.0830
       9    H6      18.604747   20.206805   22.908441 H          1 MOL1         0.0830
      10    C4      19.793295   19.119797   21.435661 C.3        1 MOL1         0.1214
      11    H7      20.854067   19.261364   21.182208 H          1 MOL1         0.0787
      12    C5      19.461914   17.613240   21.418175 C.3        1 MOL1        -0.1765
      13    H8      18.828264   17.335709   20.565247 H          1 MOL1         0.0830
      14    H9      20.396123   17.042142   21.339557 H          1 MOL1         0.0830
      15    O1      18.958989   19.816355   20.517713 O.3        1 MOL1        -0.5512
      16    H10     19.203732   20.763952   20.578475 H          1 MOL1         0.3776
@<TRIPOS>BOND
    1     1     2    1
    2     1     3    1
    3     1     4    1
    4     4     5    1
    5     4     6    1
    6     4     7    1
    7     7     8    1
    8     7     9    1
    9     7    10    1
   10    10    11    1
   11     1    12    1
   12    10    12    1
   13    12    13    1
   14    12    14    1
   15    10    15    1
   16    15    16    1
@<TRIPOS>SUBSTRUCTURE
       1 MOL1            1 RESIDUE      1      MOL     
@<SCITEGIC>MOL_PROPERTY
VConf Rank
SciTegic.value.IntegerValue
475

@<SCITEGIC>MOL_PROPERTY
Conf_Id
SciTegic.value.IntegerValue
59

@<SCITEGIC>MOL_PROPERTY
Delta U+W
SciTegic.value.DoubleValue
0.000

@<SCITEGIC>MOL_PROPERTY
U+W
SciTegic.value.DoubleValue
3.010

@<SCITEGIC>MOL_PROPERTY
Grad RMS
SciTegic.value.DoubleValue
0.000000

@<SCITEGIC>MOL_PROPERTY
U
SciTegic.value.DoubleValue
5.843

@<SCITEGIC>MOL_PROPERTY
W
SciTegic.value.DoubleValue
-2.833

@<SCITEGIC>MOL_PROPERTY
W(PB)
SciTegic.value.DoubleValue
-4.568

@<SCITEGIC>MOL_PROPERTY
W(SA)
SciTegic.value.DoubleValue
1.735

@<SCITEGIC>MOL_PROPERTY
Valence
SciTegic.value.DoubleValue
13.789

@<SCITEGIC>MOL_PROPERTY
Coulomb
SciTegic.value.DoubleValue
-8.574

@<SCITEGIC>MOL_PROPERTY
VdW
SciTegic.value.DoubleValue
0.628

@<SCITEGIC>MOL_PROPERTY
VdW6
SciTegic.value.DoubleValue
-3.284

@<SCITEGIC>MOL_PROPERTY
VdW12
SciTegic.value.DoubleValue
3.912

@<SCITEGIC>MOL_PROPERTY
Bond
SciTegic.value.DoubleValue
0.054

@<SCITEGIC>MOL_PROPERTY
Angle
SciTegic.value.DoubleValue
4.034

@<SCITEGIC>MOL_PROPERTY
Pdih
SciTegic.value.DoubleValue
9.702

@<SCITEGIC>MOL_PROPERTY
Idih
SciTegic.value.DoubleValue
0.000

@<SCITEGIC>MOL_PROPERTY
Tether
SciTegic.value.DoubleValue
0.000

@<TRIPOS>MOLECULE
guest-4_confgen4.mol2 : confsearch ligand conformer 476
          16          16           1
SMALL
USER_CHARGES
 
@<TRIPOS>ATOM
       1    C1      18.428945   18.954684   23.239271 C.3        1 MOL1        -0.1689
       2    H1      17.691580   19.749162   23.417751 H          1 MOL1         0.0830
       3    H2      18.234595   18.139534   23.950172 H          1 MOL1         0.0830
       4    C2      19.872348   19.449937   23.403711 C.3        1 MOL1        -0.1689
       5    H3      19.966065   20.459153   22.979000 H          1 MOL1         0.0830
       6    H4      20.185195   19.488979   24.455968 H          1 MOL1         0.0830
       7    C3      20.715229   18.461991   22.576311 C.3        1 MOL1        -0.1765
       8    H5      21.030218   17.624195   23.211894 H          1 MOL1         0.0830
       9    H6      21.621297   18.938111   22.178355 H          1 MOL1         0.0830
      10    C4      19.795558   17.927636   21.458962 C.3        1 MOL1         0.1214
      11    H7      19.827276   16.828314   21.456993 H          1 MOL1         0.0787
      12    C5      18.370985   18.414384   21.798671 C.3        1 MOL1        -0.1765
      13    H8      18.073117   19.224131   21.118696 H          1 MOL1         0.0830
      14    H9      17.634840   17.605828   21.702893 H          1 MOL1         0.0830
      15    O1      20.203610   18.445346   20.198260 O.3        1 MOL1        -0.5512
      16    H10     19.581755   18.084527   19.531450 H          1 MOL1         0.3776
@<TRIPOS>BOND
    1     1     2    1
    2     1     3    1
    3     1     4    1
    4     4     5    1
    5     4     6    1
    6     4     7    1
    7     7     8    1
    8     7     9    1
    9     7    10    1
   10    10    11    1
   11     1    12    1
   12    10    12    1
   13    12    13    1
   14    12    14    1
   15    10    15    1
   16    15    16    1
@<TRIPOS>SUBSTRUCTURE
       1 MOL1            1 RESIDUE      1      MOL     
@<SCITEGIC>MOL_PROPERTY
VConf Rank
SciTegic.value.IntegerValue
476

@<SCITEGIC>MOL_PROPERTY
Conf_Id
SciTegic.value.IntegerValue
33

@<SCITEGIC>MOL_PROPERTY
Delta U+W
SciTegic.value.DoubleValue
0.015

@<SCITEGIC>MOL_PROPERTY
U+W
SciTegic.value.DoubleValue
3.025

@<SCITEGIC>MOL_PROPERTY
Grad RMS
SciTegic.value.DoubleValue
0.000000

@<SCITEGIC>MOL_PROPERTY
U
SciTegic.value.DoubleValue
5.843

@<SCITEGIC>MOL_PROPERTY
W
SciTegic.value.DoubleValue
-2.819

@<SCITEGIC>MOL_PROPERTY
W(PB)
SciTegic.value.DoubleValue
-4.568

@<SCITEGIC>MOL_PROPERTY
W(SA)
SciTegic.value.DoubleValue
1.750

@<SCITEGIC>MOL_PROPERTY
Valence
SciTegic.value.DoubleValue
13.789

@<SCITEGIC>MOL_PROPERTY
Coulomb
SciTegic.value.DoubleValue
-8.574

@<SCITEGIC>MOL_PROPERTY
VdW
SciTegic.value.DoubleValue
0.628

@<SCITEGIC>MOL_PROPERTY
VdW6
SciTegic.value.DoubleValue
-3.284

@<SCITEGIC>MOL_PROPERTY
VdW12
SciTegic.value.DoubleValue
3.913

@<SCITEGIC>MOL_PROPERTY
Bond
SciTegic.value.DoubleValue
0.054

@<SCITEGIC>MOL_PROPERTY
Angle
SciTegic.value.DoubleValue
4.033

@<SCITEGIC>MOL_PROPERTY
Pdih
SciTegic.value.DoubleValue
9.702

@<SCITEGIC>MOL_PROPERTY
Idih
SciTegic.value.DoubleValue
0.000

@<SCITEGIC>MOL_PROPERTY
Tether
SciTegic.value.DoubleValue
0.000

@<TRIPOS>MOLECULE
guest-4_confgen4.mol2 : confsearch ligand conformer 477
          16          16           1
SMALL
USER_CHARGES
 
@<TRIPOS>ATOM
       1    C1      20.696314   18.748163   22.089019 C.3        1 MOL1        -0.1689
       2    H1      20.998315   19.712242   21.657078 H          1 MOL1         0.0830
       3    H2      21.609210   18.166481   22.276806 H          1 MOL1         0.0830
       4    C2      19.744218   18.013658   21.119979 C.3        1 MOL1        -0.1689
       5    H3      19.586274   18.621770   20.218602 H          1 MOL1         0.0830
       6    H4      20.158632   17.047259   20.801647 H          1 MOL1         0.0830
       7    C3      18.411657   17.824043   21.875468 C.3        1 MOL1        -0.1765
       8    H5      18.372958   16.813456   22.303062 H          1 MOL1         0.0830
       9    H6      17.539977   17.942283   21.218050 H          1 MOL1         0.0830
      10    C4      18.421221   18.848500   23.018004 C.3        1 MOL1         0.1214
      11    H7      17.814771   18.509717   23.870311 H          1 MOL1         0.0787
      12    C5      19.903724   18.973713   23.394119 C.3        1 MOL1        -0.1765
      13    H8      20.134564   19.941308   23.859390 H          1 MOL1         0.0830
      14    H9      20.155835   18.186724   24.117107 H          1 MOL1         0.0830
      15    O1      17.955446   20.098059   22.529676 O.3        1 MOL1        -0.5512
      16    H10     18.548635   20.316388   21.781598 H          1 MOL1         0.3776
@<TRIPOS>BOND
    1     1     2    1
    2     1     3    1
    3     1     4    1
    4     4     5    1
    5     4     6    1
    6     4     7    1
    7     7     8    1
    8     7     9    1
    9     7    10    1
   10    10    11    1
   11     1    12    1
   12    10    12    1
   13    12    13    1
   14    12    14    1
   15    10    15    1
   16    15    16    1
@<TRIPOS>SUBSTRUCTURE
       1 MOL1            1 RESIDUE      1      MOL     
@<SCITEGIC>MOL_PROPERTY
VConf Rank
SciTegic.value.IntegerValue
477

@<SCITEGIC>MOL_PROPERTY
Conf_Id
SciTegic.value.IntegerValue
20

@<SCITEGIC>MOL_PROPERTY
Delta U+W
SciTegic.value.DoubleValue
-0.483

@<SCITEGIC>MOL_PROPERTY
U+W
SciTegic.value.DoubleValue
2.527

@<SCITEGIC>MOL_PROPERTY
Grad RMS
SciTegic.value.DoubleValue
0.000000

@<SCITEGIC>MOL_PROPERTY
U
SciTegic.value.DoubleValue
4.508

@<SCITEGIC>MOL_PROPERTY
W
SciTegic.value.DoubleValue
-1.981

@<SCITEGIC>MOL_PROPERTY
W(PB)
SciTegic.value.DoubleValue
-3.712

@<SCITEGIC>MOL_PROPERTY
W(SA)
SciTegic.value.DoubleValue
1.732

@<SCITEGIC>MOL_PROPERTY
Valence
SciTegic.value.DoubleValue
14.705

@<SCITEGIC>MOL_PROPERTY
Coulomb
SciTegic.value.DoubleValue
-10.687

@<SCITEGIC>MOL_PROPERTY
VdW
SciTegic.value.DoubleValue
0.490

@<SCITEGIC>MOL_PROPERTY
VdW6
SciTegic.value.DoubleValue
-3.745

@<SCITEGIC>MOL_PROPERTY
VdW12
SciTegic.value.DoubleValue
4.235

@<SCITEGIC>MOL_PROPERTY
Bond
SciTegic.value.DoubleValue
0.068

@<SCITEGIC>MOL_PROPERTY
Angle
SciTegic.value.DoubleValue
3.901

@<SCITEGIC>MOL_PROPERTY
Pdih
SciTegic.value.DoubleValue
10.737

@<SCITEGIC>MOL_PROPERTY
Idih
SciTegic.value.DoubleValue
0.000

@<SCITEGIC>MOL_PROPERTY
Tether
SciTegic.value.DoubleValue
0.000

@<TRIPOS>MOLECULE
guest-4_confgen4.mol2 : confsearch ligand conformer 478
          16          16           1
SMALL
USER_CHARGES
 
@<TRIPOS>ATOM
       1    C1      19.968233   19.444482   21.340157 C.3        1 MOL1        -0.1689
       2    H1      20.957656   19.010596   21.139001 H          1 MOL1         0.0830
       3    H2      19.837733   20.320011   20.689726 H          1 MOL1         0.0830
       4    C2      19.854946   19.798438   22.829321 C.3        1 MOL1        -0.1689
       5    H3      20.786007   20.221583   23.230362 H          1 MOL1         0.0830
       6    H4      19.052394   20.535018   22.974182 H          1 MOL1         0.0830
       7    C3      19.473303   18.471466   23.510533 C.3        1 MOL1        -0.1765
       8    H5      18.880123   18.642568   24.418116 H          1 MOL1         0.0830
       9    H6      20.387558   17.936117   23.800919 H          1 MOL1         0.0830
      10    C4      18.685763   17.655867   22.463509 C.3        1 MOL1         0.1214
      11    H7      17.616192   17.648008   22.719389 H          1 MOL1         0.0787
      12    C5      18.881530   18.377214   21.114002 C.3        1 MOL1        -0.1765
      13    H8      19.156678   17.684734   20.307289 H          1 MOL1         0.0830
      14    H9      17.940147   18.864577   20.828772 H          1 MOL1         0.0830
      15    O1      19.195517   16.329760   22.389473 O.3        1 MOL1        -0.5512
      16    H10     19.055787   15.925094   23.271660 H          1 MOL1         0.3776
@<TRIPOS>BOND
    1     1     2    1
    2     1     3    1
    3     1     4    1
    4     4     5    1
    5     4     6    1
    6     4     7    1
    7     7     8    1
    8     7     9    1
    9     7    10    1
   10    10    11    1
   11     1    12    1
   12    10    12    1
   13    12    13    1
   14    12    14    1
   15    10    15    1
   16    15    16    1
@<TRIPOS>SUBSTRUCTURE
       1 MOL1            1 RESIDUE      1      MOL     
@<SCITEGIC>MOL_PROPERTY
VConf Rank
SciTegic.value.IntegerValue
478

@<SCITEGIC>MOL_PROPERTY
Conf_Id
SciTegic.value.IntegerValue
59

@<SCITEGIC>MOL_PROPERTY
Delta U+W
SciTegic.value.DoubleValue
0.000

@<SCITEGIC>MOL_PROPERTY
U+W
SciTegic.value.DoubleValue
3.010

@<SCITEGIC>MOL_PROPERTY
Grad RMS
SciTegic.value.DoubleValue
0.000000

@<SCITEGIC>MOL_PROPERTY
U
SciTegic.value.DoubleValue
5.843

@<SCITEGIC>MOL_PROPERTY
W
SciTegic.value.DoubleValue
-2.833

@<SCITEGIC>MOL_PROPERTY
W(PB)
SciTegic.value.DoubleValue
-4.568

@<SCITEGIC>MOL_PROPERTY
W(SA)
SciTegic.value.DoubleValue
1.735

@<SCITEGIC>MOL_PROPERTY
Valence
SciTegic.value.DoubleValue
13.789

@<SCITEGIC>MOL_PROPERTY
Coulomb
SciTegic.value.DoubleValue
-8.574

@<SCITEGIC>MOL_PROPERTY
VdW
SciTegic.value.DoubleValue
0.628

@<SCITEGIC>MOL_PROPERTY
VdW6
SciTegic.value.DoubleValue
-3.284

@<SCITEGIC>MOL_PROPERTY
VdW12
SciTegic.value.DoubleValue
3.912

@<SCITEGIC>MOL_PROPERTY
Bond
SciTegic.value.DoubleValue
0.054

@<SCITEGIC>MOL_PROPERTY
Angle
SciTegic.value.DoubleValue
4.034

@<SCITEGIC>MOL_PROPERTY
Pdih
SciTegic.value.DoubleValue
9.702

@<SCITEGIC>MOL_PROPERTY
Idih
SciTegic.value.DoubleValue
0.000

@<SCITEGIC>MOL_PROPERTY
Tether
SciTegic.value.DoubleValue
0.000

@<TRIPOS>MOLECULE
guest-4_confgen4.mol2 : confsearch ligand conformer 479
          16          16           1
SMALL
USER_CHARGES
 
@<TRIPOS>ATOM
       1    C1      18.779639   17.968553   21.199651 C.3        1 MOL1        -0.1689
       2    H1      18.388841   16.978044   20.929599 H          1 MOL1         0.0830
       3    H2      18.452904   18.686989   20.434984 H          1 MOL1         0.0830
       4    C2      20.310988   17.984140   21.301895 C.3        1 MOL1        -0.1689
       5    H3      20.657963   17.055015   21.775196 H          1 MOL1         0.0830
       6    H4      20.796129   18.072320   20.320312 H          1 MOL1         0.0830
       7    C3      20.623550   19.179119   22.221355 C.3        1 MOL1        -0.1765
       8    H5      20.748902   20.086543   21.616414 H          1 MOL1         0.0830
       9    H6      21.552755   19.023027   22.785476 H          1 MOL1         0.0830
      10    C4      19.400448   19.355214   23.144831 C.3        1 MOL1         0.1214
      11    H7      19.066303   20.402409   23.109484 H          1 MOL1         0.0787
      12    C5      18.298220   18.429930   22.587447 C.3        1 MOL1        -0.1765
      13    H8      18.171809   17.553753   23.237919 H          1 MOL1         0.0830
      14    H9      17.331458   18.946047   22.525454 H          1 MOL1         0.0830
      15    O1      19.732115   18.977214   24.475624 O.3        1 MOL1        -0.5512
      16    H10     18.920592   19.097596   25.012717 H          1 MOL1         0.3776
@<TRIPOS>BOND
    1     1     2    1
    2     1     3    1
    3     1     4    1
    4     4     5    1
    5     4     6    1
    6     4     7    1
    7     7     8    1
    8     7     9    1
    9     7    10    1
   10    10    11    1
   11     1    12    1
   12    10    12    1
   13    12    13    1
   14    12    14    1
   15    10    15    1
   16    15    16    1
@<TRIPOS>SUBSTRUCTURE
       1 MOL1            1 RESIDUE      1      MOL     
@<SCITEGIC>MOL_PROPERTY
VConf Rank
SciTegic.value.IntegerValue
479

@<SCITEGIC>MOL_PROPERTY
Conf_Id
SciTegic.value.IntegerValue
33

@<SCITEGIC>MOL_PROPERTY
Delta U+W
SciTegic.value.DoubleValue
0.015

@<SCITEGIC>MOL_PROPERTY
U+W
SciTegic.value.DoubleValue
3.025

@<SCITEGIC>MOL_PROPERTY
Grad RMS
SciTegic.value.DoubleValue
0.000000

@<SCITEGIC>MOL_PROPERTY
U
SciTegic.value.DoubleValue
5.843

@<SCITEGIC>MOL_PROPERTY
W
SciTegic.value.DoubleValue
-2.819

@<SCITEGIC>MOL_PROPERTY
W(PB)
SciTegic.value.DoubleValue
-4.568

@<SCITEGIC>MOL_PROPERTY
W(SA)
SciTegic.value.DoubleValue
1.750

@<SCITEGIC>MOL_PROPERTY
Valence
SciTegic.value.DoubleValue
13.789

@<SCITEGIC>MOL_PROPERTY
Coulomb
SciTegic.value.DoubleValue
-8.574

@<SCITEGIC>MOL_PROPERTY
VdW
SciTegic.value.DoubleValue
0.628

@<SCITEGIC>MOL_PROPERTY
VdW6
SciTegic.value.DoubleValue
-3.284

@<SCITEGIC>MOL_PROPERTY
VdW12
SciTegic.value.DoubleValue
3.913

@<SCITEGIC>MOL_PROPERTY
Bond
SciTegic.value.DoubleValue
0.054

@<SCITEGIC>MOL_PROPERTY
Angle
SciTegic.value.DoubleValue
4.033

@<SCITEGIC>MOL_PROPERTY
Pdih
SciTegic.value.DoubleValue
9.702

@<SCITEGIC>MOL_PROPERTY
Idih
SciTegic.value.DoubleValue
0.000

@<SCITEGIC>MOL_PROPERTY
Tether
SciTegic.value.DoubleValue
0.000

@<TRIPOS>MOLECULE
guest-4_confgen4.mol2 : confsearch ligand conformer 480
          16          16           1
SMALL
USER_CHARGES
 
@<TRIPOS>ATOM
       1    C1      19.508726   19.778295   21.622856 C.3        1 MOL1        -0.1689
       2    H1      20.532954   20.175906   21.613427 H          1 MOL1         0.0830
       3    H2      18.872858   20.482104   21.068489 H          1 MOL1         0.0830
       4    C2      19.026523   19.603589   23.079558 C.3        1 MOL1        -0.1689
       5    H3      19.816972   19.917637   23.775108 H          1 MOL1         0.0830
       6    H4      18.137776   20.215254   23.286906 H          1 MOL1         0.0830
       7    C3      18.721266   18.101646   23.262371 C.3        1 MOL1        -0.1765
       8    H5      17.644514   17.928046   23.135528 H          1 MOL1         0.0830
       9    H6      19.003153   17.737960   24.259506 H          1 MOL1         0.0830
      10    C4      19.478479   17.374613   22.142976 C.3        1 MOL1         0.1214
      11    H7      18.984808   16.431775   21.866700 H          1 MOL1         0.0787
      12    C5      19.475569   18.375553   20.979761 C.3        1 MOL1        -0.1765
      13    H8      20.314560   18.213987   20.289837 H          1 MOL1         0.0830
      14    H9      18.545496   18.255718   20.408600 H          1 MOL1         0.0830
      15    O1      20.816918   17.143179   22.557495 O.3        1 MOL1        -0.5512
      16    H10     21.171182   18.028502   22.780794 H          1 MOL1         0.3776
@<TRIPOS>BOND
    1     1     2    1
    2     1     3    1
    3     1     4    1
    4     4     5    1
    5     4     6    1
    6     4     7    1
    7     7     8    1
    8     7     9    1
    9     7    10    1
   10    10    11    1
   11     1    12    1
   12    10    12    1
   13    12    13    1
   14    12    14    1
   15    10    15    1
   16    15    16    1
@<TRIPOS>SUBSTRUCTURE
       1 MOL1            1 RESIDUE      1      MOL     
@<SCITEGIC>MOL_PROPERTY
VConf Rank
SciTegic.value.IntegerValue
480

@<SCITEGIC>MOL_PROPERTY
Conf_Id
SciTegic.value.IntegerValue
20

@<SCITEGIC>MOL_PROPERTY
Delta U+W
SciTegic.value.DoubleValue
-0.483

@<SCITEGIC>MOL_PROPERTY
U+W
SciTegic.value.DoubleValue
2.527

@<SCITEGIC>MOL_PROPERTY
Grad RMS
SciTegic.value.DoubleValue
0.000000

@<SCITEGIC>MOL_PROPERTY
U
SciTegic.value.DoubleValue
4.508

@<SCITEGIC>MOL_PROPERTY
W
SciTegic.value.DoubleValue
-1.981

@<SCITEGIC>MOL_PROPERTY
W(PB)
SciTegic.value.DoubleValue
-3.712

@<SCITEGIC>MOL_PROPERTY
W(SA)
SciTegic.value.DoubleValue
1.732

@<SCITEGIC>MOL_PROPERTY
Valence
SciTegic.value.DoubleValue
14.705

@<SCITEGIC>MOL_PROPERTY
Coulomb
SciTegic.value.DoubleValue
-10.687

@<SCITEGIC>MOL_PROPERTY
VdW
SciTegic.value.DoubleValue
0.490

@<SCITEGIC>MOL_PROPERTY
VdW6
SciTegic.value.DoubleValue
-3.745

@<SCITEGIC>MOL_PROPERTY
VdW12
SciTegic.value.DoubleValue
4.235

@<SCITEGIC>MOL_PROPERTY
Bond
SciTegic.value.DoubleValue
0.068

@<SCITEGIC>MOL_PROPERTY
Angle
SciTegic.value.DoubleValue
3.901

@<SCITEGIC>MOL_PROPERTY
Pdih
SciTegic.value.DoubleValue
10.737

@<SCITEGIC>MOL_PROPERTY
Idih
SciTegic.value.DoubleValue
0.000

@<SCITEGIC>MOL_PROPERTY
Tether
SciTegic.value.DoubleValue
0.000

@<TRIPOS>MOLECULE
guest-4_confgen4.mol2 : confsearch ligand conformer 481
          16          16           1
SMALL
USER_CHARGES
 
@<TRIPOS>ATOM
       1    C1      18.022740   18.312180   22.835697 C.3        1 MOL1        -0.1689
       2    H1      17.831121   19.146688   23.524577 H          1 MOL1         0.0830
       3    H2      17.118836   17.689721   22.789363 H          1 MOL1         0.0830
       4    C2      19.252420   17.525660   23.310042 C.3        1 MOL1        -0.1689
       5    H3      19.283697   17.417977   24.402830 H          1 MOL1         0.0830
       6    H4      19.242254   16.520548   22.865889 H          1 MOL1         0.0830
       7    C3      20.451148   18.323757   22.765387 C.3        1 MOL1        -0.1765
       8    H5      21.312098   17.671384   22.570396 H          1 MOL1         0.0830
       9    H6      20.756800   19.072693   23.508661 H          1 MOL1         0.0830
      10    C4      19.962059   19.017921   21.476741 C.3        1 MOL1         0.1214
      11    H7      20.388737   18.518160   20.594866 H          1 MOL1         0.0787
      12    C5      18.427160   18.864606   21.456422 C.3        1 MOL1        -0.1765
      13    H8      17.916614   19.811251   21.234550 H          1 MOL1         0.0830
      14    H9      18.149641   18.144822   20.675414 H          1 MOL1         0.0830
      15    O1      20.317333   20.395346   21.495956 O.3        1 MOL1        -0.5512
      16    H10     21.296909   20.432819   21.519622 H          1 MOL1         0.3776
@<TRIPOS>BOND
    1     1     2    1
    2     1     3    1
    3     1     4    1
    4     4     5    1
    5     4     6    1
    6     4     7    1
    7     7     8    1
    8     7     9    1
    9     7    10    1
   10    10    11    1
   11     1    12    1
   12    10    12    1
   13    12    13    1
   14    12    14    1
   15    10    15    1
   16    15    16    1
@<TRIPOS>SUBSTRUCTURE
       1 MOL1            1 RESIDUE      1      MOL     
@<SCITEGIC>MOL_PROPERTY
VConf Rank
SciTegic.value.IntegerValue
481

@<SCITEGIC>MOL_PROPERTY
Conf_Id
SciTegic.value.IntegerValue
59

@<SCITEGIC>MOL_PROPERTY
Delta U+W
SciTegic.value.DoubleValue
0.000

@<SCITEGIC>MOL_PROPERTY
U+W
SciTegic.value.DoubleValue
3.010

@<SCITEGIC>MOL_PROPERTY
Grad RMS
SciTegic.value.DoubleValue
0.000000

@<SCITEGIC>MOL_PROPERTY
U
SciTegic.value.DoubleValue
5.843

@<SCITEGIC>MOL_PROPERTY
W
SciTegic.value.DoubleValue
-2.833

@<SCITEGIC>MOL_PROPERTY
W(PB)
SciTegic.value.DoubleValue
-4.568

@<SCITEGIC>MOL_PROPERTY
W(SA)
SciTegic.value.DoubleValue
1.735

@<SCITEGIC>MOL_PROPERTY
Valence
SciTegic.value.DoubleValue
13.789

@<SCITEGIC>MOL_PROPERTY
Coulomb
SciTegic.value.DoubleValue
-8.574

@<SCITEGIC>MOL_PROPERTY
VdW
SciTegic.value.DoubleValue
0.628

@<SCITEGIC>MOL_PROPERTY
VdW6
SciTegic.value.DoubleValue
-3.284

@<SCITEGIC>MOL_PROPERTY
VdW12
SciTegic.value.DoubleValue
3.912

@<SCITEGIC>MOL_PROPERTY
Bond
SciTegic.value.DoubleValue
0.054

@<SCITEGIC>MOL_PROPERTY
Angle
SciTegic.value.DoubleValue
4.034

@<SCITEGIC>MOL_PROPERTY
Pdih
SciTegic.value.DoubleValue
9.702

@<SCITEGIC>MOL_PROPERTY
Idih
SciTegic.value.DoubleValue
0.000

@<SCITEGIC>MOL_PROPERTY
Tether
SciTegic.value.DoubleValue
0.000

@<TRIPOS>MOLECULE
guest-4_confgen4.mol2 : confsearch ligand conformer 482
          16          16           1
SMALL
USER_CHARGES
 
@<TRIPOS>ATOM
       1    C1      18.437742   19.626425   22.348936 C.3        1 MOL1        -0.1689
       2    H1      18.091824   20.491640   21.767126 H          1 MOL1         0.0830
       3    H2      17.710583   19.438997   23.151265 H          1 MOL1         0.0830
       4    C2      19.829830   19.849512   22.955608 C.3        1 MOL1        -0.1689
       5    H3      20.466859   20.376664   22.231741 H          1 MOL1         0.0830
       6    H4      19.794740   20.442931   23.879331 H          1 MOL1         0.0830
       7    C3      20.380129   18.430486   23.189306 C.3        1 MOL1        -0.1765
       8    H5      20.100766   18.087838   24.194111 H          1 MOL1         0.0830
       9    H6      21.475887   18.405379   23.120722 H          1 MOL1         0.0830
      10    C4      19.706857   17.519655   22.141982 C.3        1 MOL1         0.1214
      11    H7      19.267797   16.647328   22.647740 H          1 MOL1         0.0787
      12    C5      18.595096   18.363115   21.482968 C.3        1 MOL1        -0.1765
      13    H8      18.890602   18.654408   20.465812 H          1 MOL1         0.0830
      14    H9      17.652690   17.804665   21.413330 H          1 MOL1         0.0830
      15    O1      20.656555   17.110051   21.165153 O.3        1 MOL1        -0.5512
      16    H10     20.174658   16.546817   20.523225 H          1 MOL1         0.3776
@<TRIPOS>BOND
    1     1     2    1
    2     1     3    1
    3     1     4    1
    4     4     5    1
    5     4     6    1
    6     4     7    1
    7     7     8    1
    8     7     9    1
    9     7    10    1
   10    10    11    1
   11     1    12    1
   12    10    12    1
   13    12    13    1
   14    12    14    1
   15    10    15    1
   16    15    16    1
@<TRIPOS>SUBSTRUCTURE
       1 MOL1            1 RESIDUE      1      MOL     
@<SCITEGIC>MOL_PROPERTY
VConf Rank
SciTegic.value.IntegerValue
482

@<SCITEGIC>MOL_PROPERTY
Conf_Id
SciTegic.value.IntegerValue
33

@<SCITEGIC>MOL_PROPERTY
Delta U+W
SciTegic.value.DoubleValue
0.015

@<SCITEGIC>MOL_PROPERTY
U+W
SciTegic.value.DoubleValue
3.025

@<SCITEGIC>MOL_PROPERTY
Grad RMS
SciTegic.value.DoubleValue
0.000000

@<SCITEGIC>MOL_PROPERTY
U
SciTegic.value.DoubleValue
5.843

@<SCITEGIC>MOL_PROPERTY
W
SciTegic.value.DoubleValue
-2.819

@<SCITEGIC>MOL_PROPERTY
W(PB)
SciTegic.value.DoubleValue
-4.568

@<SCITEGIC>MOL_PROPERTY
W(SA)
SciTegic.value.DoubleValue
1.750

@<SCITEGIC>MOL_PROPERTY
Valence
SciTegic.value.DoubleValue
13.789

@<SCITEGIC>MOL_PROPERTY
Coulomb
SciTegic.value.DoubleValue
-8.574

@<SCITEGIC>MOL_PROPERTY
VdW
SciTegic.value.DoubleValue
0.628

@<SCITEGIC>MOL_PROPERTY
VdW6
SciTegic.value.DoubleValue
-3.284

@<SCITEGIC>MOL_PROPERTY
VdW12
SciTegic.value.DoubleValue
3.913

@<SCITEGIC>MOL_PROPERTY
Bond
SciTegic.value.DoubleValue
0.054

@<SCITEGIC>MOL_PROPERTY
Angle
SciTegic.value.DoubleValue
4.033

@<SCITEGIC>MOL_PROPERTY
Pdih
SciTegic.value.DoubleValue
9.702

@<SCITEGIC>MOL_PROPERTY
Idih
SciTegic.value.DoubleValue
0.000

@<SCITEGIC>MOL_PROPERTY
Tether
SciTegic.value.DoubleValue
0.000

@<TRIPOS>MOLECULE
guest-4_confgen4.mol2 : confsearch ligand conformer 483
          16          16           1
SMALL
USER_CHARGES
 
@<TRIPOS>ATOM
       1    C1      20.208091   18.057871   23.147605 C.3        1 MOL1        -0.1689
       2    H1      20.491885   17.021465   22.918365 H          1 MOL1         0.0830
       3    H2      20.727216   18.349115   24.071013 H          1 MOL1         0.0830
       4    C2      18.674874   18.160825   23.301445 C.3        1 MOL1        -0.1689
       5    H3      18.216734   17.174063   23.147709 H          1 MOL1         0.0830
       6    H4      18.391995   18.506913   24.305040 H          1 MOL1         0.0830
       7    C3      18.191555   19.147765   22.217568 C.3        1 MOL1        -0.1765
       8    H5      18.064946   20.144883   22.659550 H          1 MOL1         0.0830
       9    H6      17.227829   18.849936   21.783360 H          1 MOL1         0.0830
      10    C4      19.308952   19.206455   21.167344 C.3        1 MOL1         0.1214
      11    H7      19.321020   20.172818   20.642959 H          1 MOL1         0.0787
      12    C5      20.593821   18.987412   21.977338 C.3        1 MOL1        -0.1765
      13    H8      21.405457   18.571558   21.365525 H          1 MOL1         0.0830
      14    H9      20.934864   19.953203   22.373014 H          1 MOL1         0.0830
      15    O1      19.145696   18.134430   20.250329 O.3        1 MOL1        -0.5512
      16    H10     19.146818   17.325051   20.801750 H          1 MOL1         0.3776
@<TRIPOS>BOND
    1     1     2    1
    2     1     3    1
    3     1     4    1
    4     4     5    1
    5     4     6    1
    6     4     7    1
    7     7     8    1
    8     7     9    1
    9     7    10    1
   10    10    11    1
   11     1    12    1
   12    10    12    1
   13    12    13    1
   14    12    14    1
   15    10    15    1
   16    15    16    1
@<TRIPOS>SUBSTRUCTURE
       1 MOL1            1 RESIDUE      1      MOL     
@<SCITEGIC>MOL_PROPERTY
VConf Rank
SciTegic.value.IntegerValue
483

@<SCITEGIC>MOL_PROPERTY
Conf_Id
SciTegic.value.IntegerValue
20

@<SCITEGIC>MOL_PROPERTY
Delta U+W
SciTegic.value.DoubleValue
-0.483

@<SCITEGIC>MOL_PROPERTY
U+W
SciTegic.value.DoubleValue
2.527

@<SCITEGIC>MOL_PROPERTY
Grad RMS
SciTegic.value.DoubleValue
0.000000

@<SCITEGIC>MOL_PROPERTY
U
SciTegic.value.DoubleValue
4.508

@<SCITEGIC>MOL_PROPERTY
W
SciTegic.value.DoubleValue
-1.981

@<SCITEGIC>MOL_PROPERTY
W(PB)
SciTegic.value.DoubleValue
-3.712

@<SCITEGIC>MOL_PROPERTY
W(SA)
SciTegic.value.DoubleValue
1.732

@<SCITEGIC>MOL_PROPERTY
Valence
SciTegic.value.DoubleValue
14.705

@<SCITEGIC>MOL_PROPERTY
Coulomb
SciTegic.value.DoubleValue
-10.687

@<SCITEGIC>MOL_PROPERTY
VdW
SciTegic.value.DoubleValue
0.490

@<SCITEGIC>MOL_PROPERTY
VdW6
SciTegic.value.DoubleValue
-3.745

@<SCITEGIC>MOL_PROPERTY
VdW12
SciTegic.value.DoubleValue
4.235

@<SCITEGIC>MOL_PROPERTY
Bond
SciTegic.value.DoubleValue
0.068

@<SCITEGIC>MOL_PROPERTY
Angle
SciTegic.value.DoubleValue
3.901

@<SCITEGIC>MOL_PROPERTY
Pdih
SciTegic.value.DoubleValue
10.737

@<SCITEGIC>MOL_PROPERTY
Idih
SciTegic.value.DoubleValue
0.000

@<SCITEGIC>MOL_PROPERTY
Tether
SciTegic.value.DoubleValue
0.000

@<TRIPOS>MOLECULE
guest-4_confgen4.mol2 : confsearch ligand conformer 484
          16          16           1
SMALL
USER_CHARGES
 
@<TRIPOS>ATOM
       1    C1      18.669411   17.477459   21.621130 C.3        1 MOL1        -0.1689
       2    H1      17.663478   17.452690   22.062902 H          1 MOL1         0.0830
       3    H2      18.710832   16.729708   20.817515 H          1 MOL1         0.0830
       4    C2      19.717235   17.222816   22.713352 C.3        1 MOL1        -0.1689
       5    H3      19.397096   16.452642   23.428266 H          1 MOL1         0.0830
       6    H4      20.659030   16.893694   22.252562 H          1 MOL1         0.0830
       7    C3      19.915949   18.595811   23.381152 C.3        1 MOL1        -0.1765
       8    H5      20.930327   18.701405   23.787023 H          1 MOL1         0.0830
       9    H6      19.206832   18.700926   24.213552 H          1 MOL1         0.0830
      10    C4      19.626481   19.653538   22.295288 C.3        1 MOL1         0.1214
      11    H7      20.566721   20.113476   21.957763 H          1 MOL1         0.0787
      12    C5      18.976235   18.899674   21.116855 C.3        1 MOL1        -0.1765
      13    H8      18.071657   19.402073   20.748948 H          1 MOL1         0.0830
      14    H9      19.691534   18.849564   20.285641 H          1 MOL1         0.0830
      15    O1      18.734609   20.641497   22.797674 O.3        1 MOL1        -0.5512
      16    H10     19.192139   21.078561   23.546789 H          1 MOL1         0.3776
@<TRIPOS>BOND
    1     1     2    1
    2     1     3    1
    3     1     4    1
    4     4     5    1
    5     4     6    1
    6     4     7    1
    7     7     8    1
    8     7     9    1
    9     7    10    1
   10    10    11    1
   11     1    12    1
   12    10    12    1
   13    12    13    1
   14    12    14    1
   15    10    15    1
   16    15    16    1
@<TRIPOS>SUBSTRUCTURE
       1 MOL1            1 RESIDUE      1      MOL     
@<SCITEGIC>MOL_PROPERTY
VConf Rank
SciTegic.value.IntegerValue
484

@<SCITEGIC>MOL_PROPERTY
Conf_Id
SciTegic.value.IntegerValue
59

@<SCITEGIC>MOL_PROPERTY
Delta U+W
SciTegic.value.DoubleValue
0.000

@<SCITEGIC>MOL_PROPERTY
U+W
SciTegic.value.DoubleValue
3.010

@<SCITEGIC>MOL_PROPERTY
Grad RMS
SciTegic.value.DoubleValue
0.000000

@<SCITEGIC>MOL_PROPERTY
U
SciTegic.value.DoubleValue
5.843

@<SCITEGIC>MOL_PROPERTY
W
SciTegic.value.DoubleValue
-2.833

@<SCITEGIC>MOL_PROPERTY
W(PB)
SciTegic.value.DoubleValue
-4.568

@<SCITEGIC>MOL_PROPERTY
W(SA)
SciTegic.value.DoubleValue
1.735

@<SCITEGIC>MOL_PROPERTY
Valence
SciTegic.value.DoubleValue
13.789

@<SCITEGIC>MOL_PROPERTY
Coulomb
SciTegic.value.DoubleValue
-8.574

@<SCITEGIC>MOL_PROPERTY
VdW
SciTegic.value.DoubleValue
0.628

@<SCITEGIC>MOL_PROPERTY
VdW6
SciTegic.value.DoubleValue
-3.284

@<SCITEGIC>MOL_PROPERTY
VdW12
SciTegic.value.DoubleValue
3.912

@<SCITEGIC>MOL_PROPERTY
Bond
SciTegic.value.DoubleValue
0.054

@<SCITEGIC>MOL_PROPERTY
Angle
SciTegic.value.DoubleValue
4.034

@<SCITEGIC>MOL_PROPERTY
Pdih
SciTegic.value.DoubleValue
9.702

@<SCITEGIC>MOL_PROPERTY
Idih
SciTegic.value.DoubleValue
0.000

@<SCITEGIC>MOL_PROPERTY
Tether
SciTegic.value.DoubleValue
0.000

@<TRIPOS>MOLECULE
guest-4_confgen4.mol2 : confsearch ligand conformer 485
          16          16           1
SMALL
USER_CHARGES
 
@<TRIPOS>ATOM
       1    C1      18.298586   19.010184   23.048537 C.3        1 MOL1        -0.1689
       2    H1      17.238910   18.740829   23.154806 H          1 MOL1         0.0830
       3    H2      18.551957   19.727502   23.841557 H          1 MOL1         0.0830
       4    C2      18.610102   19.625239   21.677262 C.3        1 MOL1        -0.1689
       5    H3      18.047582   19.092112   20.898143 H          1 MOL1         0.0830
       6    H4      18.345400   20.690067   21.625146 H          1 MOL1         0.0830
       7    C3      20.118195   19.384289   21.480599 C.3        1 MOL1        -0.1765
       8    H5      20.682926   20.234370   21.884982 H          1 MOL1         0.0830
       9    H6      20.376883   19.286981   20.417759 H          1 MOL1         0.0830
      10    C4      20.470023   18.117279   22.287259 C.3        1 MOL1         0.1214
      11    H7      21.328232   18.329699   22.941380 H          1 MOL1         0.0787
      12    C5      19.226481   17.784824   23.138618 C.3        1 MOL1        -0.1765
      13    H8      18.708920   16.906379   22.729662 H          1 MOL1         0.0830
      14    H9      19.497404   17.562509   24.178822 H          1 MOL1         0.0830
      15    O1      20.763523   17.040134   21.405492 O.3        1 MOL1        -0.5512
      16    H10     20.967491   16.263516   21.968334 H          1 MOL1         0.3776
@<TRIPOS>BOND
    1     1     2    1
    2     1     3    1
    3     1     4    1
    4     4     5    1
    5     4     6    1
    6     4     7    1
    7     7     8    1
    8     7     9    1
    9     7    10    1
   10    10    11    1
   11     1    12    1
   12    10    12    1
   13    12    13    1
   14    12    14    1
   15    10    15    1
   16    15    16    1
@<TRIPOS>SUBSTRUCTURE
       1 MOL1            1 RESIDUE      1      MOL     
@<SCITEGIC>MOL_PROPERTY
VConf Rank
SciTegic.value.IntegerValue
485

@<SCITEGIC>MOL_PROPERTY
Conf_Id
SciTegic.value.IntegerValue
33

@<SCITEGIC>MOL_PROPERTY
Delta U+W
SciTegic.value.DoubleValue
0.015

@<SCITEGIC>MOL_PROPERTY
U+W
SciTegic.value.DoubleValue
3.025

@<SCITEGIC>MOL_PROPERTY
Grad RMS
SciTegic.value.DoubleValue
0.000000

@<SCITEGIC>MOL_PROPERTY
U
SciTegic.value.DoubleValue
5.843

@<SCITEGIC>MOL_PROPERTY
W
SciTegic.value.DoubleValue
-2.819

@<SCITEGIC>MOL_PROPERTY
W(PB)
SciTegic.value.DoubleValue
-4.568

@<SCITEGIC>MOL_PROPERTY
W(SA)
SciTegic.value.DoubleValue
1.750

@<SCITEGIC>MOL_PROPERTY
Valence
SciTegic.value.DoubleValue
13.789

@<SCITEGIC>MOL_PROPERTY
Coulomb
SciTegic.value.DoubleValue
-8.574

@<SCITEGIC>MOL_PROPERTY
VdW
SciTegic.value.DoubleValue
0.628

@<SCITEGIC>MOL_PROPERTY
VdW6
SciTegic.value.DoubleValue
-3.284

@<SCITEGIC>MOL_PROPERTY
VdW12
SciTegic.value.DoubleValue
3.913

@<SCITEGIC>MOL_PROPERTY
Bond
SciTegic.value.DoubleValue
0.054

@<SCITEGIC>MOL_PROPERTY
Angle
SciTegic.value.DoubleValue
4.033

@<SCITEGIC>MOL_PROPERTY
Pdih
SciTegic.value.DoubleValue
9.702

@<SCITEGIC>MOL_PROPERTY
Idih
SciTegic.value.DoubleValue
0.000

@<SCITEGIC>MOL_PROPERTY
Tether
SciTegic.value.DoubleValue
0.000

@<TRIPOS>MOLECULE
guest-4_confgen4.mol2 : confsearch ligand conformer 486
          16          16           1
SMALL
USER_CHARGES
 
@<TRIPOS>ATOM
       1    C1      20.591432   18.846036   22.765567 C.3        1 MOL1        -0.1689
       2    H1      21.250551   17.967251   22.788528 H          1 MOL1         0.0830
       3    H2      21.156854   19.697373   23.168703 H          1 MOL1         0.0830
       4    C2      19.316824   18.568319   23.592168 C.3        1 MOL1        -0.1689
       5    H3      19.359549   17.555537   24.016046 H          1 MOL1         0.0830
       6    H4      19.214963   19.275050   24.427126 H          1 MOL1         0.0830
       7    C3      18.127320   18.687942   22.615844 C.3        1 MOL1        -0.1765
       8    H5      17.680096   19.686936   22.703155 H          1 MOL1         0.0830
       9    H6      17.341080   17.950417   22.825339 H          1 MOL1         0.0830
      10    C4      18.715329   18.526577   21.207583 C.3        1 MOL1         0.1214
      11    H7      18.111833   19.053256   20.454334 H          1 MOL1         0.0787
      12    C5      20.124179   19.124259   21.321052 C.3        1 MOL1        -0.1765
      13    H8      20.813442   18.709547   20.573433 H          1 MOL1         0.0830
      14    H9      20.065874   20.208333   21.156714 H          1 MOL1         0.0830
      15    O1      18.817231   17.144143   20.898878 O.3        1 MOL1        -0.5512
      16    H10     19.365196   16.762788   21.615443 H          1 MOL1         0.3776
@<TRIPOS>BOND
    1     1     2    1
    2     1     3    1
    3     1     4    1
    4     4     5    1
    5     4     6    1
    6     4     7    1
    7     7     8    1
    8     7     9    1
    9     7    10    1
   10    10    11    1
   11     1    12    1
   12    10    12    1
   13    12    13    1
   14    12    14    1
   15    10    15    1
   16    15    16    1
@<TRIPOS>SUBSTRUCTURE
       1 MOL1            1 RESIDUE      1      MOL     
@<SCITEGIC>MOL_PROPERTY
VConf Rank
SciTegic.value.IntegerValue
486

@<SCITEGIC>MOL_PROPERTY
Conf_Id
SciTegic.value.IntegerValue
20

@<SCITEGIC>MOL_PROPERTY
Delta U+W
SciTegic.value.DoubleValue
-0.483

@<SCITEGIC>MOL_PROPERTY
U+W
SciTegic.value.DoubleValue
2.527

@<SCITEGIC>MOL_PROPERTY
Grad RMS
SciTegic.value.DoubleValue
0.000000

@<SCITEGIC>MOL_PROPERTY
U
SciTegic.value.DoubleValue
4.508

@<SCITEGIC>MOL_PROPERTY
W
SciTegic.value.DoubleValue
-1.981

@<SCITEGIC>MOL_PROPERTY
W(PB)
SciTegic.value.DoubleValue
-3.712

@<SCITEGIC>MOL_PROPERTY
W(SA)
SciTegic.value.DoubleValue
1.732

@<SCITEGIC>MOL_PROPERTY
Valence
SciTegic.value.DoubleValue
14.705

@<SCITEGIC>MOL_PROPERTY
Coulomb
SciTegic.value.DoubleValue
-10.687

@<SCITEGIC>MOL_PROPERTY
VdW
SciTegic.value.DoubleValue
0.490

@<SCITEGIC>MOL_PROPERTY
VdW6
SciTegic.value.DoubleValue
-3.745

@<SCITEGIC>MOL_PROPERTY
VdW12
SciTegic.value.DoubleValue
4.235

@<SCITEGIC>MOL_PROPERTY
Bond
SciTegic.value.DoubleValue
0.068

@<SCITEGIC>MOL_PROPERTY
Angle
SciTegic.value.DoubleValue
3.901

@<SCITEGIC>MOL_PROPERTY
Pdih
SciTegic.value.DoubleValue
10.737

@<SCITEGIC>MOL_PROPERTY
Idih
SciTegic.value.DoubleValue
0.000

@<SCITEGIC>MOL_PROPERTY
Tether
SciTegic.value.DoubleValue
0.000

@<TRIPOS>MOLECULE
guest-4_confgen4.mol2 : confsearch ligand conformer 487
          16          16           1
SMALL
USER_CHARGES
 
@<TRIPOS>ATOM
       1    C1      20.090721   19.181070   23.402214 C.3        1 MOL1        -0.1689
       2    H1      20.689189   19.969468   22.924784 H          1 MOL1         0.0830
       3    H2      20.252332   19.235862   24.487352 H          1 MOL1         0.0830
       4    C2      20.480433   17.815581   22.819726 C.3        1 MOL1        -0.1689
       5    H3      21.562406   17.726052   22.652161 H          1 MOL1         0.0830
       6    H4      20.172447   17.017785   23.509866 H          1 MOL1         0.0830
       7    C3      19.674509   17.712873   21.511868 C.3        1 MOL1        -0.1765
       8    H5      19.442687   16.668886   21.264490 H          1 MOL1         0.0830
       9    H6      20.266365   18.131756   20.686624 H          1 MOL1         0.0830
      10    C4      18.391543   18.543628   21.725236 C.3        1 MOL1         0.1214
      11    H7      17.527963   17.875410   21.856504 H          1 MOL1         0.0787
      12    C5      18.609428   19.354832   23.019187 C.3        1 MOL1        -0.1765
      13    H8      18.345031   20.413674   22.896835 H          1 MOL1         0.0830
      14    H9      17.972847   18.941470   23.812268 H          1 MOL1         0.0830
      15    O1      18.186305   19.421339   20.624604 O.3        1 MOL1        -0.5512
      16    H10     18.065359   18.855849   19.832692 H          1 MOL1         0.3776
@<TRIPOS>BOND
    1     1     2    1
    2     1     3    1
    3     1     4    1
    4     4     5    1
    5     4     6    1
    6     4     7    1
    7     7     8    1
    8     7     9    1
    9     7    10    1
   10    10    11    1
   11     1    12    1
   12    10    12    1
   13    12    13    1
   14    12    14    1
   15    10    15    1
   16    15    16    1
@<TRIPOS>SUBSTRUCTURE
       1 MOL1            1 RESIDUE      1      MOL     
@<SCITEGIC>MOL_PROPERTY
VConf Rank
SciTegic.value.IntegerValue
487

@<SCITEGIC>MOL_PROPERTY
Conf_Id
SciTegic.value.IntegerValue
59

@<SCITEGIC>MOL_PROPERTY
Delta U+W
SciTegic.value.DoubleValue
0.000

@<SCITEGIC>MOL_PROPERTY
U+W
SciTegic.value.DoubleValue
3.010

@<SCITEGIC>MOL_PROPERTY
Grad RMS
SciTegic.value.DoubleValue
0.000000

@<SCITEGIC>MOL_PROPERTY
U
SciTegic.value.DoubleValue
5.843

@<SCITEGIC>MOL_PROPERTY
W
SciTegic.value.DoubleValue
-2.833

@<SCITEGIC>MOL_PROPERTY
W(PB)
SciTegic.value.DoubleValue
-4.568

@<SCITEGIC>MOL_PROPERTY
W(SA)
SciTegic.value.DoubleValue
1.735

@<SCITEGIC>MOL_PROPERTY
Valence
SciTegic.value.DoubleValue
13.789

@<SCITEGIC>MOL_PROPERTY
Coulomb
SciTegic.value.DoubleValue
-8.574

@<SCITEGIC>MOL_PROPERTY
VdW
SciTegic.value.DoubleValue
0.628

@<SCITEGIC>MOL_PROPERTY
VdW6
SciTegic.value.DoubleValue
-3.284

@<SCITEGIC>MOL_PROPERTY
VdW12
SciTegic.value.DoubleValue
3.912

@<SCITEGIC>MOL_PROPERTY
Bond
SciTegic.value.DoubleValue
0.054

@<SCITEGIC>MOL_PROPERTY
Angle
SciTegic.value.DoubleValue
4.034

@<SCITEGIC>MOL_PROPERTY
Pdih
SciTegic.value.DoubleValue
9.702

@<SCITEGIC>MOL_PROPERTY
Idih
SciTegic.value.DoubleValue
0.000

@<SCITEGIC>MOL_PROPERTY
Tether
SciTegic.value.DoubleValue
0.000

@<TRIPOS>MOLECULE
guest-4_confgen4.mol2 : confsearch ligand conformer 488
          16          16           1
SMALL
USER_CHARGES
 
@<TRIPOS>ATOM
       1    C1      19.243494   18.557085   20.873235 C.3        1 MOL1        -0.1689
       2    H1      18.562719   18.967363   20.114963 H          1 MOL1         0.0830
       3    H2      20.062562   18.038945   20.355279 H          1 MOL1         0.0830
       4    C2      18.537289   17.583012   21.826222 C.3        1 MOL1        -0.1689
       5    H3      17.534872   17.964179   22.066123 H          1 MOL1         0.0830
       6    H4      18.429407   16.578426   21.395164 H          1 MOL1         0.0830
       7    C3      19.408075   17.587142   23.096179 C.3        1 MOL1        -0.1765
       8    H5      20.176075   16.806579   23.018833 H          1 MOL1         0.0830
       9    H6      18.812400   17.381372   23.995540 H          1 MOL1         0.0830
      10    C4      20.096656   18.966433   23.152820 C.3        1 MOL1         0.1214
      11    H7      21.179054   18.826830   23.288631 H          1 MOL1         0.0787
      12    C5      19.817976   19.647364   21.796204 C.3        1 MOL1        -0.1765
      13    H8      19.076163   20.448456   21.917634 H          1 MOL1         0.0830
      14    H9      20.728167   20.092004   21.373480 H          1 MOL1         0.0830
      15    O1      19.552275   19.743304   24.213018 O.3        1 MOL1        -0.5512
      16    H10     20.015433   20.607416   24.195032 H          1 MOL1         0.3776
@<TRIPOS>BOND
    1     1     2    1
    2     1     3    1
    3     1     4    1
    4     4     5    1
    5     4     6    1
    6     4     7    1
    7     7     8    1
    8     7     9    1
    9     7    10    1
   10    10    11    1
   11     1    12    1
   12    10    12    1
   13    12    13    1
   14    12    14    1
   15    10    15    1
   16    15    16    1
@<TRIPOS>SUBSTRUCTURE
       1 MOL1            1 RESIDUE      1      MOL     
@<SCITEGIC>MOL_PROPERTY
VConf Rank
SciTegic.value.IntegerValue
488

@<SCITEGIC>MOL_PROPERTY
Conf_Id
SciTegic.value.IntegerValue
33

@<SCITEGIC>MOL_PROPERTY
Delta U+W
SciTegic.value.DoubleValue
0.015

@<SCITEGIC>MOL_PROPERTY
U+W
SciTegic.value.DoubleValue
3.025

@<SCITEGIC>MOL_PROPERTY
Grad RMS
SciTegic.value.DoubleValue
0.000000

@<SCITEGIC>MOL_PROPERTY
U
SciTegic.value.DoubleValue
5.843

@<SCITEGIC>MOL_PROPERTY
W
SciTegic.value.DoubleValue
-2.819

@<SCITEGIC>MOL_PROPERTY
W(PB)
SciTegic.value.DoubleValue
-4.568

@<SCITEGIC>MOL_PROPERTY
W(SA)
SciTegic.value.DoubleValue
1.750

@<SCITEGIC>MOL_PROPERTY
Valence
SciTegic.value.DoubleValue
13.789

@<SCITEGIC>MOL_PROPERTY
Coulomb
SciTegic.value.DoubleValue
-8.574

@<SCITEGIC>MOL_PROPERTY
VdW
SciTegic.value.DoubleValue
0.628

@<SCITEGIC>MOL_PROPERTY
VdW6
SciTegic.value.DoubleValue
-3.284

@<SCITEGIC>MOL_PROPERTY
VdW12
SciTegic.value.DoubleValue
3.913

@<SCITEGIC>MOL_PROPERTY
Bond
SciTegic.value.DoubleValue
0.054

@<SCITEGIC>MOL_PROPERTY
Angle
SciTegic.value.DoubleValue
4.033

@<SCITEGIC>MOL_PROPERTY
Pdih
SciTegic.value.DoubleValue
9.702

@<SCITEGIC>MOL_PROPERTY
Idih
SciTegic.value.DoubleValue
0.000

@<SCITEGIC>MOL_PROPERTY
Tether
SciTegic.value.DoubleValue
0.000

@<TRIPOS>MOLECULE
guest-4_confgen4.mol2 : confsearch ligand conformer 489
          16          16           1
SMALL
USER_CHARGES
 
@<TRIPOS>ATOM
       1    C1      19.270444   17.372239   21.767510 C.3        1 MOL1        -0.1689
       2    H1      19.146119   17.327378   20.676750 H          1 MOL1         0.0830
       3    H2      19.286623   16.340198   22.143845 H          1 MOL1         0.0830
       4    C2      18.118171   18.187289   22.394393 C.3        1 MOL1        -0.1689
       5    H3      17.435616   18.535987   21.607149 H          1 MOL1         0.0830
       6    H4      17.532196   17.581868   23.099445 H          1 MOL1         0.0830
       7    C3      18.770621   19.391471   23.106217 C.3        1 MOL1        -0.1765
       8    H5      18.879611   19.170172   24.176155 H          1 MOL1         0.0830
       9    H6      18.169130   20.305610   23.013677 H          1 MOL1         0.0830
      10    C4      20.165180   19.547915   22.485150 C.3        1 MOL1         0.1214
      11    H7      20.873077   20.006614   23.190458 H          1 MOL1         0.0787
      12    C5      20.576007   18.113848   22.125112 C.3        1 MOL1        -0.1765
      13    H8      21.309008   18.083855   21.307914 H          1 MOL1         0.0830
      14    H9      21.036162   17.643462   23.004098 H          1 MOL1         0.0830
      15    O1      20.063953   20.317902   21.296167 O.3        1 MOL1        -0.5512
      16    H10     19.419836   19.837957   20.735874 H          1 MOL1         0.3776
@<TRIPOS>BOND
    1     1     2    1
    2     1     3    1
    3     1     4    1
    4     4     5    1
    5     4     6    1
    6     4     7    1
    7     7     8    1
    8     7     9    1
    9     7    10    1
   10    10    11    1
   11     1    12    1
   12    10    12    1
   13    12    13    1
   14    12    14    1
   15    10    15    1
   16    15    16    1
@<TRIPOS>SUBSTRUCTURE
       1 MOL1            1 RESIDUE      1      MOL     
@<SCITEGIC>MOL_PROPERTY
VConf Rank
SciTegic.value.IntegerValue
489

@<SCITEGIC>MOL_PROPERTY
Conf_Id
SciTegic.value.IntegerValue
20

@<SCITEGIC>MOL_PROPERTY
Delta U+W
SciTegic.value.DoubleValue
-0.483

@<SCITEGIC>MOL_PROPERTY
U+W
SciTegic.value.DoubleValue
2.527

@<SCITEGIC>MOL_PROPERTY
Grad RMS
SciTegic.value.DoubleValue
0.000000

@<SCITEGIC>MOL_PROPERTY
U
SciTegic.value.DoubleValue
4.508

@<SCITEGIC>MOL_PROPERTY
W
SciTegic.value.DoubleValue
-1.981

@<SCITEGIC>MOL_PROPERTY
W(PB)
SciTegic.value.DoubleValue
-3.712

@<SCITEGIC>MOL_PROPERTY
W(SA)
SciTegic.value.DoubleValue
1.732

@<SCITEGIC>MOL_PROPERTY
Valence
SciTegic.value.DoubleValue
14.705

@<SCITEGIC>MOL_PROPERTY
Coulomb
SciTegic.value.DoubleValue
-10.687

@<SCITEGIC>MOL_PROPERTY
VdW
SciTegic.value.DoubleValue
0.490

@<SCITEGIC>MOL_PROPERTY
VdW6
SciTegic.value.DoubleValue
-3.745

@<SCITEGIC>MOL_PROPERTY
VdW12
SciTegic.value.DoubleValue
4.235

@<SCITEGIC>MOL_PROPERTY
Bond
SciTegic.value.DoubleValue
0.068

@<SCITEGIC>MOL_PROPERTY
Angle
SciTegic.value.DoubleValue
3.901

@<SCITEGIC>MOL_PROPERTY
Pdih
SciTegic.value.DoubleValue
10.737

@<SCITEGIC>MOL_PROPERTY
Idih
SciTegic.value.DoubleValue
0.000

@<SCITEGIC>MOL_PROPERTY
Tether
SciTegic.value.DoubleValue
0.000

@<TRIPOS>MOLECULE
guest-4_confgen4.mol2 : confsearch ligand conformer 490
          16          16           1
SMALL
USER_CHARGES
 
@<TRIPOS>ATOM
       1    C1      19.366321   18.349787   20.874739 C.3        1 MOL1        -0.1689
       2    H1      19.610868   17.286920   20.739880 H          1 MOL1         0.0830
       3    H2      19.178623   18.787963   19.885085 H          1 MOL1         0.0830
       4    C2      20.511427   19.050671   21.618528 C.3        1 MOL1        -0.1689
       5    H3      21.499462   18.701770   21.288660 H          1 MOL1         0.0830
       6    H4      20.454892   20.134637   21.446923 H          1 MOL1         0.0830
       7    C3      20.247673   18.743991   23.104104 C.3        1 MOL1        -0.1765
       8    H5      20.629107   19.543281   23.752555 H          1 MOL1         0.0830
       9    H6      20.760751   17.812453   23.379371 H          1 MOL1         0.0830
      10    C4      18.720412   18.576221   23.249043 C.3        1 MOL1         0.1214
      11    H7      18.291490   19.454433   23.753314 H          1 MOL1         0.0787
      12    C5      18.155498   18.484840   21.816439 C.3        1 MOL1        -0.1765
      13    H8      17.455207   17.647352   21.697162 H          1 MOL1         0.0830
      14    H9      17.611335   19.410109   21.586555 H          1 MOL1         0.0830
      15    O1      18.423480   17.386495   23.970343 O.3        1 MOL1        -0.5512
      16    H10     18.813020   17.494612   24.863709 H          1 MOL1         0.3776
@<TRIPOS>BOND
    1     1     2    1
    2     1     3    1
    3     1     4    1
    4     4     5    1
    5     4     6    1
    6     4     7    1
    7     7     8    1
    8     7     9    1
    9     7    10    1
   10    10    11    1
   11     1    12    1
   12    10    12    1
   13    12    13    1
   14    12    14    1
   15    10    15    1
   16    15    16    1
@<TRIPOS>SUBSTRUCTURE
       1 MOL1            1 RESIDUE      1      MOL     
@<SCITEGIC>MOL_PROPERTY
VConf Rank
SciTegic.value.IntegerValue
490

@<SCITEGIC>MOL_PROPERTY
Conf_Id
SciTegic.value.IntegerValue
59

@<SCITEGIC>MOL_PROPERTY
Delta U+W
SciTegic.value.DoubleValue
0.000

@<SCITEGIC>MOL_PROPERTY
U+W
SciTegic.value.DoubleValue
3.010

@<SCITEGIC>MOL_PROPERTY
Grad RMS
SciTegic.value.DoubleValue
0.000000

@<SCITEGIC>MOL_PROPERTY
U
SciTegic.value.DoubleValue
5.843

@<SCITEGIC>MOL_PROPERTY
W
SciTegic.value.DoubleValue
-2.833

@<SCITEGIC>MOL_PROPERTY
W(PB)
SciTegic.value.DoubleValue
-4.568

@<SCITEGIC>MOL_PROPERTY
W(SA)
SciTegic.value.DoubleValue
1.735

@<SCITEGIC>MOL_PROPERTY
Valence
SciTegic.value.DoubleValue
13.789

@<SCITEGIC>MOL_PROPERTY
Coulomb
SciTegic.value.DoubleValue
-8.574

@<SCITEGIC>MOL_PROPERTY
VdW
SciTegic.value.DoubleValue
0.628

@<SCITEGIC>MOL_PROPERTY
VdW6
SciTegic.value.DoubleValue
-3.284

@<SCITEGIC>MOL_PROPERTY
VdW12
SciTegic.value.DoubleValue
3.912

@<SCITEGIC>MOL_PROPERTY
Bond
SciTegic.value.DoubleValue
0.054

@<SCITEGIC>MOL_PROPERTY
Angle
SciTegic.value.DoubleValue
4.034

@<SCITEGIC>MOL_PROPERTY
Pdih
SciTegic.value.DoubleValue
9.702

@<SCITEGIC>MOL_PROPERTY
Idih
SciTegic.value.DoubleValue
0.000

@<SCITEGIC>MOL_PROPERTY
Tether
SciTegic.value.DoubleValue
0.000

@<TRIPOS>MOLECULE
guest-4_confgen4.mol2 : confsearch ligand conformer 491
          16          16           1
SMALL
USER_CHARGES
 
@<TRIPOS>ATOM
       1    C1      19.001265   17.307893   21.897395 C.3        1 MOL1        -0.1689
       2    H1      19.387615   16.409272   21.397423 H          1 MOL1         0.0830
       3    H2      18.004837   17.076208   22.298735 H          1 MOL1         0.0830
       4    C2      18.908629   18.510218   20.947889 C.3        1 MOL1        -0.1689
       5    H3      19.785326   18.524724   20.285416 H          1 MOL1         0.0830
       6    H4      18.005576   18.482787   20.323081 H          1 MOL1         0.0830
       7    C3      18.943661   19.738038   21.876494 C.3        1 MOL1        -0.1765
       8    H5      17.920503   20.009096   22.167627 H          1 MOL1         0.0830
       9    H6      19.390844   20.608822   21.378718 H          1 MOL1         0.0830
      10    C4      19.729459   19.315417   23.134950 C.3        1 MOL1         0.1214
      11    H7      19.141064   19.562430   24.030659 H          1 MOL1         0.0787
      12    C5      19.922150   17.787518   23.034295 C.3        1 MOL1        -0.1765
      13    H8      20.964745   17.551155   22.781491 H          1 MOL1         0.0830
      14    H9      19.683348   17.287499   23.981819 H          1 MOL1         0.0830
      15    O1      20.992936   19.968501   23.166656 O.3        1 MOL1        -0.5512
      16    H10     21.450659   19.656331   23.975710 H          1 MOL1         0.3776
@<TRIPOS>BOND
    1     1     2    1
    2     1     3    1
    3     1     4    1
    4     4     5    1
    5     4     6    1
    6     4     7    1
    7     7     8    1
    8     7     9    1
    9     7    10    1
   10    10    11    1
   11     1    12    1
   12    10    12    1
   13    12    13    1
   14    12    14    1
   15    10    15    1
   16    15    16    1
@<TRIPOS>SUBSTRUCTURE
       1 MOL1            1 RESIDUE      1      MOL     
@<SCITEGIC>MOL_PROPERTY
VConf Rank
SciTegic.value.IntegerValue
491

@<SCITEGIC>MOL_PROPERTY
Conf_Id
SciTegic.value.IntegerValue
33

@<SCITEGIC>MOL_PROPERTY
Delta U+W
SciTegic.value.DoubleValue
0.015

@<SCITEGIC>MOL_PROPERTY
U+W
SciTegic.value.DoubleValue
3.025

@<SCITEGIC>MOL_PROPERTY
Grad RMS
SciTegic.value.DoubleValue
0.000000

@<SCITEGIC>MOL_PROPERTY
U
SciTegic.value.DoubleValue
5.843

@<SCITEGIC>MOL_PROPERTY
W
SciTegic.value.DoubleValue
-2.819

@<SCITEGIC>MOL_PROPERTY
W(PB)
SciTegic.value.DoubleValue
-4.568

@<SCITEGIC>MOL_PROPERTY
W(SA)
SciTegic.value.DoubleValue
1.750

@<SCITEGIC>MOL_PROPERTY
Valence
SciTegic.value.DoubleValue
13.789

@<SCITEGIC>MOL_PROPERTY
Coulomb
SciTegic.value.DoubleValue
-8.574

@<SCITEGIC>MOL_PROPERTY
VdW
SciTegic.value.DoubleValue
0.628

@<SCITEGIC>MOL_PROPERTY
VdW6
SciTegic.value.DoubleValue
-3.284

@<SCITEGIC>MOL_PROPERTY
VdW12
SciTegic.value.DoubleValue
3.913

@<SCITEGIC>MOL_PROPERTY
Bond
SciTegic.value.DoubleValue
0.054

@<SCITEGIC>MOL_PROPERTY
Angle
SciTegic.value.DoubleValue
4.033

@<SCITEGIC>MOL_PROPERTY
Pdih
SciTegic.value.DoubleValue
9.702

@<SCITEGIC>MOL_PROPERTY
Idih
SciTegic.value.DoubleValue
0.000

@<SCITEGIC>MOL_PROPERTY
Tether
SciTegic.value.DoubleValue
0.000

@<TRIPOS>MOLECULE
guest-4_confgen4.mol2 : confsearch ligand conformer 492
          16          16           1
SMALL
USER_CHARGES
 
@<TRIPOS>ATOM
       1    C1      18.181455   18.509357   22.843351 C.3        1 MOL1        -0.1689
       2    H1      17.337210   18.465476   22.141531 H          1 MOL1         0.0830
       3    H2      17.773210   18.437105   23.860755 H          1 MOL1         0.0830
       4    C2      18.966917   19.823189   22.638613 C.3        1 MOL1        -0.1689
       5    H3      18.502201   20.415639   21.838446 H          1 MOL1         0.0830
       6    H4      18.970409   20.437759   23.549267 H          1 MOL1         0.0830
       7    C3      20.401177   19.417672   22.237501 C.3        1 MOL1        -0.1765
       8    H5      21.051009   19.444672   23.122154 H          1 MOL1         0.0830
       9    H6      20.830526   20.094470   21.486761 H          1 MOL1         0.0830
      10    C4      20.308360   17.971928   21.731336 C.3        1 MOL1         0.1214
      11    H7      21.253638   17.430057   21.879010 H          1 MOL1         0.0787
      12    C5      19.170913   17.359252   22.559466 C.3        1 MOL1        -0.1765
      13    H8      18.691447   16.514630   22.046894 H          1 MOL1         0.0830
      14    H9      19.580977   16.985790   23.507092 H          1 MOL1         0.0830
      15    O1      19.937384   17.979232   20.360522 O.3        1 MOL1        -0.5512
      16    H10     19.094919   18.477535   20.327216 H          1 MOL1         0.3776
@<TRIPOS>BOND
    1     1     2    1
    2     1     3    1
    3     1     4    1
    4     4     5    1
    5     4     6    1
    6     4     7    1
    7     7     8    1
    8     7     9    1
    9     7    10    1
   10    10    11    1
   11     1    12    1
   12    10    12    1
   13    12    13    1
   14    12    14    1
   15    10    15    1
   16    15    16    1
@<TRIPOS>SUBSTRUCTURE
       1 MOL1            1 RESIDUE      1      MOL     
@<SCITEGIC>MOL_PROPERTY
VConf Rank
SciTegic.value.IntegerValue
492

@<SCITEGIC>MOL_PROPERTY
Conf_Id
SciTegic.value.IntegerValue
20

@<SCITEGIC>MOL_PROPERTY
Delta U+W
SciTegic.value.DoubleValue
-0.483

@<SCITEGIC>MOL_PROPERTY
U+W
SciTegic.value.DoubleValue
2.527

@<SCITEGIC>MOL_PROPERTY
Grad RMS
SciTegic.value.DoubleValue
0.000000

@<SCITEGIC>MOL_PROPERTY
U
SciTegic.value.DoubleValue
4.508

@<SCITEGIC>MOL_PROPERTY
W
SciTegic.value.DoubleValue
-1.981

@<SCITEGIC>MOL_PROPERTY
W(PB)
SciTegic.value.DoubleValue
-3.712

@<SCITEGIC>MOL_PROPERTY
W(SA)
SciTegic.value.DoubleValue
1.732

@<SCITEGIC>MOL_PROPERTY
Valence
SciTegic.value.DoubleValue
14.705

@<SCITEGIC>MOL_PROPERTY
Coulomb
SciTegic.value.DoubleValue
-10.687

@<SCITEGIC>MOL_PROPERTY
VdW
SciTegic.value.DoubleValue
0.490

@<SCITEGIC>MOL_PROPERTY
VdW6
SciTegic.value.DoubleValue
-3.745

@<SCITEGIC>MOL_PROPERTY
VdW12
SciTegic.value.DoubleValue
4.235

@<SCITEGIC>MOL_PROPERTY
Bond
SciTegic.value.DoubleValue
0.068

@<SCITEGIC>MOL_PROPERTY
Angle
SciTegic.value.DoubleValue
3.901

@<SCITEGIC>MOL_PROPERTY
Pdih
SciTegic.value.DoubleValue
10.737

@<SCITEGIC>MOL_PROPERTY
Idih
SciTegic.value.DoubleValue
0.000

@<SCITEGIC>MOL_PROPERTY
Tether
SciTegic.value.DoubleValue
0.000

@<TRIPOS>MOLECULE
guest-4_confgen4.mol2 : confsearch ligand conformer 493
          16          16           1
SMALL
USER_CHARGES
 
@<TRIPOS>ATOM
       1    C1      19.302379   17.197521   21.794234 C.3        1 MOL1        -0.1689
       2    H1      18.667655   17.261876   20.899438 H          1 MOL1         0.0830
       3    H2      19.666699   16.165132   21.884173 H          1 MOL1         0.0830
       4    C2      18.503039   17.646396   23.025206 C.3        1 MOL1        -0.1689
       5    H3      17.464408   17.289365   23.002099 H          1 MOL1         0.0830
       6    H4      18.979329   17.259029   23.936645 H          1 MOL1         0.0830
       7    C3      18.594995   19.183136   23.002201 C.3        1 MOL1        -0.1765
       8    H5      18.539567   19.603494   24.014659 H          1 MOL1         0.0830
       9    H6      17.754915   19.588664   22.422031 H          1 MOL1         0.0830
      10    C4      19.934063   19.528474   22.317132 C.3        1 MOL1         0.1214
      11    H7      20.659061   19.882119   23.064681 H          1 MOL1         0.0787
      12    C5      20.450116   18.218444   21.686780 C.3        1 MOL1        -0.1765
      13    H8      20.773096   18.355559   20.646153 H          1 MOL1         0.0830
      14    H9      21.315425   17.861767   22.260454 H          1 MOL1         0.0830
      15    O1      19.730563   20.511233   21.308835 O.3        1 MOL1        -0.5512
      16    H10     19.394255   21.313325   21.761690 H          1 MOL1         0.3776
@<TRIPOS>BOND
    1     1     2    1
    2     1     3    1
    3     1     4    1
    4     4     5    1
    5     4     6    1
    6     4     7    1
    7     7     8    1
    8     7     9    1
    9     7    10    1
   10    10    11    1
   11     1    12    1
   12    10    12    1
   13    12    13    1
   14    12    14    1
   15    10    15    1
   16    15    16    1
@<TRIPOS>SUBSTRUCTURE
       1 MOL1            1 RESIDUE      1      MOL     
@<SCITEGIC>MOL_PROPERTY
VConf Rank
SciTegic.value.IntegerValue
493

@<SCITEGIC>MOL_PROPERTY
Conf_Id
SciTegic.value.IntegerValue
59

@<SCITEGIC>MOL_PROPERTY
Delta U+W
SciTegic.value.DoubleValue
0.000

@<SCITEGIC>MOL_PROPERTY
U+W
SciTegic.value.DoubleValue
3.010

@<SCITEGIC>MOL_PROPERTY
Grad RMS
SciTegic.value.DoubleValue
0.000000

@<SCITEGIC>MOL_PROPERTY
U
SciTegic.value.DoubleValue
5.843

@<SCITEGIC>MOL_PROPERTY
W
SciTegic.value.DoubleValue
-2.833

@<SCITEGIC>MOL_PROPERTY
W(PB)
SciTegic.value.DoubleValue
-4.568

@<SCITEGIC>MOL_PROPERTY
W(SA)
SciTegic.value.DoubleValue
1.735

@<SCITEGIC>MOL_PROPERTY
Valence
SciTegic.value.DoubleValue
13.789

@<SCITEGIC>MOL_PROPERTY
Coulomb
SciTegic.value.DoubleValue
-8.574

@<SCITEGIC>MOL_PROPERTY
VdW
SciTegic.value.DoubleValue
0.628

@<SCITEGIC>MOL_PROPERTY
VdW6
SciTegic.value.DoubleValue
-3.284

@<SCITEGIC>MOL_PROPERTY
VdW12
SciTegic.value.DoubleValue
3.912

@<SCITEGIC>MOL_PROPERTY
Bond
SciTegic.value.DoubleValue
0.054

@<SCITEGIC>MOL_PROPERTY
Angle
SciTegic.value.DoubleValue
4.034

@<SCITEGIC>MOL_PROPERTY
Pdih
SciTegic.value.DoubleValue
9.702

@<SCITEGIC>MOL_PROPERTY
Idih
SciTegic.value.DoubleValue
0.000

@<SCITEGIC>MOL_PROPERTY
Tether
SciTegic.value.DoubleValue
0.000

@<TRIPOS>MOLECULE
guest-4_confgen4.mol2 : confsearch ligand conformer 494
          16          16           1
SMALL
USER_CHARGES
 
@<TRIPOS>ATOM
       1    C1      18.440737   18.020534   23.121676 C.3        1 MOL1        -0.1689
       2    H1      18.041976   18.110714   24.141292 H          1 MOL1         0.0830
       3    H2      17.785378   17.344520   22.554993 H          1 MOL1         0.0830
       4    C2      19.878095   17.482621   23.102231 C.3        1 MOL1        -0.1689
       5    H3      20.448478   17.925984   23.930345 H          1 MOL1         0.0830
       6    H4      19.918380   16.389525   23.203036 H          1 MOL1         0.0830
       7    C3      20.453925   17.970608   21.760082 C.3        1 MOL1        -0.1765
       8    H5      20.262774   17.219782   20.982390 H          1 MOL1         0.0830
       9    H6      21.540018   18.122689   21.817470 H          1 MOL1         0.0830
      10    C4      19.699068   19.267787   21.403269 C.3        1 MOL1         0.1214
      11    H7      19.309278   19.190933   20.377756 H          1 MOL1         0.0787
      12    C5      18.530804   19.380460   22.405366 C.3        1 MOL1        -0.1765
      13    H8      18.737267   20.167073   23.143874 H          1 MOL1         0.0830
      14    H9      17.588923   19.630950   21.900429 H          1 MOL1         0.0830
      15    O1      20.564569   20.389708   21.530148 O.3        1 MOL1        -0.5512
      16    H10     20.032945   21.182023   21.304001 H          1 MOL1         0.3776
@<TRIPOS>BOND
    1     1     2    1
    2     1     3    1
    3     1     4    1
    4     4     5    1
    5     4     6    1
    6     4     7    1
    7     7     8    1
    8     7     9    1
    9     7    10    1
   10    10    11    1
   11     1    12    1
   12    10    12    1
   13    12    13    1
   14    12    14    1
   15    10    15    1
   16    15    16    1
@<TRIPOS>SUBSTRUCTURE
       1 MOL1            1 RESIDUE      1      MOL     
@<SCITEGIC>MOL_PROPERTY
VConf Rank
SciTegic.value.IntegerValue
494

@<SCITEGIC>MOL_PROPERTY
Conf_Id
SciTegic.value.IntegerValue
33

@<SCITEGIC>MOL_PROPERTY
Delta U+W
SciTegic.value.DoubleValue
0.015

@<SCITEGIC>MOL_PROPERTY
U+W
SciTegic.value.DoubleValue
3.025

@<SCITEGIC>MOL_PROPERTY
Grad RMS
SciTegic.value.DoubleValue
0.000000

@<SCITEGIC>MOL_PROPERTY
U
SciTegic.value.DoubleValue
5.843

@<SCITEGIC>MOL_PROPERTY
W
SciTegic.value.DoubleValue
-2.819

@<SCITEGIC>MOL_PROPERTY
W(PB)
SciTegic.value.DoubleValue
-4.568

@<SCITEGIC>MOL_PROPERTY
W(SA)
SciTegic.value.DoubleValue
1.750

@<SCITEGIC>MOL_PROPERTY
Valence
SciTegic.value.DoubleValue
13.789

@<SCITEGIC>MOL_PROPERTY
Coulomb
SciTegic.value.DoubleValue
-8.574

@<SCITEGIC>MOL_PROPERTY
VdW
SciTegic.value.DoubleValue
0.628

@<SCITEGIC>MOL_PROPERTY
VdW6
SciTegic.value.DoubleValue
-3.284

@<SCITEGIC>MOL_PROPERTY
VdW12
SciTegic.value.DoubleValue
3.913

@<SCITEGIC>MOL_PROPERTY
Bond
SciTegic.value.DoubleValue
0.054

@<SCITEGIC>MOL_PROPERTY
Angle
SciTegic.value.DoubleValue
4.033

@<SCITEGIC>MOL_PROPERTY
Pdih
SciTegic.value.DoubleValue
9.702

@<SCITEGIC>MOL_PROPERTY
Idih
SciTegic.value.DoubleValue
0.000

@<SCITEGIC>MOL_PROPERTY
Tether
SciTegic.value.DoubleValue
0.000

@<TRIPOS>MOLECULE
guest-4_confgen4.mol2 : confsearch ligand conformer 495
          16          16           1
SMALL
USER_CHARGES
 
@<TRIPOS>ATOM
       1    C1      19.519844   19.869925   21.836124 C.3        1 MOL1        -0.1689
       2    H1      18.847130   20.588592   22.324183 H          1 MOL1         0.0830
       3    H2      20.147190   20.428494   21.128004 H          1 MOL1         0.0830
       4    C2      18.693310   18.777432   21.123158 C.3        1 MOL1        -0.1689
       5    H3      17.620587   18.967948   21.265266 H          1 MOL1         0.0830
       6    H4      18.889067   18.763843   20.042189 H          1 MOL1         0.0830
       7    C3      19.087389   17.435068   21.775230 C.3        1 MOL1        -0.1765
       8    H5      19.842806   16.934030   21.155612 H          1 MOL1         0.0830
       9    H6      18.231857   16.753829   21.875146 H          1 MOL1         0.0830
      10    C4      19.710622   17.788436   23.132324 C.3        1 MOL1         0.1214
      11    H7      20.437201   17.028473   23.454071 H          1 MOL1         0.0787
      12    C5      20.383247   19.146557   22.891412 C.3        1 MOL1        -0.1765
      13    H8      20.485777   19.729863   23.816207 H          1 MOL1         0.0830
      14    H9      21.390884   18.978940   22.488679 H          1 MOL1         0.0830
      15    O1      18.678218   17.942100   24.095308 O.3        1 MOL1        -0.5512
      16    H10     18.086625   18.630234   23.727000 H          1 MOL1         0.3776
@<TRIPOS>BOND
    1     1     2    1
    2     1     3    1
    3     1     4    1
    4     4     5    1
    5     4     6    1
    6     4     7    1
    7     7     8    1
    8     7     9    1
    9     7    10    1
   10    10    11    1
   11     1    12    1
   12    10    12    1
   13    12    13    1
   14    12    14    1
   15    10    15    1
   16    15    16    1
@<TRIPOS>SUBSTRUCTURE
       1 MOL1            1 RESIDUE      1      MOL     
@<SCITEGIC>MOL_PROPERTY
VConf Rank
SciTegic.value.IntegerValue
495

@<SCITEGIC>MOL_PROPERTY
Conf_Id
SciTegic.value.IntegerValue
20

@<SCITEGIC>MOL_PROPERTY
Delta U+W
SciTegic.value.DoubleValue
-0.483

@<SCITEGIC>MOL_PROPERTY
U+W
SciTegic.value.DoubleValue
2.527

@<SCITEGIC>MOL_PROPERTY
Grad RMS
SciTegic.value.DoubleValue
0.000000

@<SCITEGIC>MOL_PROPERTY
U
SciTegic.value.DoubleValue
4.508

@<SCITEGIC>MOL_PROPERTY
W
SciTegic.value.DoubleValue
-1.981

@<SCITEGIC>MOL_PROPERTY
W(PB)
SciTegic.value.DoubleValue
-3.712

@<SCITEGIC>MOL_PROPERTY
W(SA)
SciTegic.value.DoubleValue
1.732

@<SCITEGIC>MOL_PROPERTY
Valence
SciTegic.value.DoubleValue
14.705

@<SCITEGIC>MOL_PROPERTY
Coulomb
SciTegic.value.DoubleValue
-10.687

@<SCITEGIC>MOL_PROPERTY
VdW
SciTegic.value.DoubleValue
0.490

@<SCITEGIC>MOL_PROPERTY
VdW6
SciTegic.value.DoubleValue
-3.745

@<SCITEGIC>MOL_PROPERTY
VdW12
SciTegic.value.DoubleValue
4.235

@<SCITEGIC>MOL_PROPERTY
Bond
SciTegic.value.DoubleValue
0.068

@<SCITEGIC>MOL_PROPERTY
Angle
SciTegic.value.DoubleValue
3.901

@<SCITEGIC>MOL_PROPERTY
Pdih
SciTegic.value.DoubleValue
10.737

@<SCITEGIC>MOL_PROPERTY
Idih
SciTegic.value.DoubleValue
0.000

@<SCITEGIC>MOL_PROPERTY
Tether
SciTegic.value.DoubleValue
0.000

@<TRIPOS>MOLECULE
guest-4_confgen4.mol2 : confsearch ligand conformer 496
          16          16           1
SMALL
USER_CHARGES
 
@<TRIPOS>ATOM
       1    C1      20.491681   18.835840   21.448516 C.3        1 MOL1        -0.1689
       2    H1      21.335628   18.296432   21.900700 H          1 MOL1         0.0830
       3    H2      20.841531   19.304997   20.518924 H          1 MOL1         0.0830
       4    C2      19.939590   19.859487   22.450050 C.3        1 MOL1        -0.1689
       5    H3      20.735847   20.361867   23.016043 H          1 MOL1         0.0830
       6    H4      19.362355   20.626191   21.914709 H          1 MOL1         0.0830
       7    C3      19.002789   19.041007   23.357272 C.3        1 MOL1        -0.1765
       8    H5      18.186319   19.659063   23.752533 H          1 MOL1         0.0830
       9    H6      19.573635   18.650150   24.210590 H          1 MOL1         0.0830
      10    C4      18.467842   17.878726   22.494362 C.3        1 MOL1         0.1214
      11    H7      17.416733   18.061165   22.227146 H          1 MOL1         0.0787
      12    C5      19.324003   17.860473   21.211207 C.3        1 MOL1        -0.1765
      13    H8      19.683083   16.852514   20.964017 H          1 MOL1         0.0830
      14    H9      18.714482   18.213352   20.369161 H          1 MOL1         0.0830
      15    O1      18.603367   16.646420   23.192176 O.3        1 MOL1        -0.5512
      16    H10     18.050683   16.717849   23.999004 H          1 MOL1         0.3776
@<TRIPOS>BOND
    1     1     2    1
    2     1     3    1
    3     1     4    1
    4     4     5    1
    5     4     6    1
    6     4     7    1
    7     7     8    1
    8     7     9    1
    9     7    10    1
   10    10    11    1
   11     1    12    1
   12    10    12    1
   13    12    13    1
   14    12    14    1
   15    10    15    1
   16    15    16    1
@<TRIPOS>SUBSTRUCTURE
       1 MOL1            1 RESIDUE      1      MOL     
@<SCITEGIC>MOL_PROPERTY
VConf Rank
SciTegic.value.IntegerValue
496

@<SCITEGIC>MOL_PROPERTY
Conf_Id
SciTegic.value.IntegerValue
59

@<SCITEGIC>MOL_PROPERTY
Delta U+W
SciTegic.value.DoubleValue
0.000

@<SCITEGIC>MOL_PROPERTY
U+W
SciTegic.value.DoubleValue
3.010

@<SCITEGIC>MOL_PROPERTY
Grad RMS
SciTegic.value.DoubleValue
0.000000

@<SCITEGIC>MOL_PROPERTY
U
SciTegic.value.DoubleValue
5.843

@<SCITEGIC>MOL_PROPERTY
W
SciTegic.value.DoubleValue
-2.833

@<SCITEGIC>MOL_PROPERTY
W(PB)
SciTegic.value.DoubleValue
-4.568

@<SCITEGIC>MOL_PROPERTY
W(SA)
SciTegic.value.DoubleValue
1.735

@<SCITEGIC>MOL_PROPERTY
Valence
SciTegic.value.DoubleValue
13.789

@<SCITEGIC>MOL_PROPERTY
Coulomb
SciTegic.value.DoubleValue
-8.574

@<SCITEGIC>MOL_PROPERTY
VdW
SciTegic.value.DoubleValue
0.628

@<SCITEGIC>MOL_PROPERTY
VdW6
SciTegic.value.DoubleValue
-3.284

@<SCITEGIC>MOL_PROPERTY
VdW12
SciTegic.value.DoubleValue
3.912

@<SCITEGIC>MOL_PROPERTY
Bond
SciTegic.value.DoubleValue
0.054

@<SCITEGIC>MOL_PROPERTY
Angle
SciTegic.value.DoubleValue
4.034

@<SCITEGIC>MOL_PROPERTY
Pdih
SciTegic.value.DoubleValue
9.702

@<SCITEGIC>MOL_PROPERTY
Idih
SciTegic.value.DoubleValue
0.000

@<SCITEGIC>MOL_PROPERTY
Tether
SciTegic.value.DoubleValue
0.000

@<TRIPOS>MOLECULE
guest-4_confgen4.mol2 : confsearch ligand conformer 497
          16          16           1
SMALL
USER_CHARGES
 
@<TRIPOS>ATOM
       1    C1      19.310879   17.677144   21.212482 C.3        1 MOL1        -0.1689
       2    H1      19.029899   17.667537   20.150542 H          1 MOL1         0.0830
       3    H2      19.695319   16.681747   21.475185 H          1 MOL1         0.0830
       4    C2      18.129570   18.031928   22.125917 C.3        1 MOL1        -0.1689
       5    H3      17.528309   18.824639   21.659255 H          1 MOL1         0.0830
       6    H4      17.474634   17.171263   22.318160 H          1 MOL1         0.0830
       7    C3      18.784617   18.570560   23.411167 C.3        1 MOL1        -0.1765
       8    H5      18.955933   17.743177   24.112003 H          1 MOL1         0.0830
       9    H6      18.143196   19.306577   23.914036 H          1 MOL1         0.0830
      10    C4      20.145048   19.166935   22.994797 C.3        1 MOL1         0.1214
      11    H7      20.936099   18.748512   23.634078 H          1 MOL1         0.0787
      12    C5      20.373486   18.745827   21.527753 C.3        1 MOL1        -0.1765
      13    H8      20.233515   19.605773   20.858661 H          1 MOL1         0.0830
      14    H9      21.389135   18.359612   21.372378 H          1 MOL1         0.0830
      15    O1      20.111318   20.585365   23.098790 O.3        1 MOL1        -0.5512
      16    H10     20.991659   20.909313   22.813153 H          1 MOL1         0.3776
@<TRIPOS>BOND
    1     1     2    1
    2     1     3    1
    3     1     4    1
    4     4     5    1
    5     4     6    1
    6     4     7    1
    7     7     8    1
    8     7     9    1
    9     7    10    1
   10    10    11    1
   11     1    12    1
   12    10    12    1
   13    12    13    1
   14    12    14    1
   15    10    15    1
   16    15    16    1
@<TRIPOS>SUBSTRUCTURE
       1 MOL1            1 RESIDUE      1      MOL     
@<SCITEGIC>MOL_PROPERTY
VConf Rank
SciTegic.value.IntegerValue
497

@<SCITEGIC>MOL_PROPERTY
Conf_Id
SciTegic.value.IntegerValue
33

@<SCITEGIC>MOL_PROPERTY
Delta U+W
SciTegic.value.DoubleValue
0.015

@<SCITEGIC>MOL_PROPERTY
U+W
SciTegic.value.DoubleValue
3.025

@<SCITEGIC>MOL_PROPERTY
Grad RMS
SciTegic.value.DoubleValue
0.000000

@<SCITEGIC>MOL_PROPERTY
U
SciTegic.value.DoubleValue
5.843

@<SCITEGIC>MOL_PROPERTY
W
SciTegic.value.DoubleValue
-2.819

@<SCITEGIC>MOL_PROPERTY
W(PB)
SciTegic.value.DoubleValue
-4.568

@<SCITEGIC>MOL_PROPERTY
W(SA)
SciTegic.value.DoubleValue
1.750

@<SCITEGIC>MOL_PROPERTY
Valence
SciTegic.value.DoubleValue
13.789

@<SCITEGIC>MOL_PROPERTY
Coulomb
SciTegic.value.DoubleValue
-8.574

@<SCITEGIC>MOL_PROPERTY
VdW
SciTegic.value.DoubleValue
0.628

@<SCITEGIC>MOL_PROPERTY
VdW6
SciTegic.value.DoubleValue
-3.284

@<SCITEGIC>MOL_PROPERTY
VdW12
SciTegic.value.DoubleValue
3.913

@<SCITEGIC>MOL_PROPERTY
Bond
SciTegic.value.DoubleValue
0.054

@<SCITEGIC>MOL_PROPERTY
Angle
SciTegic.value.DoubleValue
4.033

@<SCITEGIC>MOL_PROPERTY
Pdih
SciTegic.value.DoubleValue
9.702

@<SCITEGIC>MOL_PROPERTY
Idih
SciTegic.value.DoubleValue
0.000

@<SCITEGIC>MOL_PROPERTY
Tether
SciTegic.value.DoubleValue
0.000

@<TRIPOS>MOLECULE
guest-4_confgen4.mol2 : confsearch ligand conformer 498
          16          16           1
SMALL
USER_CHARGES
 
@<TRIPOS>ATOM
       1    C1      18.765031   19.793664   22.349933 C.3        1 MOL1        -0.1689
       2    H1      19.259370   20.603270   21.795501 H          1 MOL1         0.0830
       3    H2      17.865624   20.213209   22.821152 H          1 MOL1         0.0830
       4    C2      19.734786   19.207193   23.399052 C.3        1 MOL1        -0.1689
       5    H3      20.698086   19.733659   23.353088 H          1 MOL1         0.0830
       6    H4      19.342176   19.319047   24.419025 H          1 MOL1         0.0830
       7    C3      19.922966   17.718544   23.037187 C.3        1 MOL1        -0.1765
       8    H5      19.256979   17.103415   23.656621 H          1 MOL1         0.0830
       9    H6      20.951659   17.375036   23.209810 H          1 MOL1         0.0830
      10    C4      19.503505   17.582023   21.567354 C.3        1 MOL1         0.1214
      11    H7      19.133526   16.570888   21.344410 H          1 MOL1         0.0787
      12    C5      18.402666   18.637078   21.394236 C.3        1 MOL1        -0.1765
      13    H8      18.307545   18.971989   20.352703 H          1 MOL1         0.0830
      14    H9      17.440605   18.201073   21.694172 H          1 MOL1         0.0830
      15    O1      20.604533   17.913824   20.734016 O.3        1 MOL1        -0.5512
      16    H10     20.862695   18.819851   21.001655 H          1 MOL1         0.3776
@<TRIPOS>BOND
    1     1     2    1
    2     1     3    1
    3     1     4    1
    4     4     5    1
    5     4     6    1
    6     4     7    1
    7     7     8    1
    8     7     9    1
    9     7    10    1
   10    10    11    1
   11     1    12    1
   12    10    12    1
   13    12    13    1
   14    12    14    1
   15    10    15    1
   16    15    16    1
@<TRIPOS>SUBSTRUCTURE
       1 MOL1            1 RESIDUE      1      MOL     
@<SCITEGIC>MOL_PROPERTY
VConf Rank
SciTegic.value.IntegerValue
498

@<SCITEGIC>MOL_PROPERTY
Conf_Id
SciTegic.value.IntegerValue
20

@<SCITEGIC>MOL_PROPERTY
Delta U+W
SciTegic.value.DoubleValue
-0.483

@<SCITEGIC>MOL_PROPERTY
U+W
SciTegic.value.DoubleValue
2.527

@<SCITEGIC>MOL_PROPERTY
Grad RMS
SciTegic.value.DoubleValue
0.000000

@<SCITEGIC>MOL_PROPERTY
U
SciTegic.value.DoubleValue
4.508

@<SCITEGIC>MOL_PROPERTY
W
SciTegic.value.DoubleValue
-1.981

@<SCITEGIC>MOL_PROPERTY
W(PB)
SciTegic.value.DoubleValue
-3.712

@<SCITEGIC>MOL_PROPERTY
W(SA)
SciTegic.value.DoubleValue
1.732

@<SCITEGIC>MOL_PROPERTY
Valence
SciTegic.value.DoubleValue
14.705

@<SCITEGIC>MOL_PROPERTY
Coulomb
SciTegic.value.DoubleValue
-10.687

@<SCITEGIC>MOL_PROPERTY
VdW
SciTegic.value.DoubleValue
0.490

@<SCITEGIC>MOL_PROPERTY
VdW6
SciTegic.value.DoubleValue
-3.745

@<SCITEGIC>MOL_PROPERTY
VdW12
SciTegic.value.DoubleValue
4.235

@<SCITEGIC>MOL_PROPERTY
Bond
SciTegic.value.DoubleValue
0.068

@<SCITEGIC>MOL_PROPERTY
Angle
SciTegic.value.DoubleValue
3.901

@<SCITEGIC>MOL_PROPERTY
Pdih
SciTegic.value.DoubleValue
10.737

@<SCITEGIC>MOL_PROPERTY
Idih
SciTegic.value.DoubleValue
0.000

@<SCITEGIC>MOL_PROPERTY
Tether
SciTegic.value.DoubleValue
0.000

@<TRIPOS>MOLECULE
guest-4_confgen4.mol2 : confsearch ligand conformer 499
          16          16           1
SMALL
USER_CHARGES
 
@<TRIPOS>ATOM
       1    C1      18.386957   17.655015   21.712275 C.3        1 MOL1        -0.1689
       2    H1      17.790510   17.276157   22.553937 H          1 MOL1         0.0830
       3    H2      17.968660   17.246135   20.782496 H          1 MOL1         0.0830
       4    C2      19.859530   17.270769   21.911305 C.3        1 MOL1        -0.1689
       5    H3      19.975665   16.256819   22.317727 H          1 MOL1         0.0830
       6    H4      20.387148   17.317523   20.948467 H          1 MOL1         0.0830
       7    C3      20.411937   18.349469   22.860941 C.3        1 MOL1        -0.1765
       8    H5      21.483448   18.519797   22.694507 H          1 MOL1         0.0830
       9    H6      20.280128   18.020156   23.900635 H          1 MOL1         0.0830
      10    C4      19.586674   19.626297   22.595743 C.3        1 MOL1         0.1214
      11    H7      20.191661   20.356528   22.038722 H          1 MOL1         0.0787
      12    C5      18.384634   19.194753   21.730467 C.3        1 MOL1        -0.1765
      13    H8      17.433960   19.593132   22.109328 H          1 MOL1         0.0830
      14    H9      18.523006   19.575497   20.710189 H          1 MOL1         0.0830
      15    O1      19.132618   20.181389   23.824399 O.3        1 MOL1        -0.5512
      16    H10     19.933030   20.426097   24.335272 H          1 MOL1         0.3776
@<TRIPOS>BOND
    1     1     2    1
    2     1     3    1
    3     1     4    1
    4     4     5    1
    5     4     6    1
    6     4     7    1
    7     7     8    1
    8     7     9    1
    9     7    10    1
   10    10    11    1
   11     1    12    1
   12    10    12    1
   13    12    13    1
   14    12    14    1
   15    10    15    1
   16    15    16    1
@<TRIPOS>SUBSTRUCTURE
       1 MOL1            1 RESIDUE      1      MOL     
@<SCITEGIC>MOL_PROPERTY
VConf Rank
SciTegic.value.IntegerValue
499

@<SCITEGIC>MOL_PROPERTY
Conf_Id
SciTegic.value.IntegerValue
59

@<SCITEGIC>MOL_PROPERTY
Delta U+W
SciTegic.value.DoubleValue
0.000

@<SCITEGIC>MOL_PROPERTY
U+W
SciTegic.value.DoubleValue
3.010

@<SCITEGIC>MOL_PROPERTY
Grad RMS
SciTegic.value.DoubleValue
0.000000

@<SCITEGIC>MOL_PROPERTY
U
SciTegic.value.DoubleValue
5.843

@<SCITEGIC>MOL_PROPERTY
W
SciTegic.value.DoubleValue
-2.833

@<SCITEGIC>MOL_PROPERTY
W(PB)
SciTegic.value.DoubleValue
-4.568

@<SCITEGIC>MOL_PROPERTY
W(SA)
SciTegic.value.DoubleValue
1.735

@<SCITEGIC>MOL_PROPERTY
Valence
SciTegic.value.DoubleValue
13.789

@<SCITEGIC>MOL_PROPERTY
Coulomb
SciTegic.value.DoubleValue
-8.574

@<SCITEGIC>MOL_PROPERTY
VdW
SciTegic.value.DoubleValue
0.628

@<SCITEGIC>MOL_PROPERTY
VdW6
SciTegic.value.DoubleValue
-3.284

@<SCITEGIC>MOL_PROPERTY
VdW12
SciTegic.value.DoubleValue
3.912

@<SCITEGIC>MOL_PROPERTY
Bond
SciTegic.value.DoubleValue
0.054

@<SCITEGIC>MOL_PROPERTY
Angle
SciTegic.value.DoubleValue
4.034

@<SCITEGIC>MOL_PROPERTY
Pdih
SciTegic.value.DoubleValue
9.702

@<SCITEGIC>MOL_PROPERTY
Idih
SciTegic.value.DoubleValue
0.000

@<SCITEGIC>MOL_PROPERTY
Tether
SciTegic.value.DoubleValue
0.000

@<TRIPOS>MOLECULE
guest-4_confgen4.mol2 : confsearch ligand conformer 500
          16          16           1
SMALL
USER_CHARGES
 
@<TRIPOS>ATOM
       1    C1      20.467446   19.111648   21.409166 C.3        1 MOL1        -0.1689
       2    H1      20.882691   20.072711   21.076465 H          1 MOL1         0.0830
       3    H2      21.104843   18.307425   21.016011 H          1 MOL1         0.0830
       4    C2      19.022687   18.904074   20.934495 C.3        1 MOL1        -0.1689
       5    H3      18.470975   19.851601   21.008565 H          1 MOL1         0.0830
       6    H4      18.968874   18.554921   19.894381 H          1 MOL1         0.0830
       7    C3      18.433524   17.885362   21.927565 C.3        1 MOL1        -0.1765
       8    H5      18.602607   16.866910   21.554402 H          1 MOL1         0.0830
       9    H6      17.350613   18.020324   22.050488 H          1 MOL1         0.0830
      10    C4      19.200724   18.069171   23.253241 C.3        1 MOL1         0.1214
      11    H7      19.573960   17.092873   23.595378 H          1 MOL1         0.0787
      12    C5      20.385358   19.008448   22.943187 C.3        1 MOL1        -0.1765
      13    H8      20.200869   20.005842   23.365031 H          1 MOL1         0.0830
      14    H9      21.322903   18.629873   23.370430 H          1 MOL1         0.0830
      15    O1      18.352759   18.655663   24.233486 O.3        1 MOL1        -0.5512
      16    H10     18.891784   18.759067   25.046067 H          1 MOL1         0.3776
@<TRIPOS>BOND
    1     1     2    1
    2     1     3    1
    3     1     4    1
    4     4     5    1
    5     4     6    1
    6     4     7    1
    7     7     8    1
    8     7     9    1
    9     7    10    1
   10    10    11    1
   11     1    12    1
   12    10    12    1
   13    12    13    1
   14    12    14    1
   15    10    15    1
   16    15    16    1
@<TRIPOS>SUBSTRUCTURE
       1 MOL1            1 RESIDUE      1      MOL     
@<SCITEGIC>MOL_PROPERTY
VConf Rank
SciTegic.value.IntegerValue
500

@<SCITEGIC>MOL_PROPERTY
Conf_Id
SciTegic.value.IntegerValue
33

@<SCITEGIC>MOL_PROPERTY
Delta U+W
SciTegic.value.DoubleValue
0.015

@<SCITEGIC>MOL_PROPERTY
U+W
SciTegic.value.DoubleValue
3.025

@<SCITEGIC>MOL_PROPERTY
Grad RMS
SciTegic.value.DoubleValue
0.000000

@<SCITEGIC>MOL_PROPERTY
U
SciTegic.value.DoubleValue
5.843

@<SCITEGIC>MOL_PROPERTY
W
SciTegic.value.DoubleValue
-2.819

@<SCITEGIC>MOL_PROPERTY
W(PB)
SciTegic.value.DoubleValue
-4.568

@<SCITEGIC>MOL_PROPERTY
W(SA)
SciTegic.value.DoubleValue
1.750

@<SCITEGIC>MOL_PROPERTY
Valence
SciTegic.value.DoubleValue
13.789

@<SCITEGIC>MOL_PROPERTY
Coulomb
SciTegic.value.DoubleValue
-8.574

@<SCITEGIC>MOL_PROPERTY
VdW
SciTegic.value.DoubleValue
0.628

@<SCITEGIC>MOL_PROPERTY
VdW6
SciTegic.value.DoubleValue
-3.284

@<SCITEGIC>MOL_PROPERTY
VdW12
SciTegic.value.DoubleValue
3.913

@<SCITEGIC>MOL_PROPERTY
Bond
SciTegic.value.DoubleValue
0.054

@<SCITEGIC>MOL_PROPERTY
Angle
SciTegic.value.DoubleValue
4.033

@<SCITEGIC>MOL_PROPERTY
Pdih
SciTegic.value.DoubleValue
9.702

@<SCITEGIC>MOL_PROPERTY
Idih
SciTegic.value.DoubleValue
0.000

@<SCITEGIC>MOL_PROPERTY
Tether
SciTegic.value.DoubleValue
0.000

@<TRIPOS>MOLECULE
guest-4_confgen4.mol2 : confsearch ligand conformer 501
          16          16           1
SMALL
USER_CHARGES
 
@<TRIPOS>ATOM
       1    C1      18.123706   18.467904   21.821252 C.3        1 MOL1        -0.1689
       2    H1      17.988621   17.659111   21.089930 H          1 MOL1         0.0830
       3    H2      17.141073   18.927381   21.995351 H          1 MOL1         0.0830
       4    C2      19.144224   19.495646   21.285237 C.3        1 MOL1        -0.1689
       5    H3      19.502238   19.184808   20.294059 H          1 MOL1         0.0830
       6    H4      18.695684   20.493000   21.179905 H          1 MOL1         0.0830
       7    C3      20.313935   19.516934   22.292092 C.3        1 MOL1        -0.1765
       8    H5      20.186602   20.359465   22.984586 H          1 MOL1         0.0830
       9    H6      21.287076   19.635380   21.797146 H          1 MOL1         0.0830
      10    C4      20.219265   18.204376   23.081536 C.3        1 MOL1         0.1214
      11    H7      20.645838   18.306941   24.089752 H          1 MOL1         0.0787
      12    C5      18.714502   17.907650   23.132524 C.3        1 MOL1        -0.1765
      13    H8      18.505688   16.836963   23.259130 H          1 MOL1         0.0830
      14    H9      18.275483   18.437155   23.988391 H          1 MOL1         0.0830
      15    O1      20.874809   17.174170   22.356454 O.3        1 MOL1        -0.5512
      16    H10     20.433008   17.156881   21.482569 H          1 MOL1         0.3776
@<TRIPOS>BOND
    1     1     2    1
    2     1     3    1
    3     1     4    1
    4     4     5    1
    5     4     6    1
    6     4     7    1
    7     7     8    1
    8     7     9    1
    9     7    10    1
   10    10    11    1
   11     1    12    1
   12    10    12    1
   13    12    13    1
   14    12    14    1
   15    10    15    1
   16    15    16    1
@<TRIPOS>SUBSTRUCTURE
       1 MOL1            1 RESIDUE      1      MOL     
@<SCITEGIC>MOL_PROPERTY
VConf Rank
SciTegic.value.IntegerValue
501

@<SCITEGIC>MOL_PROPERTY
Conf_Id
SciTegic.value.IntegerValue
20

@<SCITEGIC>MOL_PROPERTY
Delta U+W
SciTegic.value.DoubleValue
-0.483

@<SCITEGIC>MOL_PROPERTY
U+W
SciTegic.value.DoubleValue
2.527

@<SCITEGIC>MOL_PROPERTY
Grad RMS
SciTegic.value.DoubleValue
0.000000

@<SCITEGIC>MOL_PROPERTY
U
SciTegic.value.DoubleValue
4.508

@<SCITEGIC>MOL_PROPERTY
W
SciTegic.value.DoubleValue
-1.981

@<SCITEGIC>MOL_PROPERTY
W(PB)
SciTegic.value.DoubleValue
-3.712

@<SCITEGIC>MOL_PROPERTY
W(SA)
SciTegic.value.DoubleValue
1.732

@<SCITEGIC>MOL_PROPERTY
Valence
SciTegic.value.DoubleValue
14.705

@<SCITEGIC>MOL_PROPERTY
Coulomb
SciTegic.value.DoubleValue
-10.687

@<SCITEGIC>MOL_PROPERTY
VdW
SciTegic.value.DoubleValue
0.490

@<SCITEGIC>MOL_PROPERTY
VdW6
SciTegic.value.DoubleValue
-3.745

@<SCITEGIC>MOL_PROPERTY
VdW12
SciTegic.value.DoubleValue
4.235

@<SCITEGIC>MOL_PROPERTY
Bond
SciTegic.value.DoubleValue
0.068

@<SCITEGIC>MOL_PROPERTY
Angle
SciTegic.value.DoubleValue
3.901

@<SCITEGIC>MOL_PROPERTY
Pdih
SciTegic.value.DoubleValue
10.737

@<SCITEGIC>MOL_PROPERTY
Idih
SciTegic.value.DoubleValue
0.000

@<SCITEGIC>MOL_PROPERTY
Tether
SciTegic.value.DoubleValue
0.000

@<TRIPOS>MOLECULE
guest-4_confgen4.mol2 : confsearch ligand conformer 502
          16          16           1
SMALL
USER_CHARGES
 
@<TRIPOS>ATOM
       1    C1      20.274901   19.682059   22.343937 C.3        1 MOL1        -0.1689
       2    H1      19.870669   20.356745   23.111447 H          1 MOL1         0.0830
       3    H2      21.215125   20.109892   21.970332 H          1 MOL1         0.0830
       4    C2      19.236045   19.488065   21.230891 C.3        1 MOL1        -0.1689
       5    H3      18.704030   20.418222   20.988967 H          1 MOL1         0.0830
       6    H4      19.733803   19.129805   20.319018 H          1 MOL1         0.0830
       7    C3      18.293404   18.397796   21.772462 C.3        1 MOL1        -0.1765
       8    H5      17.851714   17.808805   20.958309 H          1 MOL1         0.0830
       9    H6      17.473506   18.870678   22.330077 H          1 MOL1         0.0830
      10    C4      19.142208   17.517330   22.713733 C.3        1 MOL1         0.1214
      11    H7      19.355611   16.550832   22.234296 H          1 MOL1         0.0787
      12    C5      20.465830   18.276068   22.942156 C.3        1 MOL1        -0.1765
      13    H8      20.741674   18.322620   24.004118 H          1 MOL1         0.0830
      14    H9      21.273008   17.755839   22.410265 H          1 MOL1         0.0830
      15    O1      18.465844   17.327277   23.950786 O.3        1 MOL1        -0.5512
      16    H10     17.632193   16.853502   23.745617 H          1 MOL1         0.3776
@<TRIPOS>BOND
    1     1     2    1
    2     1     3    1
    3     1     4    1
    4     4     5    1
    5     4     6    1
    6     4     7    1
    7     7     8    1
    8     7     9    1
    9     7    10    1
   10    10    11    1
   11     1    12    1
   12    10    12    1
   13    12    13    1
   14    12    14    1
   15    10    15    1
   16    15    16    1
@<TRIPOS>SUBSTRUCTURE
       1 MOL1            1 RESIDUE      1      MOL     
@<SCITEGIC>MOL_PROPERTY
VConf Rank
SciTegic.value.IntegerValue
502

@<SCITEGIC>MOL_PROPERTY
Conf_Id
SciTegic.value.IntegerValue
59

@<SCITEGIC>MOL_PROPERTY
Delta U+W
SciTegic.value.DoubleValue
0.000

@<SCITEGIC>MOL_PROPERTY
U+W
SciTegic.value.DoubleValue
3.010

@<SCITEGIC>MOL_PROPERTY
Grad RMS
SciTegic.value.DoubleValue
0.000000

@<SCITEGIC>MOL_PROPERTY
U
SciTegic.value.DoubleValue
5.843

@<SCITEGIC>MOL_PROPERTY
W
SciTegic.value.DoubleValue
-2.833

@<SCITEGIC>MOL_PROPERTY
W(PB)
SciTegic.value.DoubleValue
-4.568

@<SCITEGIC>MOL_PROPERTY
W(SA)
SciTegic.value.DoubleValue
1.735

@<SCITEGIC>MOL_PROPERTY
Valence
SciTegic.value.DoubleValue
13.789

@<SCITEGIC>MOL_PROPERTY
Coulomb
SciTegic.value.DoubleValue
-8.574

@<SCITEGIC>MOL_PROPERTY
VdW
SciTegic.value.DoubleValue
0.628

@<SCITEGIC>MOL_PROPERTY
VdW6
SciTegic.value.DoubleValue
-3.284

@<SCITEGIC>MOL_PROPERTY
VdW12
SciTegic.value.DoubleValue
3.912

@<SCITEGIC>MOL_PROPERTY
Bond
SciTegic.value.DoubleValue
0.054

@<SCITEGIC>MOL_PROPERTY
Angle
SciTegic.value.DoubleValue
4.034

@<SCITEGIC>MOL_PROPERTY
Pdih
SciTegic.value.DoubleValue
9.702

@<SCITEGIC>MOL_PROPERTY
Idih
SciTegic.value.DoubleValue
0.000

@<SCITEGIC>MOL_PROPERTY
Tether
SciTegic.value.DoubleValue
0.000

@<TRIPOS>MOLECULE
guest-4_confgen4.mol2 : confsearch ligand conformer 503
          16          16           1
SMALL
USER_CHARGES
 
@<TRIPOS>ATOM
       1    C1      20.878242   18.755333   22.214783 C.3        1 MOL1        -0.1689
       2    H1      21.750097   18.782151   22.882546 H          1 MOL1         0.0830
       3    H2      21.240546   18.724751   21.177758 H          1 MOL1         0.0830
       4    C2      19.959391   19.969932   22.405021 C.3        1 MOL1        -0.1689
       5    H3      19.886359   20.212578   23.474352 H          1 MOL1         0.0830
       6    H4      20.324811   20.859640   21.874428 H          1 MOL1         0.0830
       7    C3      18.587263   19.499680   21.888102 C.3        1 MOL1        -0.1765
       8    H5      18.501544   19.721453   20.816396 H          1 MOL1         0.0830
       9    H6      17.763851   20.013263   22.402148 H          1 MOL1         0.0830
      10    C4      18.541257   17.971073   22.090689 C.3        1 MOL1         0.1214
      11    H7      18.250320   17.488045   21.146465 H          1 MOL1         0.0787
      12    C5      19.970138   17.541754   22.485304 C.3        1 MOL1        -0.1765
      13    H8      20.010296   17.288946   23.553601 H          1 MOL1         0.0830
      14    H9      20.297961   16.661143   21.917938 H          1 MOL1         0.0830
      15    O1      17.625414   17.641081   23.128105 O.3        1 MOL1        -0.5512
      16    H10     17.645126   16.665087   23.220722 H          1 MOL1         0.3776
@<TRIPOS>BOND
    1     1     2    1
    2     1     3    1
    3     1     4    1
    4     4     5    1
    5     4     6    1
    6     4     7    1
    7     7     8    1
    8     7     9    1
    9     7    10    1
   10    10    11    1
   11     1    12    1
   12    10    12    1
   13    12    13    1
   14    12    14    1
   15    10    15    1
   16    15    16    1
@<TRIPOS>SUBSTRUCTURE
       1 MOL1            1 RESIDUE      1      MOL     
@<SCITEGIC>MOL_PROPERTY
VConf Rank
SciTegic.value.IntegerValue
503

@<SCITEGIC>MOL_PROPERTY
Conf_Id
SciTegic.value.IntegerValue
33

@<SCITEGIC>MOL_PROPERTY
Delta U+W
SciTegic.value.DoubleValue
0.015

@<SCITEGIC>MOL_PROPERTY
U+W
SciTegic.value.DoubleValue
3.025

@<SCITEGIC>MOL_PROPERTY
Grad RMS
SciTegic.value.DoubleValue
0.000000

@<SCITEGIC>MOL_PROPERTY
U
SciTegic.value.DoubleValue
5.843

@<SCITEGIC>MOL_PROPERTY
W
SciTegic.value.DoubleValue
-2.819

@<SCITEGIC>MOL_PROPERTY
W(PB)
SciTegic.value.DoubleValue
-4.568

@<SCITEGIC>MOL_PROPERTY
W(SA)
SciTegic.value.DoubleValue
1.750

@<SCITEGIC>MOL_PROPERTY
Valence
SciTegic.value.DoubleValue
13.789

@<SCITEGIC>MOL_PROPERTY
Coulomb
SciTegic.value.DoubleValue
-8.574

@<SCITEGIC>MOL_PROPERTY
VdW
SciTegic.value.DoubleValue
0.628

@<SCITEGIC>MOL_PROPERTY
VdW6
SciTegic.value.DoubleValue
-3.284

@<SCITEGIC>MOL_PROPERTY
VdW12
SciTegic.value.DoubleValue
3.913

@<SCITEGIC>MOL_PROPERTY
Bond
SciTegic.value.DoubleValue
0.054

@<SCITEGIC>MOL_PROPERTY
Angle
SciTegic.value.DoubleValue
4.033

@<SCITEGIC>MOL_PROPERTY
Pdih
SciTegic.value.DoubleValue
9.702

@<SCITEGIC>MOL_PROPERTY
Idih
SciTegic.value.DoubleValue
0.000

@<SCITEGIC>MOL_PROPERTY
Tether
SciTegic.value.DoubleValue
0.000

@<TRIPOS>MOLECULE
guest-4_confgen4.mol2 : confsearch ligand conformer 504
          16          16           1
SMALL
USER_CHARGES
 
@<TRIPOS>ATOM
       1    C1      18.186571   18.271876   21.757717 C.3        1 MOL1        -0.1689
       2    H1      17.713669   19.053978   21.147874 H          1 MOL1         0.0830
       3    H2      17.517010   17.400855   21.760364 H          1 MOL1         0.0830
       4    C2      18.436946   18.800029   23.187188 C.3        1 MOL1        -0.1689
       5    H3      18.084262   19.837367   23.269468 H          1 MOL1         0.0830
       6    H4      17.899148   18.204638   23.937709 H          1 MOL1         0.0830
       7    C3      19.961936   18.735573   23.416729 C.3        1 MOL1        -0.1765
       8    H5      20.211676   17.818755   23.966906 H          1 MOL1         0.0830
       9    H6      20.331065   19.587887   24.002656 H          1 MOL1         0.0830
      10    C4      20.599298   18.669190   22.022327 C.3        1 MOL1         0.1214
      11    H7      21.568281   18.150002   22.044657 H          1 MOL1         0.0787
      12    C5      19.569554   17.906949   21.177594 C.3        1 MOL1        -0.1765
      13    H8      19.649030   18.146535   20.108816 H          1 MOL1         0.0830
      14    H9      19.742481   16.828700   21.292037 H          1 MOL1         0.0830
      15    O1      20.741779   19.986030   21.510039 O.3        1 MOL1        -0.5512
      16    H10     19.839047   20.365399   21.527834 H          1 MOL1         0.3776
@<TRIPOS>BOND
    1     1     2    1
    2     1     3    1
    3     1     4    1
    4     4     5    1
    5     4     6    1
    6     4     7    1
    7     7     8    1
    8     7     9    1
    9     7    10    1
   10    10    11    1
   11     1    12    1
   12    10    12    1
   13    12    13    1
   14    12    14    1
   15    10    15    1
   16    15    16    1
@<TRIPOS>SUBSTRUCTURE
       1 MOL1            1 RESIDUE      1      MOL     
@<SCITEGIC>MOL_PROPERTY
VConf Rank
SciTegic.value.IntegerValue
504

@<SCITEGIC>MOL_PROPERTY
Conf_Id
SciTegic.value.IntegerValue
20

@<SCITEGIC>MOL_PROPERTY
Delta U+W
SciTegic.value.DoubleValue
-0.483

@<SCITEGIC>MOL_PROPERTY
U+W
SciTegic.value.DoubleValue
2.527

@<SCITEGIC>MOL_PROPERTY
Grad RMS
SciTegic.value.DoubleValue
0.000000

@<SCITEGIC>MOL_PROPERTY
U
SciTegic.value.DoubleValue
4.508

@<SCITEGIC>MOL_PROPERTY
W
SciTegic.value.DoubleValue
-1.981

@<SCITEGIC>MOL_PROPERTY
W(PB)
SciTegic.value.DoubleValue
-3.712

@<SCITEGIC>MOL_PROPERTY
W(SA)
SciTegic.value.DoubleValue
1.732

@<SCITEGIC>MOL_PROPERTY
Valence
SciTegic.value.DoubleValue
14.705

@<SCITEGIC>MOL_PROPERTY
Coulomb
SciTegic.value.DoubleValue
-10.687

@<SCITEGIC>MOL_PROPERTY
VdW
SciTegic.value.DoubleValue
0.490

@<SCITEGIC>MOL_PROPERTY
VdW6
SciTegic.value.DoubleValue
-3.745

@<SCITEGIC>MOL_PROPERTY
VdW12
SciTegic.value.DoubleValue
4.235

@<SCITEGIC>MOL_PROPERTY
Bond
SciTegic.value.DoubleValue
0.068

@<SCITEGIC>MOL_PROPERTY
Angle
SciTegic.value.DoubleValue
3.901

@<SCITEGIC>MOL_PROPERTY
Pdih
SciTegic.value.DoubleValue
10.737

@<SCITEGIC>MOL_PROPERTY
Idih
SciTegic.value.DoubleValue
0.000

@<SCITEGIC>MOL_PROPERTY
Tether
SciTegic.value.DoubleValue
0.000

@<TRIPOS>MOLECULE
guest-4_confgen4.mol2 : confsearch ligand conformer 505
          16          16           1
SMALL
USER_CHARGES
 
@<TRIPOS>ATOM
       1    C1      19.623843   17.284369   22.970572 C.3        1 MOL1        -0.1689
       2    H1      18.746666   17.104682   23.607714 H          1 MOL1         0.0830
       3    H2      20.292899   16.417122   23.053579 H          1 MOL1         0.0830
       4    C2      20.305869   18.593310   23.391573 C.3        1 MOL1        -0.1689
       5    H3      20.322310   18.724073   24.482164 H          1 MOL1         0.0830
       6    H4      21.343094   18.603031   23.028675 H          1 MOL1         0.0830
       7    C3      19.495304   19.693166   22.681743 C.3        1 MOL1        -0.1765
       8    H5      20.117054   20.570381   22.460913 H          1 MOL1         0.0830
       9    H6      18.673729   20.017675   23.334807 H          1 MOL1         0.0830
      10    C4      18.934212   19.056543   21.392725 C.3        1 MOL1         0.1214
      11    H7      19.482052   19.434276   20.517107 H          1 MOL1         0.0787
      12    C5      19.166063   17.536899   21.522195 C.3        1 MOL1        -0.1765
      13    H8      18.267700   16.955643   21.274999 H          1 MOL1         0.0830
      14    H9      19.960278   17.235469   20.826893 H          1 MOL1         0.0830
      15    O1      17.543620   19.332334   21.274059 O.3        1 MOL1        -0.5512
      16    H10     17.454872   20.306561   21.206693 H          1 MOL1         0.3776
@<TRIPOS>BOND
    1     1     2    1
    2     1     3    1
    3     1     4    1
    4     4     5    1
    5     4     6    1
    6     4     7    1
    7     7     8    1
    8     7     9    1
    9     7    10    1
   10    10    11    1
   11     1    12    1
   12    10    12    1
   13    12    13    1
   14    12    14    1
   15    10    15    1
   16    15    16    1
@<TRIPOS>SUBSTRUCTURE
       1 MOL1            1 RESIDUE      1      MOL     
@<SCITEGIC>MOL_PROPERTY
VConf Rank
SciTegic.value.IntegerValue
505

@<SCITEGIC>MOL_PROPERTY
Conf_Id
SciTegic.value.IntegerValue
59

@<SCITEGIC>MOL_PROPERTY
Delta U+W
SciTegic.value.DoubleValue
0.000

@<SCITEGIC>MOL_PROPERTY
U+W
SciTegic.value.DoubleValue
3.010

@<SCITEGIC>MOL_PROPERTY
Grad RMS
SciTegic.value.DoubleValue
0.000000

@<SCITEGIC>MOL_PROPERTY
U
SciTegic.value.DoubleValue
5.843

@<SCITEGIC>MOL_PROPERTY
W
SciTegic.value.DoubleValue
-2.833

@<SCITEGIC>MOL_PROPERTY
W(PB)
SciTegic.value.DoubleValue
-4.568

@<SCITEGIC>MOL_PROPERTY
W(SA)
SciTegic.value.DoubleValue
1.735

@<SCITEGIC>MOL_PROPERTY
Valence
SciTegic.value.DoubleValue
13.789

@<SCITEGIC>MOL_PROPERTY
Coulomb
SciTegic.value.DoubleValue
-8.574

@<SCITEGIC>MOL_PROPERTY
VdW
SciTegic.value.DoubleValue
0.628

@<SCITEGIC>MOL_PROPERTY
VdW6
SciTegic.value.DoubleValue
-3.284

@<SCITEGIC>MOL_PROPERTY
VdW12
SciTegic.value.DoubleValue
3.912

@<SCITEGIC>MOL_PROPERTY
Bond
SciTegic.value.DoubleValue
0.054

@<SCITEGIC>MOL_PROPERTY
Angle
SciTegic.value.DoubleValue
4.034

@<SCITEGIC>MOL_PROPERTY
Pdih
SciTegic.value.DoubleValue
9.702

@<SCITEGIC>MOL_PROPERTY
Idih
SciTegic.value.DoubleValue
0.000

@<SCITEGIC>MOL_PROPERTY
Tether
SciTegic.value.DoubleValue
0.000

@<TRIPOS>MOLECULE
guest-4_confgen4.mol2 : confsearch ligand conformer 506
          16          16           1
SMALL
USER_CHARGES
 
@<TRIPOS>ATOM
       1    C1      20.730249   18.047595   22.620885 C.3        1 MOL1        -0.1689
       2    H1      21.438893   17.305931   22.227797 H          1 MOL1         0.0830
       3    H2      21.213076   18.575825   23.454834 H          1 MOL1         0.0830
       4    C2      19.422072   17.406529   23.104036 C.3        1 MOL1        -0.1689
       5    H3      19.126863   16.605583   22.411925 H          1 MOL1         0.0830
       6    H4      19.512659   16.975680   24.110418 H          1 MOL1         0.0830
       7    C3      18.389035   18.546827   23.043781 C.3        1 MOL1        -0.1765
       8    H5      18.372065   19.079675   24.003400 H          1 MOL1         0.0830
       9    H6      17.376466   18.165561   22.855737 H          1 MOL1         0.0830
      10    C4      18.865052   19.513649   21.939942 C.3        1 MOL1         0.1214
      11    H7      18.892889   20.537372   22.340862 H          1 MOL1         0.0787
      12    C5      20.287617   19.060533   21.549137 C.3        1 MOL1        -0.1765
      13    H8      20.273970   18.567944   20.567327 H          1 MOL1         0.0830
      14    H9      20.979809   19.910390   21.490316 H          1 MOL1         0.0830
      15    O1      17.998863   19.437288   20.813982 O.3        1 MOL1        -0.5512
      16    H10     18.353037   20.059530   20.143979 H          1 MOL1         0.3776
@<TRIPOS>BOND
    1     1     2    1
    2     1     3    1
    3     1     4    1
    4     4     5    1
    5     4     6    1
    6     4     7    1
    7     7     8    1
    8     7     9    1
    9     7    10    1
   10    10    11    1
   11     1    12    1
   12    10    12    1
   13    12    13    1
   14    12    14    1
   15    10    15    1
   16    15    16    1
@<TRIPOS>SUBSTRUCTURE
       1 MOL1            1 RESIDUE      1      MOL     
@<SCITEGIC>MOL_PROPERTY
VConf Rank
SciTegic.value.IntegerValue
506

@<SCITEGIC>MOL_PROPERTY
Conf_Id
SciTegic.value.IntegerValue
33

@<SCITEGIC>MOL_PROPERTY
Delta U+W
SciTegic.value.DoubleValue
0.015

@<SCITEGIC>MOL_PROPERTY
U+W
SciTegic.value.DoubleValue
3.025

@<SCITEGIC>MOL_PROPERTY
Grad RMS
SciTegic.value.DoubleValue
0.000000

@<SCITEGIC>MOL_PROPERTY
U
SciTegic.value.DoubleValue
5.843

@<SCITEGIC>MOL_PROPERTY
W
SciTegic.value.DoubleValue
-2.819

@<SCITEGIC>MOL_PROPERTY
W(PB)
SciTegic.value.DoubleValue
-4.568

@<SCITEGIC>MOL_PROPERTY
W(SA)
SciTegic.value.DoubleValue
1.750

@<SCITEGIC>MOL_PROPERTY
Valence
SciTegic.value.DoubleValue
13.789

@<SCITEGIC>MOL_PROPERTY
Coulomb
SciTegic.value.DoubleValue
-8.574

@<SCITEGIC>MOL_PROPERTY
VdW
SciTegic.value.DoubleValue
0.628

@<SCITEGIC>MOL_PROPERTY
VdW6
SciTegic.value.DoubleValue
-3.284

@<SCITEGIC>MOL_PROPERTY
VdW12
SciTegic.value.DoubleValue
3.913

@<SCITEGIC>MOL_PROPERTY
Bond
SciTegic.value.DoubleValue
0.054

@<SCITEGIC>MOL_PROPERTY
Angle
SciTegic.value.DoubleValue
4.033

@<SCITEGIC>MOL_PROPERTY
Pdih
SciTegic.value.DoubleValue
9.702

@<SCITEGIC>MOL_PROPERTY
Idih
SciTegic.value.DoubleValue
0.000

@<SCITEGIC>MOL_PROPERTY
Tether
SciTegic.value.DoubleValue
0.000

@<TRIPOS>MOLECULE
guest-4_confgen4.mol2 : confsearch ligand conformer 507
          16          16           1
SMALL
USER_CHARGES
 
@<TRIPOS>ATOM
       1    C1      18.440275   17.703965   21.968536 C.3        1 MOL1        -0.1689
       2    H1      18.801953   16.666515   21.957815 H          1 MOL1         0.0830
       3    H2      17.364853   17.684348   21.744754 H          1 MOL1         0.0830
       4    C2      19.220579   18.542952   20.933042 C.3        1 MOL1        -0.1689
       5    H3      19.959158   17.911319   20.420434 H          1 MOL1         0.0830
       6    H4      18.553172   18.963065   20.168141 H          1 MOL1         0.0830
       7    C3      19.932458   19.661623   21.723131 C.3        1 MOL1        -0.1765
       8    H5      19.338273   20.583437   21.669992 H          1 MOL1         0.0830
       9    H6      20.930482   19.883850   21.322423 H          1 MOL1         0.0830
      10    C4      19.984250   19.185515   23.181086 C.3        1 MOL1         0.1214
      11    H7      20.005560   20.031913   23.882613 H          1 MOL1         0.0787
      12    C5      18.708950   18.347903   23.345313 C.3        1 MOL1        -0.1765
      13    H8      18.802632   17.599665   24.143666 H          1 MOL1         0.0830
      14    H9      17.876294   19.013868   23.607606 H          1 MOL1         0.0830
      15    O1      21.118716   18.350247   23.360308 O.3        1 MOL1        -0.5512
      16    H10     21.014148   17.633578   22.701056 H          1 MOL1         0.3776
@<TRIPOS>BOND
    1     1     2    1
    2     1     3    1
    3     1     4    1
    4     4     5    1
    5     4     6    1
    6     4     7    1
    7     7     8    1
    8     7     9    1
    9     7    10    1
   10    10    11    1
   11     1    12    1
   12    10    12    1
   13    12    13    1
   14    12    14    1
   15    10    15    1
   16    15    16    1
@<TRIPOS>SUBSTRUCTURE
       1 MOL1            1 RESIDUE      1      MOL     
@<SCITEGIC>MOL_PROPERTY
VConf Rank
SciTegic.value.IntegerValue
507

@<SCITEGIC>MOL_PROPERTY
Conf_Id
SciTegic.value.IntegerValue
20

@<SCITEGIC>MOL_PROPERTY
Delta U+W
SciTegic.value.DoubleValue
-0.483

@<SCITEGIC>MOL_PROPERTY
U+W
SciTegic.value.DoubleValue
2.527

@<SCITEGIC>MOL_PROPERTY
Grad RMS
SciTegic.value.DoubleValue
0.000000

@<SCITEGIC>MOL_PROPERTY
U
SciTegic.value.DoubleValue
4.508

@<SCITEGIC>MOL_PROPERTY
W
SciTegic.value.DoubleValue
-1.981

@<SCITEGIC>MOL_PROPERTY
W(PB)
SciTegic.value.DoubleValue
-3.712

@<SCITEGIC>MOL_PROPERTY
W(SA)
SciTegic.value.DoubleValue
1.732

@<SCITEGIC>MOL_PROPERTY
Valence
SciTegic.value.DoubleValue
14.705

@<SCITEGIC>MOL_PROPERTY
Coulomb
SciTegic.value.DoubleValue
-10.687

@<SCITEGIC>MOL_PROPERTY
VdW
SciTegic.value.DoubleValue
0.490

@<SCITEGIC>MOL_PROPERTY
VdW6
SciTegic.value.DoubleValue
-3.745

@<SCITEGIC>MOL_PROPERTY
VdW12
SciTegic.value.DoubleValue
4.235

@<SCITEGIC>MOL_PROPERTY
Bond
SciTegic.value.DoubleValue
0.068

@<SCITEGIC>MOL_PROPERTY
Angle
SciTegic.value.DoubleValue
3.901

@<SCITEGIC>MOL_PROPERTY
Pdih
SciTegic.value.DoubleValue
10.737

@<SCITEGIC>MOL_PROPERTY
Idih
SciTegic.value.DoubleValue
0.000

@<SCITEGIC>MOL_PROPERTY
Tether
SciTegic.value.DoubleValue
0.000

@<TRIPOS>MOLECULE
guest-4_confgen4.mol2 : confsearch ligand conformer 508
          16          16           1
SMALL
USER_CHARGES
 
@<TRIPOS>ATOM
       1    C1      18.390513   17.907688   21.442571 C.3        1 MOL1        -0.1689
       2    H1      18.074765   18.690216   20.738561 H          1 MOL1         0.0830
       3    H2      17.893602   16.969681   21.159964 H          1 MOL1         0.0830
       4    C2      18.054808   18.339981   22.876500 C.3        1 MOL1        -0.1689
       5    H3      17.082804   18.847426   22.943339 H          1 MOL1         0.0830
       6    H4      18.027816   17.458155   23.531695 H          1 MOL1         0.0830
       7    C3      19.223270   19.256093   23.283919 C.3        1 MOL1        -0.1765
       8    H5      19.399899   19.223381   24.366776 H          1 MOL1         0.0830
       9    H6      18.983515   20.293176   23.012328 H          1 MOL1         0.0830
      10    C4      20.455186   18.767398   22.493197 C.3        1 MOL1         0.1214
      11    H7      21.145943   18.235456   23.163579 H          1 MOL1         0.0787
      12    C5      19.925589   17.787749   21.425654 C.3        1 MOL1        -0.1765
      13    H8      20.336373   17.995762   20.428654 H          1 MOL1         0.0830
      14    H9      20.218397   16.766124   21.700658 H          1 MOL1         0.0830
      15    O1      21.106312   19.867764   21.869403 O.3        1 MOL1        -0.5512
      16    H10     21.410775   20.459484   22.589613 H          1 MOL1         0.3776
@<TRIPOS>BOND
    1     1     2    1
    2     1     3    1
    3     1     4    1
    4     4     5    1
    5     4     6    1
    6     4     7    1
    7     7     8    1
    8     7     9    1
    9     7    10    1
   10    10    11    1
   11     1    12    1
   12    10    12    1
   13    12    13    1
   14    12    14    1
   15    10    15    1
   16    15    16    1
@<TRIPOS>SUBSTRUCTURE
       1 MOL1            1 RESIDUE      1      MOL     
@<SCITEGIC>MOL_PROPERTY
VConf Rank
SciTegic.value.IntegerValue
508

@<SCITEGIC>MOL_PROPERTY
Conf_Id
SciTegic.value.IntegerValue
59

@<SCITEGIC>MOL_PROPERTY
Delta U+W
SciTegic.value.DoubleValue
0.000

@<SCITEGIC>MOL_PROPERTY
U+W
SciTegic.value.DoubleValue
3.010

@<SCITEGIC>MOL_PROPERTY
Grad RMS
SciTegic.value.DoubleValue
0.000000

@<SCITEGIC>MOL_PROPERTY
U
SciTegic.value.DoubleValue
5.843

@<SCITEGIC>MOL_PROPERTY
W
SciTegic.value.DoubleValue
-2.833

@<SCITEGIC>MOL_PROPERTY
W(PB)
SciTegic.value.DoubleValue
-4.568

@<SCITEGIC>MOL_PROPERTY
W(SA)
SciTegic.value.DoubleValue
1.735

@<SCITEGIC>MOL_PROPERTY
Valence
SciTegic.value.DoubleValue
13.789

@<SCITEGIC>MOL_PROPERTY
Coulomb
SciTegic.value.DoubleValue
-8.574

@<SCITEGIC>MOL_PROPERTY
VdW
SciTegic.value.DoubleValue
0.628

@<SCITEGIC>MOL_PROPERTY
VdW6
SciTegic.value.DoubleValue
-3.284

@<SCITEGIC>MOL_PROPERTY
VdW12
SciTegic.value.DoubleValue
3.912

@<SCITEGIC>MOL_PROPERTY
Bond
SciTegic.value.DoubleValue
0.054

@<SCITEGIC>MOL_PROPERTY
Angle
SciTegic.value.DoubleValue
4.034

@<SCITEGIC>MOL_PROPERTY
Pdih
SciTegic.value.DoubleValue
9.702

@<SCITEGIC>MOL_PROPERTY
Idih
SciTegic.value.DoubleValue
0.000

@<SCITEGIC>MOL_PROPERTY
Tether
SciTegic.value.DoubleValue
0.000

@<TRIPOS>MOLECULE
guest-4_confgen4.mol2 : confsearch ligand conformer 509
          16          16           1
SMALL
USER_CHARGES
 
@<TRIPOS>ATOM
       1    C1      20.135902   18.524300   23.551425 C.3        1 MOL1        -0.1689
       2    H1      19.957553   18.160112   24.572364 H          1 MOL1         0.0830
       3    H2      21.195515   18.802831   23.466198 H          1 MOL1         0.0830
       4    C2      19.255013   19.730951   23.199636 C.3        1 MOL1        -0.1689
       5    H3      18.248156   19.585546   23.615299 H          1 MOL1         0.0830
       6    H4      19.657543   20.673613   23.594606 H          1 MOL1         0.0830
       7    C3      19.184256   19.720870   21.661465 C.3        1 MOL1        -0.1765
       8    H5      20.006617   20.321059   21.250879 H          1 MOL1         0.0830
       9    H6      18.242187   20.151967   21.297213 H          1 MOL1         0.0830
      10    C4      19.364897   18.253060   21.222490 C.3        1 MOL1         0.1214
      11    H7      20.157224   18.196207   20.461895 H          1 MOL1         0.0787
      12    C5      19.786743   17.470854   22.484209 C.3        1 MOL1        -0.1765
      13    H8      18.954058   16.851273   22.844122 H          1 MOL1         0.0830
      14    H9      20.637609   16.807552   22.281961 H          1 MOL1         0.0830
      15    O1      18.140075   17.739154   20.712970 O.3        1 MOL1        -0.5512
      16    H10     18.309267   16.806561   20.461627 H          1 MOL1         0.3776
@<TRIPOS>BOND
    1     1     2    1
    2     1     3    1
    3     1     4    1
    4     4     5    1
    5     4     6    1
    6     4     7    1
    7     7     8    1
    8     7     9    1
    9     7    10    1
   10    10    11    1
   11     1    12    1
   12    10    12    1
   13    12    13    1
   14    12    14    1
   15    10    15    1
   16    15    16    1
@<TRIPOS>SUBSTRUCTURE
       1 MOL1            1 RESIDUE      1      MOL     
@<SCITEGIC>MOL_PROPERTY
VConf Rank
SciTegic.value.IntegerValue
509

@<SCITEGIC>MOL_PROPERTY
Conf_Id
SciTegic.value.IntegerValue
33

@<SCITEGIC>MOL_PROPERTY
Delta U+W
SciTegic.value.DoubleValue
0.015

@<SCITEGIC>MOL_PROPERTY
U+W
SciTegic.value.DoubleValue
3.025

@<SCITEGIC>MOL_PROPERTY
Grad RMS
SciTegic.value.DoubleValue
0.000000

@<SCITEGIC>MOL_PROPERTY
U
SciTegic.value.DoubleValue
5.843

@<SCITEGIC>MOL_PROPERTY
W
SciTegic.value.DoubleValue
-2.819

@<SCITEGIC>MOL_PROPERTY
W(PB)
SciTegic.value.DoubleValue
-4.568

@<SCITEGIC>MOL_PROPERTY
W(SA)
SciTegic.value.DoubleValue
1.750

@<SCITEGIC>MOL_PROPERTY
Valence
SciTegic.value.DoubleValue
13.789

@<SCITEGIC>MOL_PROPERTY
Coulomb
SciTegic.value.DoubleValue
-8.574

@<SCITEGIC>MOL_PROPERTY
VdW
SciTegic.value.DoubleValue
0.628

@<SCITEGIC>MOL_PROPERTY
VdW6
SciTegic.value.DoubleValue
-3.284

@<SCITEGIC>MOL_PROPERTY
VdW12
SciTegic.value.DoubleValue
3.913

@<SCITEGIC>MOL_PROPERTY
Bond
SciTegic.value.DoubleValue
0.054

@<SCITEGIC>MOL_PROPERTY
Angle
SciTegic.value.DoubleValue
4.033

@<SCITEGIC>MOL_PROPERTY
Pdih
SciTegic.value.DoubleValue
9.702

@<SCITEGIC>MOL_PROPERTY
Idih
SciTegic.value.DoubleValue
0.000

@<SCITEGIC>MOL_PROPERTY
Tether
SciTegic.value.DoubleValue
0.000

@<TRIPOS>MOLECULE
guest-4_confgen4.mol2 : confsearch ligand conformer 510
          16          16           1
SMALL
USER_CHARGES
 
@<TRIPOS>ATOM
       1    C1      18.849425   18.537917   23.482898 C.3        1 MOL1        -0.1689
       2    H1      17.802792   18.866702   23.543630 H          1 MOL1         0.0830
       3    H2      19.157127   18.217990   24.487867 H          1 MOL1         0.0830
       4    C2      19.732694   19.691255   22.958811 C.3        1 MOL1        -0.1689
       5    H3      19.113718   20.578536   22.766909 H          1 MOL1         0.0830
       6    H4      20.503112   19.973967   23.689243 H          1 MOL1         0.0830
       7    C3      20.370513   19.191806   21.644971 C.3        1 MOL1        -0.1765
       8    H5      21.384842   18.822911   21.846646 H          1 MOL1         0.0830
       9    H6      20.447801   19.986780   20.891281 H          1 MOL1         0.0830
      10    C4      19.500238   18.021279   21.168021 C.3        1 MOL1         0.1214
      11    H7      20.079211   17.305155   20.567238 H          1 MOL1         0.0787
      12    C5      18.987644   17.384397   22.466707 C.3        1 MOL1        -0.1765
      13    H8      18.043303   16.843328   22.320182 H          1 MOL1         0.0830
      14    H9      19.732844   16.663839   22.828778 H          1 MOL1         0.0830
      15    O1      18.398504   18.528298   20.429157 O.3        1 MOL1        -0.5512
      16    H10     17.947984   19.149604   21.037575 H          1 MOL1         0.3776
@<TRIPOS>BOND
    1     1     2    1
    2     1     3    1
    3     1     4    1
    4     4     5    1
    5     4     6    1
    6     4     7    1
    7     7     8    1
    8     7     9    1
    9     7    10    1
   10    10    11    1
   11     1    12    1
   12    10    12    1
   13    12    13    1
   14    12    14    1
   15    10    15    1
   16    15    16    1
@<TRIPOS>SUBSTRUCTURE
       1 MOL1            1 RESIDUE      1      MOL     
@<SCITEGIC>MOL_PROPERTY
VConf Rank
SciTegic.value.IntegerValue
510

@<SCITEGIC>MOL_PROPERTY
Conf_Id
SciTegic.value.IntegerValue
20

@<SCITEGIC>MOL_PROPERTY
Delta U+W
SciTegic.value.DoubleValue
-0.483

@<SCITEGIC>MOL_PROPERTY
U+W
SciTegic.value.DoubleValue
2.527

@<SCITEGIC>MOL_PROPERTY
Grad RMS
SciTegic.value.DoubleValue
0.000000

@<SCITEGIC>MOL_PROPERTY
U
SciTegic.value.DoubleValue
4.508

@<SCITEGIC>MOL_PROPERTY
W
SciTegic.value.DoubleValue
-1.981

@<SCITEGIC>MOL_PROPERTY
W(PB)
SciTegic.value.DoubleValue
-3.712

@<SCITEGIC>MOL_PROPERTY
W(SA)
SciTegic.value.DoubleValue
1.732

@<SCITEGIC>MOL_PROPERTY
Valence
SciTegic.value.DoubleValue
14.705

@<SCITEGIC>MOL_PROPERTY
Coulomb
SciTegic.value.DoubleValue
-10.687

@<SCITEGIC>MOL_PROPERTY
VdW
SciTegic.value.DoubleValue
0.490

@<SCITEGIC>MOL_PROPERTY
VdW6
SciTegic.value.DoubleValue
-3.745

@<SCITEGIC>MOL_PROPERTY
VdW12
SciTegic.value.DoubleValue
4.235

@<SCITEGIC>MOL_PROPERTY
Bond
SciTegic.value.DoubleValue
0.068

@<SCITEGIC>MOL_PROPERTY
Angle
SciTegic.value.DoubleValue
3.901

@<SCITEGIC>MOL_PROPERTY
Pdih
SciTegic.value.DoubleValue
10.737

@<SCITEGIC>MOL_PROPERTY
Idih
SciTegic.value.DoubleValue
0.000

@<SCITEGIC>MOL_PROPERTY
Tether
SciTegic.value.DoubleValue
0.000

@<TRIPOS>MOLECULE
guest-4_confgen4.mol2 : confsearch ligand conformer 511
          16          16           1
SMALL
USER_CHARGES
 
@<TRIPOS>ATOM
       1    C1      19.268441   19.341301   21.095141 C.3        1 MOL1        -0.1689
       2    H1      19.718884   20.310966   21.349165 H          1 MOL1         0.0830
       3    H2      18.997293   19.356105   20.030762 H          1 MOL1         0.0830
       4    C2      18.059519   19.081767   22.004470 C.3        1 MOL1        -0.1689
       5    H3      17.465719   19.989246   22.179519 H          1 MOL1         0.0830
       6    H4      17.406319   18.327126   21.544609 H          1 MOL1         0.0830
       7    C3      18.669637   18.521388   23.302271 C.3        1 MOL1        -0.1765
       8    H5      17.974725   17.840828   23.810976 H          1 MOL1         0.0830
       9    H6      18.891432   19.351110   23.987218 H          1 MOL1         0.0830
      10    C4      19.972484   17.801463   22.894867 C.3        1 MOL1         0.1214
      11    H7      19.832533   16.711872   22.947058 H          1 MOL1         0.0787
      12    C5      20.255804   18.209405   21.434337 C.3        1 MOL1        -0.1765
      13    H8      21.297451   18.522944   21.283717 H          1 MOL1         0.0830
      14    H9      20.068484   17.348509   20.779470 H          1 MOL1         0.0830
      15    O1      21.043971   18.212323   23.735699 O.3        1 MOL1        -0.5512
      16    H10     20.806871   17.939181   24.647131 H          1 MOL1         0.3776
@<TRIPOS>BOND
    1     1     2    1
    2     1     3    1
    3     1     4    1
    4     4     5    1
    5     4     6    1
    6     4     7    1
    7     7     8    1
    8     7     9    1
    9     7    10    1
   10    10    11    1
   11     1    12    1
   12    10    12    1
   13    12    13    1
   14    12    14    1
   15    10    15    1
   16    15    16    1
@<TRIPOS>SUBSTRUCTURE
       1 MOL1            1 RESIDUE      1      MOL     
@<SCITEGIC>MOL_PROPERTY
VConf Rank
SciTegic.value.IntegerValue
511

@<SCITEGIC>MOL_PROPERTY
Conf_Id
SciTegic.value.IntegerValue
59

@<SCITEGIC>MOL_PROPERTY
Delta U+W
SciTegic.value.DoubleValue
0.000

@<SCITEGIC>MOL_PROPERTY
U+W
SciTegic.value.DoubleValue
3.010

@<SCITEGIC>MOL_PROPERTY
Grad RMS
SciTegic.value.DoubleValue
0.000000

@<SCITEGIC>MOL_PROPERTY
U
SciTegic.value.DoubleValue
5.843

@<SCITEGIC>MOL_PROPERTY
W
SciTegic.value.DoubleValue
-2.833

@<SCITEGIC>MOL_PROPERTY
W(PB)
SciTegic.value.DoubleValue
-4.568

@<SCITEGIC>MOL_PROPERTY
W(SA)
SciTegic.value.DoubleValue
1.735

@<SCITEGIC>MOL_PROPERTY
Valence
SciTegic.value.DoubleValue
13.789

@<SCITEGIC>MOL_PROPERTY
Coulomb
SciTegic.value.DoubleValue
-8.574

@<SCITEGIC>MOL_PROPERTY
VdW
SciTegic.value.DoubleValue
0.628

@<SCITEGIC>MOL_PROPERTY
VdW6
SciTegic.value.DoubleValue
-3.284

@<SCITEGIC>MOL_PROPERTY
VdW12
SciTegic.value.DoubleValue
3.912

@<SCITEGIC>MOL_PROPERTY
Bond
SciTegic.value.DoubleValue
0.054

@<SCITEGIC>MOL_PROPERTY
Angle
SciTegic.value.DoubleValue
4.034

@<SCITEGIC>MOL_PROPERTY
Pdih
SciTegic.value.DoubleValue
9.702

@<SCITEGIC>MOL_PROPERTY
Idih
SciTegic.value.DoubleValue
0.000

@<SCITEGIC>MOL_PROPERTY
Tether
SciTegic.value.DoubleValue
0.000

@<TRIPOS>MOLECULE
guest-4_confgen4.mol2 : confsearch ligand conformer 512
          16          16           1
SMALL
USER_CHARGES
 
@<TRIPOS>ATOM
       1    C1      18.402288   17.839413   21.691306 C.3        1 MOL1        -0.1689
       2    H1      18.268373   17.091644   20.897791 H          1 MOL1         0.0830
       3    H2      17.456652   17.926710   22.244274 H          1 MOL1         0.0830
       4    C2      18.805124   19.212958   21.137387 C.3        1 MOL1        -0.1689
       5    H3      19.519022   19.082325   20.312182 H          1 MOL1         0.0830
       6    H4      17.944478   19.782383   20.760975 H          1 MOL1         0.0830
       7    C3      19.503315   19.914395   22.317044 C.3        1 MOL1        -0.1765
       8    H5      18.762820   20.473262   22.903918 H          1 MOL1         0.0830
       9    H6      20.262629   20.628298   21.970918 H          1 MOL1         0.0830
      10    C4      20.105569   18.799901   23.197379 C.3        1 MOL1         0.1214
      11    H7      19.789479   18.949802   24.240037 H          1 MOL1         0.0787
      12    C5      19.539918   17.468296   22.660162 C.3        1 MOL1        -0.1765
      13    H8      20.317393   16.917378   22.113534 H          1 MOL1         0.0830
      14    H9      19.180062   16.825363   23.473788 H          1 MOL1         0.0830
      15    O1      21.524532   18.807183   23.095451 O.3        1 MOL1        -0.5512
      16    H10     21.850960   18.076600   23.662215 H          1 MOL1         0.3776
@<TRIPOS>BOND
    1     1     2    1
    2     1     3    1
    3     1     4    1
    4     4     5    1
    5     4     6    1
    6     4     7    1
    7     7     8    1
    8     7     9    1
    9     7    10    1
   10    10    11    1
   11     1    12    1
   12    10    12    1
   13    12    13    1
   14    12    14    1
   15    10    15    1
   16    15    16    1
@<TRIPOS>SUBSTRUCTURE
       1 MOL1            1 RESIDUE      1      MOL     
@<SCITEGIC>MOL_PROPERTY
VConf Rank
SciTegic.value.IntegerValue
512

@<SCITEGIC>MOL_PROPERTY
Conf_Id
SciTegic.value.IntegerValue
33

@<SCITEGIC>MOL_PROPERTY
Delta U+W
SciTegic.value.DoubleValue
0.015

@<SCITEGIC>MOL_PROPERTY
U+W
SciTegic.value.DoubleValue
3.025

@<SCITEGIC>MOL_PROPERTY
Grad RMS
SciTegic.value.DoubleValue
0.000000

@<SCITEGIC>MOL_PROPERTY
U
SciTegic.value.DoubleValue
5.843

@<SCITEGIC>MOL_PROPERTY
W
SciTegic.value.DoubleValue
-2.819

@<SCITEGIC>MOL_PROPERTY
W(PB)
SciTegic.value.DoubleValue
-4.568

@<SCITEGIC>MOL_PROPERTY
W(SA)
SciTegic.value.DoubleValue
1.750

@<SCITEGIC>MOL_PROPERTY
Valence
SciTegic.value.DoubleValue
13.789

@<SCITEGIC>MOL_PROPERTY
Coulomb
SciTegic.value.DoubleValue
-8.574

@<SCITEGIC>MOL_PROPERTY
VdW
SciTegic.value.DoubleValue
0.628

@<SCITEGIC>MOL_PROPERTY
VdW6
SciTegic.value.DoubleValue
-3.284

@<SCITEGIC>MOL_PROPERTY
VdW12
SciTegic.value.DoubleValue
3.913

@<SCITEGIC>MOL_PROPERTY
Bond
SciTegic.value.DoubleValue
0.054

@<SCITEGIC>MOL_PROPERTY
Angle
SciTegic.value.DoubleValue
4.033

@<SCITEGIC>MOL_PROPERTY
Pdih
SciTegic.value.DoubleValue
9.702

@<SCITEGIC>MOL_PROPERTY
Idih
SciTegic.value.DoubleValue
0.000

@<SCITEGIC>MOL_PROPERTY
Tether
SciTegic.value.DoubleValue
0.000

@<TRIPOS>MOLECULE
guest-4_confgen4.mol2 : confsearch ligand conformer 513
          16          16           1
SMALL
USER_CHARGES
 
@<TRIPOS>ATOM
       1    C1      18.291953   18.032577   21.737298 C.3        1 MOL1        -0.1689
       2    H1      17.666187   17.503607   22.469306 H          1 MOL1         0.0830
       3    H2      17.807883   17.938898   20.755515 H          1 MOL1         0.0830
       4    C2      19.713915   17.430098   21.729150 C.3        1 MOL1        -0.1689
       5    H3      19.776040   16.608870   22.456439 H          1 MOL1         0.0830
       6    H4      19.974068   17.022159   20.742790 H          1 MOL1         0.0830
       7    C3      20.674574   18.570162   22.128929 C.3        1 MOL1        -0.1765
       8    H5      21.113778   19.013534   21.225523 H          1 MOL1         0.0830
       9    H6      21.499075   18.216801   22.762443 H          1 MOL1         0.0830
      10    C4      19.811705   19.625855   22.833175 C.3        1 MOL1         0.1214
      11    H7      20.238321   20.633660   22.726825 H          1 MOL1         0.0787
      12    C5      18.446885   19.514394   22.140499 C.3        1 MOL1        -0.1765
      13    H8      17.625236   19.859247   22.782349 H          1 MOL1         0.0830
      14    H9      18.452320   20.141245   21.239027 H          1 MOL1         0.0830
      15    O1      19.671019   19.277173   24.202640 O.3        1 MOL1        -0.5512
      16    H10     19.288796   18.375482   24.198005 H          1 MOL1         0.3776
@<TRIPOS>BOND
    1     1     2    1
    2     1     3    1
    3     1     4    1
    4     4     5    1
    5     4     6    1
    6     4     7    1
    7     7     8    1
    8     7     9    1
    9     7    10    1
   10    10    11    1
   11     1    12    1
   12    10    12    1
   13    12    13    1
   14    12    14    1
   15    10    15    1
   16    15    16    1
@<TRIPOS>SUBSTRUCTURE
       1 MOL1            1 RESIDUE      1      MOL     
@<SCITEGIC>MOL_PROPERTY
VConf Rank
SciTegic.value.IntegerValue
513

@<SCITEGIC>MOL_PROPERTY
Conf_Id
SciTegic.value.IntegerValue
20

@<SCITEGIC>MOL_PROPERTY
Delta U+W
SciTegic.value.DoubleValue
-0.483

@<SCITEGIC>MOL_PROPERTY
U+W
SciTegic.value.DoubleValue
2.527

@<SCITEGIC>MOL_PROPERTY
Grad RMS
SciTegic.value.DoubleValue
0.000000

@<SCITEGIC>MOL_PROPERTY
U
SciTegic.value.DoubleValue
4.508

@<SCITEGIC>MOL_PROPERTY
W
SciTegic.value.DoubleValue
-1.981

@<SCITEGIC>MOL_PROPERTY
W(PB)
SciTegic.value.DoubleValue
-3.712

@<SCITEGIC>MOL_PROPERTY
W(SA)
SciTegic.value.DoubleValue
1.732

@<SCITEGIC>MOL_PROPERTY
Valence
SciTegic.value.DoubleValue
14.705

@<SCITEGIC>MOL_PROPERTY
Coulomb
SciTegic.value.DoubleValue
-10.687

@<SCITEGIC>MOL_PROPERTY
VdW
SciTegic.value.DoubleValue
0.490

@<SCITEGIC>MOL_PROPERTY
VdW6
SciTegic.value.DoubleValue
-3.745

@<SCITEGIC>MOL_PROPERTY
VdW12
SciTegic.value.DoubleValue
4.235

@<SCITEGIC>MOL_PROPERTY
Bond
SciTegic.value.DoubleValue
0.068

@<SCITEGIC>MOL_PROPERTY
Angle
SciTegic.value.DoubleValue
3.901

@<SCITEGIC>MOL_PROPERTY
Pdih
SciTegic.value.DoubleValue
10.737

@<SCITEGIC>MOL_PROPERTY
Idih
SciTegic.value.DoubleValue
0.000

@<SCITEGIC>MOL_PROPERTY
Tether
SciTegic.value.DoubleValue
0.000

@<TRIPOS>MOLECULE
guest-4_confgen4.mol2 : confsearch ligand conformer 514
          16          16           1
SMALL
USER_CHARGES
 
@<TRIPOS>ATOM
       1    C1      20.289165   19.613305   21.960730 C.3        1 MOL1        -0.1689
       2    H1      20.651404   19.350199   20.957119 H          1 MOL1         0.0830
       3    H2      20.731938   20.577701   22.244516 H          1 MOL1         0.0830
       4    C2      20.645350   18.492030   22.946429 C.3        1 MOL1        -0.1689
       5    H3      21.644806   18.075152   22.761877 H          1 MOL1         0.0830
       6    H4      20.619688   18.881083   23.973855 H          1 MOL1         0.0830
       7    C3      19.530545   17.447080   22.757103 C.3        1 MOL1        -0.1765
       8    H5      19.349394   16.882006   23.680533 H          1 MOL1         0.0830
       9    H6      19.830422   16.733096   21.977946 H          1 MOL1         0.0830
      10    C4      18.274650   18.226532   22.313410 C.3        1 MOL1         0.1214
      11    H7      17.552565   18.279474   23.141243 H          1 MOL1         0.0787
      12    C5      18.749779   19.650987   21.959837 C.3        1 MOL1        -0.1765
      13    H8      18.354370   19.994717   20.994683 H          1 MOL1         0.0830
      14    H9      18.397820   20.347637   22.731773 H          1 MOL1         0.0830
      15    O1      17.689732   17.607440   21.173899 O.3        1 MOL1        -0.5512
      16    H10     17.417939   16.707095   21.451459 H          1 MOL1         0.3776
@<TRIPOS>BOND
    1     1     2    1
    2     1     3    1
    3     1     4    1
    4     4     5    1
    5     4     6    1
    6     4     7    1
    7     7     8    1
    8     7     9    1
    9     7    10    1
   10    10    11    1
   11     1    12    1
   12    10    12    1
   13    12    13    1
   14    12    14    1
   15    10    15    1
   16    15    16    1
@<TRIPOS>SUBSTRUCTURE
       1 MOL1            1 RESIDUE      1      MOL     
@<SCITEGIC>MOL_PROPERTY
VConf Rank
SciTegic.value.IntegerValue
514

@<SCITEGIC>MOL_PROPERTY
Conf_Id
SciTegic.value.IntegerValue
59

@<SCITEGIC>MOL_PROPERTY
Delta U+W
SciTegic.value.DoubleValue
0.000

@<SCITEGIC>MOL_PROPERTY
U+W
SciTegic.value.DoubleValue
3.010

@<SCITEGIC>MOL_PROPERTY
Grad RMS
SciTegic.value.DoubleValue
0.000000

@<SCITEGIC>MOL_PROPERTY
U
SciTegic.value.DoubleValue
5.843

@<SCITEGIC>MOL_PROPERTY
W
SciTegic.value.DoubleValue
-2.833

@<SCITEGIC>MOL_PROPERTY
W(PB)
SciTegic.value.DoubleValue
-4.568

@<SCITEGIC>MOL_PROPERTY
W(SA)
SciTegic.value.DoubleValue
1.735

@<SCITEGIC>MOL_PROPERTY
Valence
SciTegic.value.DoubleValue
13.789

@<SCITEGIC>MOL_PROPERTY
Coulomb
SciTegic.value.DoubleValue
-8.574

@<SCITEGIC>MOL_PROPERTY
VdW
SciTegic.value.DoubleValue
0.628

@<SCITEGIC>MOL_PROPERTY
VdW6
SciTegic.value.DoubleValue
-3.284

@<SCITEGIC>MOL_PROPERTY
VdW12
SciTegic.value.DoubleValue
3.912

@<SCITEGIC>MOL_PROPERTY
Bond
SciTegic.value.DoubleValue
0.054

@<SCITEGIC>MOL_PROPERTY
Angle
SciTegic.value.DoubleValue
4.034

@<SCITEGIC>MOL_PROPERTY
Pdih
SciTegic.value.DoubleValue
9.702

@<SCITEGIC>MOL_PROPERTY
Idih
SciTegic.value.DoubleValue
0.000

@<SCITEGIC>MOL_PROPERTY
Tether
SciTegic.value.DoubleValue
0.000

@<TRIPOS>MOLECULE
guest-4_confgen4.mol2 : confsearch ligand conformer 515
          16          16           1
SMALL
USER_CHARGES
 
@<TRIPOS>ATOM
       1    C1      20.757483   19.164148   22.064861 C.3        1 MOL1        -0.1689
       2    H1      21.303792   19.718324   21.289494 H          1 MOL1         0.0830
       3    H2      21.385127   19.125254   22.966066 H          1 MOL1         0.0830
       4    C2      20.401017   17.738457   21.622068 C.3        1 MOL1        -0.1689
       5    H3      20.097005   17.745978   20.566038 H          1 MOL1         0.0830
       6    H4      21.243111   17.041852   21.732802 H          1 MOL1         0.0830
       7    C3      19.198304   17.351109   22.502136 C.3        1 MOL1        -0.1765
       8    H5      19.555000   16.874317   23.424374 H          1 MOL1         0.0830
       9    H6      18.536976   16.638091   21.991971 H          1 MOL1         0.0830
      10    C4      18.475570   18.665496   22.862469 C.3        1 MOL1         0.1214
      11    H7      18.330438   18.713523   23.951574 H          1 MOL1         0.0787
      12    C5      19.401547   19.811012   22.401932 C.3        1 MOL1        -0.1765
      13    H8      18.994304   20.291138   21.501702 H          1 MOL1         0.0830
      14    H9      19.506272   20.581382   23.176792 H          1 MOL1         0.0830
      15    O1      17.227187   18.740674   22.184394 O.3        1 MOL1        -0.5512
      16    H10     16.819486   19.595155   22.439684 H          1 MOL1         0.3776
@<TRIPOS>BOND
    1     1     2    1
    2     1     3    1
    3     1     4    1
    4     4     5    1
    5     4     6    1
    6     4     7    1
    7     7     8    1
    8     7     9    1
    9     7    10    1
   10    10    11    1
   11     1    12    1
   12    10    12    1
   13    12    13    1
   14    12    14    1
   15    10    15    1
   16    15    16    1
@<TRIPOS>SUBSTRUCTURE
       1 MOL1            1 RESIDUE      1      MOL     
@<SCITEGIC>MOL_PROPERTY
VConf Rank
SciTegic.value.IntegerValue
515

@<SCITEGIC>MOL_PROPERTY
Conf_Id
SciTegic.value.IntegerValue
33

@<SCITEGIC>MOL_PROPERTY
Delta U+W
SciTegic.value.DoubleValue
0.015

@<SCITEGIC>MOL_PROPERTY
U+W
SciTegic.value.DoubleValue
3.025

@<SCITEGIC>MOL_PROPERTY
Grad RMS
SciTegic.value.DoubleValue
0.000000

@<SCITEGIC>MOL_PROPERTY
U
SciTegic.value.DoubleValue
5.843

@<SCITEGIC>MOL_PROPERTY
W
SciTegic.value.DoubleValue
-2.819

@<SCITEGIC>MOL_PROPERTY
W(PB)
SciTegic.value.DoubleValue
-4.568

@<SCITEGIC>MOL_PROPERTY
W(SA)
SciTegic.value.DoubleValue
1.750

@<SCITEGIC>MOL_PROPERTY
Valence
SciTegic.value.DoubleValue
13.789

@<SCITEGIC>MOL_PROPERTY
Coulomb
SciTegic.value.DoubleValue
-8.574

@<SCITEGIC>MOL_PROPERTY
VdW
SciTegic.value.DoubleValue
0.628

@<SCITEGIC>MOL_PROPERTY
VdW6
SciTegic.value.DoubleValue
-3.284

@<SCITEGIC>MOL_PROPERTY
VdW12
SciTegic.value.DoubleValue
3.913

@<SCITEGIC>MOL_PROPERTY
Bond
SciTegic.value.DoubleValue
0.054

@<SCITEGIC>MOL_PROPERTY
Angle
SciTegic.value.DoubleValue
4.033

@<SCITEGIC>MOL_PROPERTY
Pdih
SciTegic.value.DoubleValue
9.702

@<SCITEGIC>MOL_PROPERTY
Idih
SciTegic.value.DoubleValue
0.000

@<SCITEGIC>MOL_PROPERTY
Tether
SciTegic.value.DoubleValue
0.000

@<TRIPOS>MOLECULE
guest-4_confgen4.mol2 : confsearch ligand conformer 516
          16          16           1
SMALL
USER_CHARGES
 
@<TRIPOS>ATOM
       1    C1      19.212085   17.385550   21.750683 C.3        1 MOL1        -0.1689
       2    H1      18.222996   16.947110   21.942257 H          1 MOL1         0.0830
       3    H2      19.788663   16.661476   21.158845 H          1 MOL1         0.0830
       4    C2      19.911045   17.709787   23.089095 C.3        1 MOL1        -0.1689
       5    H3      19.260684   17.427298   23.928415 H          1 MOL1         0.0830
       6    H4      20.853791   17.156073   23.196933 H          1 MOL1         0.0830
       7    C3      20.158611   19.233304   23.095729 C.3        1 MOL1        -0.1765
       8    H5      21.189952   19.438752   22.779900 H          1 MOL1         0.0830
       9    H6      20.020517   19.673109   24.092477 H          1 MOL1         0.0830
      10    C4      19.193072   19.825409   22.060288 C.3        1 MOL1         0.1214
      11    H7      19.583532   20.759081   21.630429 H          1 MOL1         0.0787
      12    C5      19.064646   18.725140   20.998275 C.3        1 MOL1        -0.1765
      13    H8      18.118384   18.789704   20.444719 H          1 MOL1         0.0830
      14    H9      19.883214   18.831233   20.274181 H          1 MOL1         0.0830
      15    O1      17.927637   20.038111   22.668760 O.3        1 MOL1        -0.5512
      16    H10     17.662922   19.162628   23.018929 H          1 MOL1         0.3776
@<TRIPOS>BOND
    1     1     2    1
    2     1     3    1
    3     1     4    1
    4     4     5    1
    5     4     6    1
    6     4     7    1
    7     7     8    1
    8     7     9    1
    9     7    10    1
   10    10    11    1
   11     1    12    1
   12    10    12    1
   13    12    13    1
   14    12    14    1
   15    10    15    1
   16    15    16    1
@<TRIPOS>SUBSTRUCTURE
       1 MOL1            1 RESIDUE      1      MOL     
@<SCITEGIC>MOL_PROPERTY
VConf Rank
SciTegic.value.IntegerValue
516

@<SCITEGIC>MOL_PROPERTY
Conf_Id
SciTegic.value.IntegerValue
20

@<SCITEGIC>MOL_PROPERTY
Delta U+W
SciTegic.value.DoubleValue
-0.483

@<SCITEGIC>MOL_PROPERTY
U+W
SciTegic.value.DoubleValue
2.527

@<SCITEGIC>MOL_PROPERTY
Grad RMS
SciTegic.value.DoubleValue
0.000000

@<SCITEGIC>MOL_PROPERTY
U
SciTegic.value.DoubleValue
4.508

@<SCITEGIC>MOL_PROPERTY
W
SciTegic.value.DoubleValue
-1.981

@<SCITEGIC>MOL_PROPERTY
W(PB)
SciTegic.value.DoubleValue
-3.712

@<SCITEGIC>MOL_PROPERTY
W(SA)
SciTegic.value.DoubleValue
1.732

@<SCITEGIC>MOL_PROPERTY
Valence
SciTegic.value.DoubleValue
14.705

@<SCITEGIC>MOL_PROPERTY
Coulomb
SciTegic.value.DoubleValue
-10.687

@<SCITEGIC>MOL_PROPERTY
VdW
SciTegic.value.DoubleValue
0.490

@<SCITEGIC>MOL_PROPERTY
VdW6
SciTegic.value.DoubleValue
-3.745

@<SCITEGIC>MOL_PROPERTY
VdW12
SciTegic.value.DoubleValue
4.235

@<SCITEGIC>MOL_PROPERTY
Bond
SciTegic.value.DoubleValue
0.068

@<SCITEGIC>MOL_PROPERTY
Angle
SciTegic.value.DoubleValue
3.901

@<SCITEGIC>MOL_PROPERTY
Pdih
SciTegic.value.DoubleValue
10.737

@<SCITEGIC>MOL_PROPERTY
Idih
SciTegic.value.DoubleValue
0.000

@<SCITEGIC>MOL_PROPERTY
Tether
SciTegic.value.DoubleValue
0.000

@<TRIPOS>MOLECULE
guest-4_confgen4.mol2 : confsearch ligand conformer 517
          16          16           1
SMALL
USER_CHARGES
 
@<TRIPOS>ATOM
       1    C1      19.731550   19.812913   22.938352 C.3        1 MOL1        -0.1689
       2    H1      18.987662   19.968280   23.732183 H          1 MOL1         0.0830
       3    H2      20.463416   20.630577   22.987768 H          1 MOL1         0.0830
       4    C2      19.024534   19.740451   21.577983 C.3        1 MOL1        -0.1689
       5    H3      18.203684   20.465694   21.494393 H          1 MOL1         0.0830
       6    H4      19.746379   19.944448   20.774894 H          1 MOL1         0.0830
       7    C3      18.532662   18.284838   21.478935 C.3        1 MOL1        -0.1765
       8    H5      18.482881   17.948391   20.435301 H          1 MOL1         0.0830
       9    H6      17.522756   18.212866   21.905192 H          1 MOL1         0.0830
      10    C4      19.522565   17.434286   22.302545 C.3        1 MOL1         0.1214
      11    H7      20.170436   16.853810   21.629619 H          1 MOL1         0.0787
      12    C5      20.384614   18.428699   23.107435 C.3        1 MOL1        -0.1765
      13    H8      20.467143   18.147192   24.165718 H          1 MOL1         0.0830
      14    H9      21.398395   18.445718   22.686674 H          1 MOL1         0.0830
      15    O1      18.813450   16.573213   23.185493 O.3        1 MOL1        -0.5512
      16    H10     18.277439   15.974158   22.623926 H          1 MOL1         0.3776
@<TRIPOS>BOND
    1     1     2    1
    2     1     3    1
    3     1     4    1
    4     4     5    1
    5     4     6    1
    6     4     7    1
    7     7     8    1
    8     7     9    1
    9     7    10    1
   10    10    11    1
   11     1    12    1
   12    10    12    1
   13    12    13    1
   14    12    14    1
   15    10    15    1
   16    15    16    1
@<TRIPOS>SUBSTRUCTURE
       1 MOL1            1 RESIDUE      1      MOL     
@<SCITEGIC>MOL_PROPERTY
VConf Rank
SciTegic.value.IntegerValue
517

@<SCITEGIC>MOL_PROPERTY
Conf_Id
SciTegic.value.IntegerValue
59

@<SCITEGIC>MOL_PROPERTY
Delta U+W
SciTegic.value.DoubleValue
0.000

@<SCITEGIC>MOL_PROPERTY
U+W
SciTegic.value.DoubleValue
3.010

@<SCITEGIC>MOL_PROPERTY
Grad RMS
SciTegic.value.DoubleValue
0.000000

@<SCITEGIC>MOL_PROPERTY
U
SciTegic.value.DoubleValue
5.843

@<SCITEGIC>MOL_PROPERTY
W
SciTegic.value.DoubleValue
-2.833

@<SCITEGIC>MOL_PROPERTY
W(PB)
SciTegic.value.DoubleValue
-4.568

@<SCITEGIC>MOL_PROPERTY
W(SA)
SciTegic.value.DoubleValue
1.735

@<SCITEGIC>MOL_PROPERTY
Valence
SciTegic.value.DoubleValue
13.789

@<SCITEGIC>MOL_PROPERTY
Coulomb
SciTegic.value.DoubleValue
-8.574

@<SCITEGIC>MOL_PROPERTY
VdW
SciTegic.value.DoubleValue
0.628

@<SCITEGIC>MOL_PROPERTY
VdW6
SciTegic.value.DoubleValue
-3.284

@<SCITEGIC>MOL_PROPERTY
VdW12
SciTegic.value.DoubleValue
3.912

@<SCITEGIC>MOL_PROPERTY
Bond
SciTegic.value.DoubleValue
0.054

@<SCITEGIC>MOL_PROPERTY
Angle
SciTegic.value.DoubleValue
4.034

@<SCITEGIC>MOL_PROPERTY
Pdih
SciTegic.value.DoubleValue
9.702

@<SCITEGIC>MOL_PROPERTY
Idih
SciTegic.value.DoubleValue
0.000

@<SCITEGIC>MOL_PROPERTY
Tether
SciTegic.value.DoubleValue
0.000

@<TRIPOS>MOLECULE
guest-4_confgen4.mol2 : confsearch ligand conformer 518
          16          16           1
SMALL
USER_CHARGES
 
@<TRIPOS>ATOM
       1    C1      19.388970   19.613830   21.266043 C.3        1 MOL1        -0.1689
       2    H1      19.121982   20.673248   21.151545 H          1 MOL1         0.0830
       3    H2      19.838413   19.269060   20.324366 H          1 MOL1         0.0830
       4    C2      18.175108   18.739496   21.609273 C.3        1 MOL1        -0.1689
       5    H3      17.525872   19.272511   22.317840 H          1 MOL1         0.0830
       6    H4      17.579243   18.482353   20.723008 H          1 MOL1         0.0830
       7    C3      18.775863   17.497966   22.293941 C.3        1 MOL1        -0.1765
       8    H5      18.995842   16.731432   21.539540 H          1 MOL1         0.0830
       9    H6      18.078973   17.060310   23.021142 H          1 MOL1         0.0830
      10    C4      20.096478   17.952703   22.948911 C.3        1 MOL1         0.1214
      11    H7      20.907004   17.276733   22.639666 H          1 MOL1         0.0787
      12    C5      20.371020   19.379413   22.428470 C.3        1 MOL1        -0.1765
      13    H8      20.179671   20.116744   23.219994 H          1 MOL1         0.0830
      14    H9      21.412800   19.496679   22.103216 H          1 MOL1         0.0830
      15    O1      19.963154   17.964017   24.365243 O.3        1 MOL1        -0.5512
      16    H10     20.822223   18.269415   24.726161 H          1 MOL1         0.3776
@<TRIPOS>BOND
    1     1     2    1
    2     1     3    1
    3     1     4    1
    4     4     5    1
    5     4     6    1
    6     4     7    1
    7     7     8    1
    8     7     9    1
    9     7    10    1
   10    10    11    1
   11     1    12    1
   12    10    12    1
   13    12    13    1
   14    12    14    1
   15    10    15    1
   16    15    16    1
@<TRIPOS>SUBSTRUCTURE
       1 MOL1            1 RESIDUE      1      MOL     
@<SCITEGIC>MOL_PROPERTY
VConf Rank
SciTegic.value.IntegerValue
518

@<SCITEGIC>MOL_PROPERTY
Conf_Id
SciTegic.value.IntegerValue
33

@<SCITEGIC>MOL_PROPERTY
Delta U+W
SciTegic.value.DoubleValue
0.015

@<SCITEGIC>MOL_PROPERTY
U+W
SciTegic.value.DoubleValue
3.025

@<SCITEGIC>MOL_PROPERTY
Grad RMS
SciTegic.value.DoubleValue
0.000000

@<SCITEGIC>MOL_PROPERTY
U
SciTegic.value.DoubleValue
5.843

@<SCITEGIC>MOL_PROPERTY
W
SciTegic.value.DoubleValue
-2.819

@<SCITEGIC>MOL_PROPERTY
W(PB)
SciTegic.value.DoubleValue
-4.568

@<SCITEGIC>MOL_PROPERTY
W(SA)
SciTegic.value.DoubleValue
1.750

@<SCITEGIC>MOL_PROPERTY
Valence
SciTegic.value.DoubleValue
13.789

@<SCITEGIC>MOL_PROPERTY
Coulomb
SciTegic.value.DoubleValue
-8.574

@<SCITEGIC>MOL_PROPERTY
VdW
SciTegic.value.DoubleValue
0.628

@<SCITEGIC>MOL_PROPERTY
VdW6
SciTegic.value.DoubleValue
-3.284

@<SCITEGIC>MOL_PROPERTY
VdW12
SciTegic.value.DoubleValue
3.913

@<SCITEGIC>MOL_PROPERTY
Bond
SciTegic.value.DoubleValue
0.054

@<SCITEGIC>MOL_PROPERTY
Angle
SciTegic.value.DoubleValue
4.033

@<SCITEGIC>MOL_PROPERTY
Pdih
SciTegic.value.DoubleValue
9.702

@<SCITEGIC>MOL_PROPERTY
Idih
SciTegic.value.DoubleValue
0.000

@<SCITEGIC>MOL_PROPERTY
Tether
SciTegic.value.DoubleValue
0.000

@<TRIPOS>MOLECULE
guest-4_confgen4.mol2 : confsearch ligand conformer 519
          16          16           1
SMALL
USER_CHARGES
 
@<TRIPOS>ATOM
       1    C1      19.980917   17.678986   21.513471 C.3        1 MOL1        -0.1689
       2    H1      21.029519   17.901652   21.272472 H          1 MOL1         0.0830
       3    H2      19.735047   16.706711   21.064889 H          1 MOL1         0.0830
       4    C2      19.068001   18.801068   20.972604 C.3        1 MOL1        -0.1689
       5    H3      19.674661   19.566246   20.468925 H          1 MOL1         0.0830
       6    H4      18.343886   18.415560   20.241823 H          1 MOL1         0.0830
       7    C3      18.350694   19.409693   22.196320 C.3        1 MOL1        -0.1765
       8    H5      17.350357   18.967354   22.292669 H          1 MOL1         0.0830
       9    H6      18.227973   20.497450   22.108401 H          1 MOL1         0.0830
      10    C4      19.189402   19.016374   23.419783 C.3        1 MOL1         0.1214
      11    H7      18.574300   18.954513   24.329072 H          1 MOL1         0.0787
      12    C5      19.780049   17.650885   23.043576 C.3        1 MOL1        -0.1765
      13    H8      20.713306   17.438695   23.582103 H          1 MOL1         0.0830
      14    H9      19.057918   16.865963   23.304432 H          1 MOL1         0.0830
      15    O1      20.244214   19.952898   23.584402 O.3        1 MOL1        -0.5512
      16    H10     20.731510   19.939718   22.734972 H          1 MOL1         0.3776
@<TRIPOS>BOND
    1     1     2    1
    2     1     3    1
    3     1     4    1
    4     4     5    1
    5     4     6    1
    6     4     7    1
    7     7     8    1
    8     7     9    1
    9     7    10    1
   10    10    11    1
   11     1    12    1
   12    10    12    1
   13    12    13    1
   14    12    14    1
   15    10    15    1
   16    15    16    1
@<TRIPOS>SUBSTRUCTURE
       1 MOL1            1 RESIDUE      1      MOL     
@<SCITEGIC>MOL_PROPERTY
VConf Rank
SciTegic.value.IntegerValue
519

@<SCITEGIC>MOL_PROPERTY
Conf_Id
SciTegic.value.IntegerValue
20

@<SCITEGIC>MOL_PROPERTY
Delta U+W
SciTegic.value.DoubleValue
-0.483

@<SCITEGIC>MOL_PROPERTY
U+W
SciTegic.value.DoubleValue
2.527

@<SCITEGIC>MOL_PROPERTY
Grad RMS
SciTegic.value.DoubleValue
0.000000

@<SCITEGIC>MOL_PROPERTY
U
SciTegic.value.DoubleValue
4.508

@<SCITEGIC>MOL_PROPERTY
W
SciTegic.value.DoubleValue
-1.981

@<SCITEGIC>MOL_PROPERTY
W(PB)
SciTegic.value.DoubleValue
-3.712

@<SCITEGIC>MOL_PROPERTY
W(SA)
SciTegic.value.DoubleValue
1.732

@<SCITEGIC>MOL_PROPERTY
Valence
SciTegic.value.DoubleValue
14.705

@<SCITEGIC>MOL_PROPERTY
Coulomb
SciTegic.value.DoubleValue
-10.687

@<SCITEGIC>MOL_PROPERTY
VdW
SciTegic.value.DoubleValue
0.490

@<SCITEGIC>MOL_PROPERTY
VdW6
SciTegic.value.DoubleValue
-3.745

@<SCITEGIC>MOL_PROPERTY
VdW12
SciTegic.value.DoubleValue
4.235

@<SCITEGIC>MOL_PROPERTY
Bond
SciTegic.value.DoubleValue
0.068

@<SCITEGIC>MOL_PROPERTY
Angle
SciTegic.value.DoubleValue
3.901

@<SCITEGIC>MOL_PROPERTY
Pdih
SciTegic.value.DoubleValue
10.737

@<SCITEGIC>MOL_PROPERTY
Idih
SciTegic.value.DoubleValue
0.000

@<SCITEGIC>MOL_PROPERTY
Tether
SciTegic.value.DoubleValue
0.000

@<TRIPOS>MOLECULE
guest-4_confgen4.mol2 : confsearch ligand conformer 520
          16          16           1
SMALL
USER_CHARGES
 
@<TRIPOS>ATOM
       1    C1      19.561326   19.183356   23.608927 C.3        1 MOL1        -0.1689
       2    H1      19.942749   18.382401   24.257514 H          1 MOL1         0.0830
       3    H2      19.548865   20.117478   24.186772 H          1 MOL1         0.0830
       4    C2      18.171121   18.800955   23.082782 C.3        1 MOL1        -0.1689
       5    H3      17.556147   18.307052   23.847390 H          1 MOL1         0.0830
       6    H4      17.641993   19.703510   22.746564 H          1 MOL1         0.0830
       7    C3      18.455933   17.885022   21.878412 C.3        1 MOL1        -0.1765
       8    H5      17.658152   17.950285   21.127325 H          1 MOL1         0.0830
       9    H6      18.513026   16.842602   22.220300 H          1 MOL1         0.0830
      10    C4      19.815437   18.334090   21.302422 C.3        1 MOL1         0.1214
      11    H7      19.663099   18.879240   20.359488 H          1 MOL1         0.0787
      12    C5      20.436672   19.285131   22.346176 C.3        1 MOL1        -0.1765
      13    H8      21.485614   19.040693   22.560635 H          1 MOL1         0.0830
      14    H9      20.405873   20.311604   21.958250 H          1 MOL1         0.0830
      15    O1      20.659949   17.206986   21.101611 O.3        1 MOL1        -0.5512
      16    H10     20.213609   16.635130   20.441843 H          1 MOL1         0.3776
@<TRIPOS>BOND
    1     1     2    1
    2     1     3    1
    3     1     4    1
    4     4     5    1
    5     4     6    1
    6     4     7    1
    7     7     8    1
    8     7     9    1
    9     7    10    1
   10    10    11    1
   11     1    12    1
   12    10    12    1
   13    12    13    1
   14    12    14    1
   15    10    15    1
   16    15    16    1
@<TRIPOS>SUBSTRUCTURE
       1 MOL1            1 RESIDUE      1      MOL     
@<SCITEGIC>MOL_PROPERTY
VConf Rank
SciTegic.value.IntegerValue
520

@<SCITEGIC>MOL_PROPERTY
Conf_Id
SciTegic.value.IntegerValue
59

@<SCITEGIC>MOL_PROPERTY
Delta U+W
SciTegic.value.DoubleValue
0.000

@<SCITEGIC>MOL_PROPERTY
U+W
SciTegic.value.DoubleValue
3.010

@<SCITEGIC>MOL_PROPERTY
Grad RMS
SciTegic.value.DoubleValue
0.000000

@<SCITEGIC>MOL_PROPERTY
U
SciTegic.value.DoubleValue
5.843

@<SCITEGIC>MOL_PROPERTY
W
SciTegic.value.DoubleValue
-2.833

@<SCITEGIC>MOL_PROPERTY
W(PB)
SciTegic.value.DoubleValue
-4.568

@<SCITEGIC>MOL_PROPERTY
W(SA)
SciTegic.value.DoubleValue
1.735

@<SCITEGIC>MOL_PROPERTY
Valence
SciTegic.value.DoubleValue
13.789

@<SCITEGIC>MOL_PROPERTY
Coulomb
SciTegic.value.DoubleValue
-8.574

@<SCITEGIC>MOL_PROPERTY
VdW
SciTegic.value.DoubleValue
0.628

@<SCITEGIC>MOL_PROPERTY
VdW6
SciTegic.value.DoubleValue
-3.284

@<SCITEGIC>MOL_PROPERTY
VdW12
SciTegic.value.DoubleValue
3.912

@<SCITEGIC>MOL_PROPERTY
Bond
SciTegic.value.DoubleValue
0.054

@<SCITEGIC>MOL_PROPERTY
Angle
SciTegic.value.DoubleValue
4.034

@<SCITEGIC>MOL_PROPERTY
Pdih
SciTegic.value.DoubleValue
9.702

@<SCITEGIC>MOL_PROPERTY
Idih
SciTegic.value.DoubleValue
0.000

@<SCITEGIC>MOL_PROPERTY
Tether
SciTegic.value.DoubleValue
0.000

@<TRIPOS>MOLECULE
guest-4_confgen4.mol2 : confsearch ligand conformer 521
          16          16           1
SMALL
USER_CHARGES
 
@<TRIPOS>ATOM
       1    C1      19.976163   19.802141   21.684127 C.3        1 MOL1        -0.1689
       2    H1      20.093450   20.244677   20.685546 H          1 MOL1         0.0830
       3    H2      20.253699   20.559588   22.430365 H          1 MOL1         0.0830
       4    C2      20.842611   18.549438   21.873149 C.3        1 MOL1        -0.1689
       5    H3      20.834249   17.953147   20.950085 H          1 MOL1         0.0830
       6    H4      21.885789   18.793531   22.115721 H          1 MOL1         0.0830
       7    C3      20.145301   17.765164   22.999981 C.3        1 MOL1        -0.1765
       8    H5      20.550695   18.076976   23.971328 H          1 MOL1         0.0830
       9    H6      20.309385   16.683786   22.901400 H          1 MOL1         0.0830
      10    C4      18.649952   18.138783   22.935670 C.3        1 MOL1         0.1214
      11    H7      18.310763   18.453071   23.933515 H          1 MOL1         0.0787
      12    C5      18.538474   19.316546   21.944619 C.3        1 MOL1        -0.1765
      13    H8      18.092575   18.977864   20.999499 H          1 MOL1         0.0830
      14    H9      17.909318   20.122175   22.344583 H          1 MOL1         0.0830
      15    O1      17.887305   17.031703   22.470224 O.3        1 MOL1        -0.5512
      16    H10     16.952888   17.327321   22.438547 H          1 MOL1         0.3776
@<TRIPOS>BOND
    1     1     2    1
    2     1     3    1
    3     1     4    1
    4     4     5    1
    5     4     6    1
    6     4     7    1
    7     7     8    1
    8     7     9    1
    9     7    10    1
   10    10    11    1
   11     1    12    1
   12    10    12    1
   13    12    13    1
   14    12    14    1
   15    10    15    1
   16    15    16    1
@<TRIPOS>SUBSTRUCTURE
       1 MOL1            1 RESIDUE      1      MOL     
@<SCITEGIC>MOL_PROPERTY
VConf Rank
SciTegic.value.IntegerValue
521

@<SCITEGIC>MOL_PROPERTY
Conf_Id
SciTegic.value.IntegerValue
33

@<SCITEGIC>MOL_PROPERTY
Delta U+W
SciTegic.value.DoubleValue
0.015

@<SCITEGIC>MOL_PROPERTY
U+W
SciTegic.value.DoubleValue
3.025

@<SCITEGIC>MOL_PROPERTY
Grad RMS
SciTegic.value.DoubleValue
0.000000

@<SCITEGIC>MOL_PROPERTY
U
SciTegic.value.DoubleValue
5.843

@<SCITEGIC>MOL_PROPERTY
W
SciTegic.value.DoubleValue
-2.819

@<SCITEGIC>MOL_PROPERTY
W(PB)
SciTegic.value.DoubleValue
-4.568

@<SCITEGIC>MOL_PROPERTY
W(SA)
SciTegic.value.DoubleValue
1.750

@<SCITEGIC>MOL_PROPERTY
Valence
SciTegic.value.DoubleValue
13.789

@<SCITEGIC>MOL_PROPERTY
Coulomb
SciTegic.value.DoubleValue
-8.574

@<SCITEGIC>MOL_PROPERTY
VdW
SciTegic.value.DoubleValue
0.628

@<SCITEGIC>MOL_PROPERTY
VdW6
SciTegic.value.DoubleValue
-3.284

@<SCITEGIC>MOL_PROPERTY
VdW12
SciTegic.value.DoubleValue
3.913

@<SCITEGIC>MOL_PROPERTY
Bond
SciTegic.value.DoubleValue
0.054

@<SCITEGIC>MOL_PROPERTY
Angle
SciTegic.value.DoubleValue
4.033

@<SCITEGIC>MOL_PROPERTY
Pdih
SciTegic.value.DoubleValue
9.702

@<SCITEGIC>MOL_PROPERTY
Idih
SciTegic.value.DoubleValue
0.000

@<SCITEGIC>MOL_PROPERTY
Tether
SciTegic.value.DoubleValue
0.000

@<TRIPOS>MOLECULE
guest-4_confgen4.mol2 : confsearch ligand conformer 522
          16          16           1
SMALL
USER_CHARGES
 
@<TRIPOS>ATOM
       1    C1      18.816420   18.289123   21.089273 C.3        1 MOL1        -0.1689
       2    H1      17.791685   18.664512   20.961876 H          1 MOL1         0.0830
       3    H2      19.091471   17.752715   20.170790 H          1 MOL1         0.0830
       4    C2      18.888577   17.369012   22.327502 C.3        1 MOL1        -0.1689
       5    H3      17.898554   17.298248   22.798750 H          1 MOL1         0.0830
       6    H4      19.202369   16.351520   22.056867 H          1 MOL1         0.0830
       7    C3      19.896019   18.020393   23.298686 C.3        1 MOL1        -0.1765
       8    H5      20.878441   17.544083   23.182086 H          1 MOL1         0.0830
       9    H6      19.593416   17.909485   24.348512 H          1 MOL1         0.0830
      10    C4      20.002522   19.492019   22.876822 C.3        1 MOL1         0.1214
      11    H7      20.982813   19.917292   23.135967 H          1 MOL1         0.0787
      12    C5      19.783897   19.461311   21.358198 C.3        1 MOL1        -0.1765
      13    H8      19.398915   20.415334   20.973968 H          1 MOL1         0.0830
      14    H9      20.744369   19.265113   20.863606 H          1 MOL1         0.0830
      15    O1      18.953089   20.230193   23.485587 O.3        1 MOL1        -0.5512
      16    H10     18.129196   19.783411   23.201424 H          1 MOL1         0.3776
@<TRIPOS>BOND
    1     1     2    1
    2     1     3    1
    3     1     4    1
    4     4     5    1
    5     4     6    1
    6     4     7    1
    7     7     8    1
    8     7     9    1
    9     7    10    1
   10    10    11    1
   11     1    12    1
   12    10    12    1
   13    12    13    1
   14    12    14    1
   15    10    15    1
   16    15    16    1
@<TRIPOS>SUBSTRUCTURE
       1 MOL1            1 RESIDUE      1      MOL     
@<SCITEGIC>MOL_PROPERTY
VConf Rank
SciTegic.value.IntegerValue
522

@<SCITEGIC>MOL_PROPERTY
Conf_Id
SciTegic.value.IntegerValue
20

@<SCITEGIC>MOL_PROPERTY
Delta U+W
SciTegic.value.DoubleValue
-0.483

@<SCITEGIC>MOL_PROPERTY
U+W
SciTegic.value.DoubleValue
2.527

@<SCITEGIC>MOL_PROPERTY
Grad RMS
SciTegic.value.DoubleValue
0.000000

@<SCITEGIC>MOL_PROPERTY
U
SciTegic.value.DoubleValue
4.508

@<SCITEGIC>MOL_PROPERTY
W
SciTegic.value.DoubleValue
-1.981

@<SCITEGIC>MOL_PROPERTY
W(PB)
SciTegic.value.DoubleValue
-3.712

@<SCITEGIC>MOL_PROPERTY
W(SA)
SciTegic.value.DoubleValue
1.732

@<SCITEGIC>MOL_PROPERTY
Valence
SciTegic.value.DoubleValue
14.705

@<SCITEGIC>MOL_PROPERTY
Coulomb
SciTegic.value.DoubleValue
-10.687

@<SCITEGIC>MOL_PROPERTY
VdW
SciTegic.value.DoubleValue
0.490

@<SCITEGIC>MOL_PROPERTY
VdW6
SciTegic.value.DoubleValue
-3.745

@<SCITEGIC>MOL_PROPERTY
VdW12
SciTegic.value.DoubleValue
4.235

@<SCITEGIC>MOL_PROPERTY
Bond
SciTegic.value.DoubleValue
0.068

@<SCITEGIC>MOL_PROPERTY
Angle
SciTegic.value.DoubleValue
3.901

@<SCITEGIC>MOL_PROPERTY
Pdih
SciTegic.value.DoubleValue
10.737

@<SCITEGIC>MOL_PROPERTY
Idih
SciTegic.value.DoubleValue
0.000

@<SCITEGIC>MOL_PROPERTY
Tether
SciTegic.value.DoubleValue
0.000

@<TRIPOS>MOLECULE
guest-4_confgen4.mol2 : confsearch ligand conformer 523
          16          16           1
SMALL
USER_CHARGES
 
@<TRIPOS>ATOM
       1    C1      19.920200   19.890194   22.201904 C.3        1 MOL1        -0.1689
       2    H1      20.429319   19.903515   21.228099 H          1 MOL1         0.0830
       3    H2      20.000763   20.891634   22.646055 H          1 MOL1         0.0830
       4    C2      20.539217   18.803042   23.091087 C.3        1 MOL1        -0.1689
       5    H3      21.631472   18.749571   22.986788 H          1 MOL1         0.0830
       6    H4      20.304342   19.009137   24.144645 H          1 MOL1         0.0830
       7    C3      19.843896   17.503084   22.647021 C.3        1 MOL1        -0.1765
       8    H5      19.781046   16.780253   23.470678 H          1 MOL1         0.0830
       9    H6      20.422332   17.040621   21.835648 H          1 MOL1         0.0830
      10    C4      18.443775   17.909724   22.141073 C.3        1 MOL1         0.1214
      11    H7      17.678316   17.613043   22.872901 H          1 MOL1         0.0787
      12    C5      18.457644   19.447014   22.013083 C.3        1 MOL1        -0.1765
      13    H8      18.052607   19.788866   21.051261 H          1 MOL1         0.0830
      14    H9      17.836362   19.878068   22.808873 H          1 MOL1         0.0830
      15    O1      18.187305   17.314263   20.874764 O.3        1 MOL1        -0.5512
      16    H10     18.200971   16.343507   21.012529 H          1 MOL1         0.3776
@<TRIPOS>BOND
    1     1     2    1
    2     1     3    1
    3     1     4    1
    4     4     5    1
    5     4     6    1
    6     4     7    1
    7     7     8    1
    8     7     9    1
    9     7    10    1
   10    10    11    1
   11     1    12    1
   12    10    12    1
   13    12    13    1
   14    12    14    1
   15    10    15    1
   16    15    16    1
@<TRIPOS>SUBSTRUCTURE
       1 MOL1            1 RESIDUE      1      MOL     
@<SCITEGIC>MOL_PROPERTY
VConf Rank
SciTegic.value.IntegerValue
523

@<SCITEGIC>MOL_PROPERTY
Conf_Id
SciTegic.value.IntegerValue
59

@<SCITEGIC>MOL_PROPERTY
Delta U+W
SciTegic.value.DoubleValue
0.000

@<SCITEGIC>MOL_PROPERTY
U+W
SciTegic.value.DoubleValue
3.010

@<SCITEGIC>MOL_PROPERTY
Grad RMS
SciTegic.value.DoubleValue
0.000000

@<SCITEGIC>MOL_PROPERTY
U
SciTegic.value.DoubleValue
5.843

@<SCITEGIC>MOL_PROPERTY
W
SciTegic.value.DoubleValue
-2.833

@<SCITEGIC>MOL_PROPERTY
W(PB)
SciTegic.value.DoubleValue
-4.568

@<SCITEGIC>MOL_PROPERTY
W(SA)
SciTegic.value.DoubleValue
1.735

@<SCITEGIC>MOL_PROPERTY
Valence
SciTegic.value.DoubleValue
13.789

@<SCITEGIC>MOL_PROPERTY
Coulomb
SciTegic.value.DoubleValue
-8.574

@<SCITEGIC>MOL_PROPERTY
VdW
SciTegic.value.DoubleValue
0.628

@<SCITEGIC>MOL_PROPERTY
VdW6
SciTegic.value.DoubleValue
-3.284

@<SCITEGIC>MOL_PROPERTY
VdW12
SciTegic.value.DoubleValue
3.912

@<SCITEGIC>MOL_PROPERTY
Bond
SciTegic.value.DoubleValue
0.054

@<SCITEGIC>MOL_PROPERTY
Angle
SciTegic.value.DoubleValue
4.034

@<SCITEGIC>MOL_PROPERTY
Pdih
SciTegic.value.DoubleValue
9.702

@<SCITEGIC>MOL_PROPERTY
Idih
SciTegic.value.DoubleValue
0.000

@<SCITEGIC>MOL_PROPERTY
Tether
SciTegic.value.DoubleValue
0.000

@<TRIPOS>MOLECULE
guest-4_confgen4.mol2 : confsearch ligand conformer 524
          16          16           1
SMALL
USER_CHARGES
 
@<TRIPOS>ATOM
       1    C1      18.962694   17.721405   21.278739 C.3        1 MOL1        -0.1689
       2    H1      18.430412   16.763858   21.197881 H          1 MOL1         0.0830
       3    H2      19.038246   18.158473   20.273312 H          1 MOL1         0.0830
       4    C2      20.366294   17.560463   21.878516 C.3        1 MOL1        -0.1689
       5    H3      20.336746   16.822179   22.691991 H          1 MOL1         0.0830
       6    H4      21.103755   17.225568   21.136465 H          1 MOL1         0.0830
       7    C3      20.700761   18.948916   22.454197 C.3        1 MOL1        -0.1765
       8    H5      21.200657   19.554989   21.687474 H          1 MOL1         0.0830
       9    H6      21.377265   18.876925   23.316275 H          1 MOL1         0.0830
      10    C4      19.355303   19.609424   22.819259 C.3        1 MOL1         0.1214
      11    H7      19.307766   20.610916   22.367292 H          1 MOL1         0.0787
      12    C5      18.253015   18.708274   22.223756 C.3        1 MOL1        -0.1765
      13    H8      17.747484   18.147430   23.021674 H          1 MOL1         0.0830
      14    H9      17.493990   19.296904   21.692489 H          1 MOL1         0.0830
      15    O1      19.214871   19.687791   24.232778 O.3        1 MOL1        -0.5512
      16    H10     18.343357   20.102396   24.406260 H          1 MOL1         0.3776
@<TRIPOS>BOND
    1     1     2    1
    2     1     3    1
    3     1     4    1
    4     4     5    1
    5     4     6    1
    6     4     7    1
    7     7     8    1
    8     7     9    1
    9     7    10    1
   10    10    11    1
   11     1    12    1
   12    10    12    1
   13    12    13    1
   14    12    14    1
   15    10    15    1
   16    15    16    1
@<TRIPOS>SUBSTRUCTURE
       1 MOL1            1 RESIDUE      1      MOL     
@<SCITEGIC>MOL_PROPERTY
VConf Rank
SciTegic.value.IntegerValue
524

@<SCITEGIC>MOL_PROPERTY
Conf_Id
SciTegic.value.IntegerValue
33

@<SCITEGIC>MOL_PROPERTY
Delta U+W
SciTegic.value.DoubleValue
0.015

@<SCITEGIC>MOL_PROPERTY
U+W
SciTegic.value.DoubleValue
3.025

@<SCITEGIC>MOL_PROPERTY
Grad RMS
SciTegic.value.DoubleValue
0.000000

@<SCITEGIC>MOL_PROPERTY
U
SciTegic.value.DoubleValue
5.843

@<SCITEGIC>MOL_PROPERTY
W
SciTegic.value.DoubleValue
-2.819

@<SCITEGIC>MOL_PROPERTY
W(PB)
SciTegic.value.DoubleValue
-4.568

@<SCITEGIC>MOL_PROPERTY
W(SA)
SciTegic.value.DoubleValue
1.750

@<SCITEGIC>MOL_PROPERTY
Valence
SciTegic.value.DoubleValue
13.789

@<SCITEGIC>MOL_PROPERTY
Coulomb
SciTegic.value.DoubleValue
-8.574

@<SCITEGIC>MOL_PROPERTY
VdW
SciTegic.value.DoubleValue
0.628

@<SCITEGIC>MOL_PROPERTY
VdW6
SciTegic.value.DoubleValue
-3.284

@<SCITEGIC>MOL_PROPERTY
VdW12
SciTegic.value.DoubleValue
3.913

@<SCITEGIC>MOL_PROPERTY
Bond
SciTegic.value.DoubleValue
0.054

@<SCITEGIC>MOL_PROPERTY
Angle
SciTegic.value.DoubleValue
4.033

@<SCITEGIC>MOL_PROPERTY
Pdih
SciTegic.value.DoubleValue
9.702

@<SCITEGIC>MOL_PROPERTY
Idih
SciTegic.value.DoubleValue
0.000

@<SCITEGIC>MOL_PROPERTY
Tether
SciTegic.value.DoubleValue
0.000

@<TRIPOS>MOLECULE
guest-4_confgen4.mol2 : confsearch ligand conformer 525
          16          16           1
SMALL
USER_CHARGES
 
@<TRIPOS>ATOM
       1    C1      19.942326   19.722085   22.738268 C.3        1 MOL1        -0.1689
       2    H1      20.981306   19.877305   22.416313 H          1 MOL1         0.0830
       3    H2      19.659411   20.573030   23.372971 H          1 MOL1         0.0830
       4    C2      19.822287   18.382655   23.497571 C.3        1 MOL1        -0.1689
       5    H3      20.803358   17.890142   23.544018 H          1 MOL1         0.0830
       6    H4      19.475590   18.532860   24.529190 H          1 MOL1         0.0830
       7    C3      18.827100   17.514380   22.698736 C.3        1 MOL1        -0.1765
       8    H5      17.829748   17.588371   23.151987 H          1 MOL1         0.0830
       9    H6      19.112792   16.454037   22.691070 H          1 MOL1         0.0830
      10    C4      18.778446   18.113481   21.286750 C.3        1 MOL1         0.1214
      11    H7      17.810931   17.923984   20.799935 H          1 MOL1         0.0787
      12    C5      19.014225   19.613354   21.509789 C.3        1 MOL1        -0.1765
      13    H8      19.437727   20.104209   20.623385 H          1 MOL1         0.0830
      14    H9      18.053413   20.096140   21.732008 H          1 MOL1         0.0830
      15    O1      19.846165   17.581727   20.516023 O.3        1 MOL1        -0.5512
      16    H10     20.656927   17.796004   21.021901 H          1 MOL1         0.3776
@<TRIPOS>BOND
    1     1     2    1
    2     1     3    1
    3     1     4    1
    4     4     5    1
    5     4     6    1
    6     4     7    1
    7     7     8    1
    8     7     9    1
    9     7    10    1
   10    10    11    1
   11     1    12    1
   12    10    12    1
   13    12    13    1
   14    12    14    1
   15    10    15    1
   16    15    16    1
@<TRIPOS>SUBSTRUCTURE
       1 MOL1            1 RESIDUE      1      MOL     
@<SCITEGIC>MOL_PROPERTY
VConf Rank
SciTegic.value.IntegerValue
525

@<SCITEGIC>MOL_PROPERTY
Conf_Id
SciTegic.value.IntegerValue
20

@<SCITEGIC>MOL_PROPERTY
Delta U+W
SciTegic.value.DoubleValue
-0.483

@<SCITEGIC>MOL_PROPERTY
U+W
SciTegic.value.DoubleValue
2.527

@<SCITEGIC>MOL_PROPERTY
Grad RMS
SciTegic.value.DoubleValue
0.000000

@<SCITEGIC>MOL_PROPERTY
U
SciTegic.value.DoubleValue
4.508

@<SCITEGIC>MOL_PROPERTY
W
SciTegic.value.DoubleValue
-1.981

@<SCITEGIC>MOL_PROPERTY
W(PB)
SciTegic.value.DoubleValue
-3.712

@<SCITEGIC>MOL_PROPERTY
W(SA)
SciTegic.value.DoubleValue
1.732

@<SCITEGIC>MOL_PROPERTY
Valence
SciTegic.value.DoubleValue
14.705

@<SCITEGIC>MOL_PROPERTY
Coulomb
SciTegic.value.DoubleValue
-10.687

@<SCITEGIC>MOL_PROPERTY
VdW
SciTegic.value.DoubleValue
0.490

@<SCITEGIC>MOL_PROPERTY
VdW6
SciTegic.value.DoubleValue
-3.745

@<SCITEGIC>MOL_PROPERTY
VdW12
SciTegic.value.DoubleValue
4.235

@<SCITEGIC>MOL_PROPERTY
Bond
SciTegic.value.DoubleValue
0.068

@<SCITEGIC>MOL_PROPERTY
Angle
SciTegic.value.DoubleValue
3.901

@<SCITEGIC>MOL_PROPERTY
Pdih
SciTegic.value.DoubleValue
10.737

@<SCITEGIC>MOL_PROPERTY
Idih
SciTegic.value.DoubleValue
0.000

@<SCITEGIC>MOL_PROPERTY
Tether
SciTegic.value.DoubleValue
0.000

@<TRIPOS>MOLECULE
guest-4_confgen4.mol2 : confsearch ligand conformer 526
          16          16           1
SMALL
USER_CHARGES
 
@<TRIPOS>ATOM
       1    C1      19.049394   19.239269   21.069581 C.3        1 MOL1        -0.1689
       2    H1      18.151290   18.737030   20.683781 H          1 MOL1         0.0830
       3    H2      19.296959   20.068875   20.393481 H          1 MOL1         0.0830
       4    C2      20.193202   18.223463   21.194360 C.3        1 MOL1        -0.1689
       5    H3      20.218068   17.516675   20.353771 H          1 MOL1         0.0830
       6    H4      21.155722   18.752731   21.226842 H          1 MOL1         0.0830
       7    C3      19.938186   17.522964   22.541515 C.3        1 MOL1        -0.1765
       8    H5      20.874904   17.177460   22.997620 H          1 MOL1         0.0830
       9    H6      19.298113   16.645076   22.379024 H          1 MOL1         0.0830
      10    C4      19.216953   18.552167   23.437197 C.3        1 MOL1         0.1214
      11    H7      19.906736   18.931542   24.205177 H          1 MOL1         0.0787
      12    C5      18.795557   19.712941   22.512609 C.3        1 MOL1        -0.1765
      13    H8      17.748176   20.006709   22.663325 H          1 MOL1         0.0830
      14    H9      19.421963   20.588160   22.728684 H          1 MOL1         0.0830
      15    O1      18.070161   17.962095   24.037673 O.3        1 MOL1        -0.5512
      16    H10     18.394180   17.228379   24.601770 H          1 MOL1         0.3776
@<TRIPOS>BOND
    1     1     2    1
    2     1     3    1
    3     1     4    1
    4     4     5    1
    5     4     6    1
    6     4     7    1
    7     7     8    1
    8     7     9    1
    9     7    10    1
   10    10    11    1
   11     1    12    1
   12    10    12    1
   13    12    13    1
   14    12    14    1
   15    10    15    1
   16    15    16    1
@<TRIPOS>SUBSTRUCTURE
       1 MOL1            1 RESIDUE      1      MOL     
@<SCITEGIC>MOL_PROPERTY
VConf Rank
SciTegic.value.IntegerValue
526

@<SCITEGIC>MOL_PROPERTY
Conf_Id
SciTegic.value.IntegerValue
59

@<SCITEGIC>MOL_PROPERTY
Delta U+W
SciTegic.value.DoubleValue
0.000

@<SCITEGIC>MOL_PROPERTY
U+W
SciTegic.value.DoubleValue
3.010

@<SCITEGIC>MOL_PROPERTY
Grad RMS
SciTegic.value.DoubleValue
0.000000

@<SCITEGIC>MOL_PROPERTY
U
SciTegic.value.DoubleValue
5.843

@<SCITEGIC>MOL_PROPERTY
W
SciTegic.value.DoubleValue
-2.833

@<SCITEGIC>MOL_PROPERTY
W(PB)
SciTegic.value.DoubleValue
-4.568

@<SCITEGIC>MOL_PROPERTY
W(SA)
SciTegic.value.DoubleValue
1.735

@<SCITEGIC>MOL_PROPERTY
Valence
SciTegic.value.DoubleValue
13.789

@<SCITEGIC>MOL_PROPERTY
Coulomb
SciTegic.value.DoubleValue
-8.574

@<SCITEGIC>MOL_PROPERTY
VdW
SciTegic.value.DoubleValue
0.628

@<SCITEGIC>MOL_PROPERTY
VdW6
SciTegic.value.DoubleValue
-3.284

@<SCITEGIC>MOL_PROPERTY
VdW12
SciTegic.value.DoubleValue
3.912

@<SCITEGIC>MOL_PROPERTY
Bond
SciTegic.value.DoubleValue
0.054

@<SCITEGIC>MOL_PROPERTY
Angle
SciTegic.value.DoubleValue
4.034

@<SCITEGIC>MOL_PROPERTY
Pdih
SciTegic.value.DoubleValue
9.702

@<SCITEGIC>MOL_PROPERTY
Idih
SciTegic.value.DoubleValue
0.000

@<SCITEGIC>MOL_PROPERTY
Tether
SciTegic.value.DoubleValue
0.000

@<TRIPOS>MOLECULE
guest-4_confgen4.mol2 : confsearch ligand conformer 527
          16          16           1
SMALL
USER_CHARGES
 
@<TRIPOS>ATOM
       1    C1      19.682719   18.133431   23.625844 C.3        1 MOL1        -0.1689
       2    H1      19.143331   18.024721   24.576633 H          1 MOL1         0.0830
       3    H2      20.649522   17.619314   23.718568 H          1 MOL1         0.0830
       4    C2      19.913708   19.603574   23.250276 C.3        1 MOL1        -0.1689
       5    H3      19.020780   20.192654   23.501959 H          1 MOL1         0.0830
       6    H4      20.773686   20.040677   23.775653 H          1 MOL1         0.0830
       7    C3      20.105668   19.585330   21.722567 C.3        1 MOL1        -0.1765
       8    H5      21.169907   19.455927   21.486487 H          1 MOL1         0.0830
       9    H6      19.773508   20.525347   21.262070 H          1 MOL1         0.0830
      10    C4      19.321589   18.365897   21.195308 C.3        1 MOL1         0.1214
      11    H7      19.979634   17.759710   20.555751 H          1 MOL1         0.0787
      12    C5      18.896105   17.553082   22.436288 C.3        1 MOL1        -0.1765
      13    H8      17.819609   17.673253   22.619310 H          1 MOL1         0.0830
      14    H9      19.098395   16.482138   22.305894 H          1 MOL1         0.0830
      15    O1      18.173887   18.795679   20.472835 O.3        1 MOL1        -0.5512
      16    H10     17.710567   17.985178   20.172915 H          1 MOL1         0.3776
@<TRIPOS>BOND
    1     1     2    1
    2     1     3    1
    3     1     4    1
    4     4     5    1
    5     4     6    1
    6     4     7    1
    7     7     8    1
    8     7     9    1
    9     7    10    1
   10    10    11    1
   11     1    12    1
   12    10    12    1
   13    12    13    1
   14    12    14    1
   15    10    15    1
   16    15    16    1
@<TRIPOS>SUBSTRUCTURE
       1 MOL1            1 RESIDUE      1      MOL     
@<SCITEGIC>MOL_PROPERTY
VConf Rank
SciTegic.value.IntegerValue
527

@<SCITEGIC>MOL_PROPERTY
Conf_Id
SciTegic.value.IntegerValue
33

@<SCITEGIC>MOL_PROPERTY
Delta U+W
SciTegic.value.DoubleValue
0.015

@<SCITEGIC>MOL_PROPERTY
U+W
SciTegic.value.DoubleValue
3.025

@<SCITEGIC>MOL_PROPERTY
Grad RMS
SciTegic.value.DoubleValue
0.000000

@<SCITEGIC>MOL_PROPERTY
U
SciTegic.value.DoubleValue
5.843

@<SCITEGIC>MOL_PROPERTY
W
SciTegic.value.DoubleValue
-2.819

@<SCITEGIC>MOL_PROPERTY
W(PB)
SciTegic.value.DoubleValue
-4.568

@<SCITEGIC>MOL_PROPERTY
W(SA)
SciTegic.value.DoubleValue
1.750

@<SCITEGIC>MOL_PROPERTY
Valence
SciTegic.value.DoubleValue
13.789

@<SCITEGIC>MOL_PROPERTY
Coulomb
SciTegic.value.DoubleValue
-8.574

@<SCITEGIC>MOL_PROPERTY
VdW
SciTegic.value.DoubleValue
0.628

@<SCITEGIC>MOL_PROPERTY
VdW6
SciTegic.value.DoubleValue
-3.284

@<SCITEGIC>MOL_PROPERTY
VdW12
SciTegic.value.DoubleValue
3.913

@<SCITEGIC>MOL_PROPERTY
Bond
SciTegic.value.DoubleValue
0.054

@<SCITEGIC>MOL_PROPERTY
Angle
SciTegic.value.DoubleValue
4.033

@<SCITEGIC>MOL_PROPERTY
Pdih
SciTegic.value.DoubleValue
9.702

@<SCITEGIC>MOL_PROPERTY
Idih
SciTegic.value.DoubleValue
0.000

@<SCITEGIC>MOL_PROPERTY
Tether
SciTegic.value.DoubleValue
0.000

@<TRIPOS>MOLECULE
guest-4_confgen4.mol2 : confsearch ligand conformer 528
          16          16           1
SMALL
USER_CHARGES
 
@<TRIPOS>ATOM
       1    C1      18.061727   18.734958   22.448390 C.3        1 MOL1        -0.1689
       2    H1      17.446722   18.146323   21.753764 H          1 MOL1         0.0830
       3    H2      17.381473   19.260217   23.132755 H          1 MOL1         0.0830
       4    C2      18.946839   19.723312   21.657977 C.3        1 MOL1        -0.1689
       5    H3      18.759437   19.613755   20.580895 H          1 MOL1         0.0830
       6    H4      18.730291   20.765575   21.929628 H          1 MOL1         0.0830
       7    C3      20.410424   19.357542   21.984423 C.3        1 MOL1        -0.1765
       8    H5      20.786960   20.020982   22.774163 H          1 MOL1         0.0830
       9    H6      21.070772   19.466247   21.113718 H          1 MOL1         0.0830
      10    C4      20.380603   17.917964   22.515196 C.3        1 MOL1         0.1214
      11    H7      21.214132   17.723898   23.205522 H          1 MOL1         0.0787
      12    C5      19.023685   17.809853   23.223745 C.3        1 MOL1        -0.1765
      13    H8      18.659489   16.774822   23.269316 H          1 MOL1         0.0830
      14    H9      19.129935   18.172345   24.254731 H          1 MOL1         0.0830
      15    O1      20.409393   17.014846   21.419589 O.3        1 MOL1        -0.5512
      16    H10     19.639872   17.261125   20.866103 H          1 MOL1         0.3776
@<TRIPOS>BOND
    1     1     2    1
    2     1     3    1
    3     1     4    1
    4     4     5    1
    5     4     6    1
    6     4     7    1
    7     7     8    1
    8     7     9    1
    9     7    10    1
   10    10    11    1
   11     1    12    1
   12    10    12    1
   13    12    13    1
   14    12    14    1
   15    10    15    1
   16    15    16    1
@<TRIPOS>SUBSTRUCTURE
       1 MOL1            1 RESIDUE      1      MOL     
@<SCITEGIC>MOL_PROPERTY
VConf Rank
SciTegic.value.IntegerValue
528

@<SCITEGIC>MOL_PROPERTY
Conf_Id
SciTegic.value.IntegerValue
20

@<SCITEGIC>MOL_PROPERTY
Delta U+W
SciTegic.value.DoubleValue
-0.483

@<SCITEGIC>MOL_PROPERTY
U+W
SciTegic.value.DoubleValue
2.527

@<SCITEGIC>MOL_PROPERTY
Grad RMS
SciTegic.value.DoubleValue
0.000000

@<SCITEGIC>MOL_PROPERTY
U
SciTegic.value.DoubleValue
4.508

@<SCITEGIC>MOL_PROPERTY
W
SciTegic.value.DoubleValue
-1.981

@<SCITEGIC>MOL_PROPERTY
W(PB)
SciTegic.value.DoubleValue
-3.712

@<SCITEGIC>MOL_PROPERTY
W(SA)
SciTegic.value.DoubleValue
1.732

@<SCITEGIC>MOL_PROPERTY
Valence
SciTegic.value.DoubleValue
14.705

@<SCITEGIC>MOL_PROPERTY
Coulomb
SciTegic.value.DoubleValue
-10.687

@<SCITEGIC>MOL_PROPERTY
VdW
SciTegic.value.DoubleValue
0.490

@<SCITEGIC>MOL_PROPERTY
VdW6
SciTegic.value.DoubleValue
-3.745

@<SCITEGIC>MOL_PROPERTY
VdW12
SciTegic.value.DoubleValue
4.235

@<SCITEGIC>MOL_PROPERTY
Bond
SciTegic.value.DoubleValue
0.068

@<SCITEGIC>MOL_PROPERTY
Angle
SciTegic.value.DoubleValue
3.901

@<SCITEGIC>MOL_PROPERTY
Pdih
SciTegic.value.DoubleValue
10.737

@<SCITEGIC>MOL_PROPERTY
Idih
SciTegic.value.DoubleValue
0.000

@<SCITEGIC>MOL_PROPERTY
Tether
SciTegic.value.DoubleValue
0.000

@<TRIPOS>MOLECULE
guest-4_confgen4.mol2 : confsearch ligand conformer 529
          16          16           1
SMALL
USER_CHARGES
 
@<TRIPOS>ATOM
       1    C1      18.577800   18.790780   23.517824 C.3        1 MOL1        -0.1689
       2    H1      17.551132   18.957123   23.162915 H          1 MOL1         0.0830
       3    H2      18.570683   18.816492   24.615974 H          1 MOL1         0.0830
       4    C2      19.509158   19.850080   22.912693 C.3        1 MOL1        -0.1689
       5    H3      19.043175   20.844183   22.875582 H          1 MOL1         0.0830
       6    H4      20.426252   19.922716   23.513766 H          1 MOL1         0.0830
       7    C3      19.846241   19.308317   21.511471 C.3        1 MOL1        -0.1765
       8    H5      20.837197   19.643834   21.179384 H          1 MOL1         0.0830
       9    H6      19.105185   19.679584   20.790512 H          1 MOL1         0.0830
      10    C4      19.771914   17.770023   21.610487 C.3        1 MOL1         0.1214
      11    H7      20.785131   17.342578   21.596342 H          1 MOL1         0.0787
      12    C5      19.104274   17.453604   22.964728 C.3        1 MOL1        -0.1765
      13    H8      18.300840   16.710954   22.869928 H          1 MOL1         0.0830
      14    H9      19.858731   17.043481   23.648595 H          1 MOL1         0.0830
      15    O1      18.989702   17.246632   20.543671 O.3        1 MOL1        -0.5512
      16    H10     19.452153   17.485153   19.712540 H          1 MOL1         0.3776
@<TRIPOS>BOND
    1     1     2    1
    2     1     3    1
    3     1     4    1
    4     4     5    1
    5     4     6    1
    6     4     7    1
    7     7     8    1
    8     7     9    1
    9     7    10    1
   10    10    11    1
   11     1    12    1
   12    10    12    1
   13    12    13    1
   14    12    14    1
   15    10    15    1
   16    15    16    1
@<TRIPOS>SUBSTRUCTURE
       1 MOL1            1 RESIDUE      1      MOL     
@<SCITEGIC>MOL_PROPERTY
VConf Rank
SciTegic.value.IntegerValue
529

@<SCITEGIC>MOL_PROPERTY
Conf_Id
SciTegic.value.IntegerValue
59

@<SCITEGIC>MOL_PROPERTY
Delta U+W
SciTegic.value.DoubleValue
0.000

@<SCITEGIC>MOL_PROPERTY
U+W
SciTegic.value.DoubleValue
3.010

@<SCITEGIC>MOL_PROPERTY
Grad RMS
SciTegic.value.DoubleValue
0.000000

@<SCITEGIC>MOL_PROPERTY
U
SciTegic.value.DoubleValue
5.843

@<SCITEGIC>MOL_PROPERTY
W
SciTegic.value.DoubleValue
-2.833

@<SCITEGIC>MOL_PROPERTY
W(PB)
SciTegic.value.DoubleValue
-4.568

@<SCITEGIC>MOL_PROPERTY
W(SA)
SciTegic.value.DoubleValue
1.735

@<SCITEGIC>MOL_PROPERTY
Valence
SciTegic.value.DoubleValue
13.789

@<SCITEGIC>MOL_PROPERTY
Coulomb
SciTegic.value.DoubleValue
-8.574

@<SCITEGIC>MOL_PROPERTY
VdW
SciTegic.value.DoubleValue
0.628

@<SCITEGIC>MOL_PROPERTY
VdW6
SciTegic.value.DoubleValue
-3.284

@<SCITEGIC>MOL_PROPERTY
VdW12
SciTegic.value.DoubleValue
3.912

@<SCITEGIC>MOL_PROPERTY
Bond
SciTegic.value.DoubleValue
0.054

@<SCITEGIC>MOL_PROPERTY
Angle
SciTegic.value.DoubleValue
4.034

@<SCITEGIC>MOL_PROPERTY
Pdih
SciTegic.value.DoubleValue
9.702

@<SCITEGIC>MOL_PROPERTY
Idih
SciTegic.value.DoubleValue
0.000

@<SCITEGIC>MOL_PROPERTY
Tether
SciTegic.value.DoubleValue
0.000

@<TRIPOS>MOLECULE
guest-4_confgen4.mol2 : confsearch ligand conformer 530
          16          16           1
SMALL
USER_CHARGES
 
@<TRIPOS>ATOM
       1    C1      18.035767   18.562734   22.521044 C.3        1 MOL1        -0.1689
       2    H1      17.301402   17.957254   23.069551 H          1 MOL1         0.0830
       3    H2      17.522036   19.449175   22.123647 H          1 MOL1         0.0830
       4    C2      18.690140   17.786059   21.370263 C.3        1 MOL1        -0.1689
       5    H3      18.885165   16.752203   21.687733 H          1 MOL1         0.0830
       6    H4      18.059127   17.756864   20.471590 H          1 MOL1         0.0830
       7    C3      20.026398   18.511443   21.126728 C.3        1 MOL1        -0.1765
       8    H5      19.883800   19.306710   20.383559 H          1 MOL1         0.0830
       9    H6      20.793399   17.827067   20.740262 H          1 MOL1         0.0830
      10    C4      20.433237   19.147289   22.472083 C.3        1 MOL1         0.1214
      11    H7      20.660954   20.211947   22.316626 H          1 MOL1         0.0787
      12    C5      19.215752   18.998804   23.408789 C.3        1 MOL1        -0.1765
      13    H8      19.408315   18.224081   24.163445 H          1 MOL1         0.0830
      14    H9      18.995901   19.935975   23.936258 H          1 MOL1         0.0830
      15    O1      21.557392   18.466259   23.016482 O.3        1 MOL1        -0.5512
      16    H10     21.763832   18.902049   23.870297 H          1 MOL1         0.3776
@<TRIPOS>BOND
    1     1     2    1
    2     1     3    1
    3     1     4    1
    4     4     5    1
    5     4     6    1
    6     4     7    1
    7     7     8    1
    8     7     9    1
    9     7    10    1
   10    10    11    1
   11     1    12    1
   12    10    12    1
   13    12    13    1
   14    12    14    1
   15    10    15    1
   16    15    16    1
@<TRIPOS>SUBSTRUCTURE
       1 MOL1            1 RESIDUE      1      MOL     
@<SCITEGIC>MOL_PROPERTY
VConf Rank
SciTegic.value.IntegerValue
530

@<SCITEGIC>MOL_PROPERTY
Conf_Id
SciTegic.value.IntegerValue
33

@<SCITEGIC>MOL_PROPERTY
Delta U+W
SciTegic.value.DoubleValue
0.015

@<SCITEGIC>MOL_PROPERTY
U+W
SciTegic.value.DoubleValue
3.025

@<SCITEGIC>MOL_PROPERTY
Grad RMS
SciTegic.value.DoubleValue
0.000000

@<SCITEGIC>MOL_PROPERTY
U
SciTegic.value.DoubleValue
5.843

@<SCITEGIC>MOL_PROPERTY
W
SciTegic.value.DoubleValue
-2.819

@<SCITEGIC>MOL_PROPERTY
W(PB)
SciTegic.value.DoubleValue
-4.568

@<SCITEGIC>MOL_PROPERTY
W(SA)
SciTegic.value.DoubleValue
1.750

@<SCITEGIC>MOL_PROPERTY
Valence
SciTegic.value.DoubleValue
13.789

@<SCITEGIC>MOL_PROPERTY
Coulomb
SciTegic.value.DoubleValue
-8.574

@<SCITEGIC>MOL_PROPERTY
VdW
SciTegic.value.DoubleValue
0.628

@<SCITEGIC>MOL_PROPERTY
VdW6
SciTegic.value.DoubleValue
-3.284

@<SCITEGIC>MOL_PROPERTY
VdW12
SciTegic.value.DoubleValue
3.913

@<SCITEGIC>MOL_PROPERTY
Bond
SciTegic.value.DoubleValue
0.054

@<SCITEGIC>MOL_PROPERTY
Angle
SciTegic.value.DoubleValue
4.033

@<SCITEGIC>MOL_PROPERTY
Pdih
SciTegic.value.DoubleValue
9.702

@<SCITEGIC>MOL_PROPERTY
Idih
SciTegic.value.DoubleValue
0.000

@<SCITEGIC>MOL_PROPERTY
Tether
SciTegic.value.DoubleValue
0.000

@<TRIPOS>MOLECULE
guest-4_confgen4.mol2 : confsearch ligand conformer 531
          16          16           1
SMALL
USER_CHARGES
 
@<TRIPOS>ATOM
       1    C1      20.074246   17.713930   21.553026 C.3        1 MOL1        -0.1689
       2    H1      20.735165   18.151677   20.792243 H          1 MOL1         0.0830
       3    H2      20.200936   16.623225   21.516857 H          1 MOL1         0.0830
       4    C2      18.611400   18.125163   21.277363 C.3        1 MOL1        -0.1689
       5    H3      18.564212   18.761051   20.382575 H          1 MOL1         0.0830
       6    H4      17.972644   17.249482   21.097993 H          1 MOL1         0.0830
       7    C3      18.137256   18.913108   22.517027 C.3        1 MOL1        -0.1765
       8    H5      17.574730   18.245503   23.182976 H          1 MOL1         0.0830
       9    H6      17.479586   19.751365   22.250942 H          1 MOL1         0.0830
      10    C4      19.409898   19.378684   23.237177 C.3        1 MOL1         0.1214
      11    H7      19.241367   19.503483   24.316531 H          1 MOL1         0.0787
      12    C5      20.428731   18.267765   22.949438 C.3        1 MOL1        -0.1765
      13    H8      21.464403   18.628985   23.003375 H          1 MOL1         0.0830
      14    H9      20.312203   17.474169   23.699270 H          1 MOL1         0.0830
      15    O1      19.861827   20.590918   22.651468 O.3        1 MOL1        -0.5512
      16    H10     19.983147   20.385254   21.701654 H          1 MOL1         0.3776
@<TRIPOS>BOND
    1     1     2    1
    2     1     3    1
    3     1     4    1
    4     4     5    1
    5     4     6    1
    6     4     7    1
    7     7     8    1
    8     7     9    1
    9     7    10    1
   10    10    11    1
   11     1    12    1
   12    10    12    1
   13    12    13    1
   14    12    14    1
   15    10    15    1
   16    15    16    1
@<TRIPOS>SUBSTRUCTURE
       1 MOL1            1 RESIDUE      1      MOL     
@<SCITEGIC>MOL_PROPERTY
VConf Rank
SciTegic.value.IntegerValue
531

@<SCITEGIC>MOL_PROPERTY
Conf_Id
SciTegic.value.IntegerValue
20

@<SCITEGIC>MOL_PROPERTY
Delta U+W
SciTegic.value.DoubleValue
-0.483

@<SCITEGIC>MOL_PROPERTY
U+W
SciTegic.value.DoubleValue
2.527

@<SCITEGIC>MOL_PROPERTY
Grad RMS
SciTegic.value.DoubleValue
0.000000

@<SCITEGIC>MOL_PROPERTY
U
SciTegic.value.DoubleValue
4.508

@<SCITEGIC>MOL_PROPERTY
W
SciTegic.value.DoubleValue
-1.981

@<SCITEGIC>MOL_PROPERTY
W(PB)
SciTegic.value.DoubleValue
-3.712

@<SCITEGIC>MOL_PROPERTY
W(SA)
SciTegic.value.DoubleValue
1.732

@<SCITEGIC>MOL_PROPERTY
Valence
SciTegic.value.DoubleValue
14.705

@<SCITEGIC>MOL_PROPERTY
Coulomb
SciTegic.value.DoubleValue
-10.687

@<SCITEGIC>MOL_PROPERTY
VdW
SciTegic.value.DoubleValue
0.490

@<SCITEGIC>MOL_PROPERTY
VdW6
SciTegic.value.DoubleValue
-3.745

@<SCITEGIC>MOL_PROPERTY
VdW12
SciTegic.value.DoubleValue
4.235

@<SCITEGIC>MOL_PROPERTY
Bond
SciTegic.value.DoubleValue
0.068

@<SCITEGIC>MOL_PROPERTY
Angle
SciTegic.value.DoubleValue
3.901

@<SCITEGIC>MOL_PROPERTY
Pdih
SciTegic.value.DoubleValue
10.737

@<SCITEGIC>MOL_PROPERTY
Idih
SciTegic.value.DoubleValue
0.000

@<SCITEGIC>MOL_PROPERTY
Tether
SciTegic.value.DoubleValue
0.000

@<TRIPOS>MOLECULE
guest-4_confgen4.mol2 : confsearch ligand conformer 532
          16          16           1
SMALL
USER_CHARGES
 
@<TRIPOS>ATOM
       1    C1      19.105689   19.608094   21.345083 C.3        1 MOL1        -0.1689
       2    H1      18.463590   19.145426   20.582637 H          1 MOL1         0.0830
       3    H2      19.236555   20.667943   21.087717 H          1 MOL1         0.0830
       4    C2      20.440366   18.853940   21.420038 C.3        1 MOL1        -0.1689
       5    H3      20.808643   18.556539   20.428735 H          1 MOL1         0.0830
       6    H4      21.200072   19.492975   21.891319 H          1 MOL1         0.0830
       7    C3      20.145609   17.642410   22.323293 C.3        1 MOL1        -0.1765
       8    H5      21.042105   17.321742   22.869475 H          1 MOL1         0.0830
       9    H6      19.809059   16.800365   21.703229 H          1 MOL1         0.0830
      10    C4      19.021533   18.080664   23.285615 C.3        1 MOL1         0.1214
      11    H7      19.430869   18.243012   24.293388 H          1 MOL1         0.0787
      12    C5      18.475182   19.414785   22.736565 C.3        1 MOL1        -0.1765
      13    H8      17.378115   19.427759   22.688630 H          1 MOL1         0.0830
      14    H9      18.789823   20.230656   23.400219 H          1 MOL1         0.0830
      15    O1      17.989419   17.101952   23.313035 O.3        1 MOL1        -0.5512
      16    H10     18.392937   16.277273   23.657433 H          1 MOL1         0.3776
@<TRIPOS>BOND
    1     1     2    1
    2     1     3    1
    3     1     4    1
    4     4     5    1
    5     4     6    1
    6     4     7    1
    7     7     8    1
    8     7     9    1
    9     7    10    1
   10    10    11    1
   11     1    12    1
   12    10    12    1
   13    12    13    1
   14    12    14    1
   15    10    15    1
   16    15    16    1
@<TRIPOS>SUBSTRUCTURE
       1 MOL1            1 RESIDUE      1      MOL     
@<SCITEGIC>MOL_PROPERTY
VConf Rank
SciTegic.value.IntegerValue
532

@<SCITEGIC>MOL_PROPERTY
Conf_Id
SciTegic.value.IntegerValue
59

@<SCITEGIC>MOL_PROPERTY
Delta U+W
SciTegic.value.DoubleValue
0.000

@<SCITEGIC>MOL_PROPERTY
U+W
SciTegic.value.DoubleValue
3.010

@<SCITEGIC>MOL_PROPERTY
Grad RMS
SciTegic.value.DoubleValue
0.000000

@<SCITEGIC>MOL_PROPERTY
U
SciTegic.value.DoubleValue
5.843

@<SCITEGIC>MOL_PROPERTY
W
SciTegic.value.DoubleValue
-2.833

@<SCITEGIC>MOL_PROPERTY
W(PB)
SciTegic.value.DoubleValue
-4.568

@<SCITEGIC>MOL_PROPERTY
W(SA)
SciTegic.value.DoubleValue
1.735

@<SCITEGIC>MOL_PROPERTY
Valence
SciTegic.value.DoubleValue
13.789

@<SCITEGIC>MOL_PROPERTY
Coulomb
SciTegic.value.DoubleValue
-8.574

@<SCITEGIC>MOL_PROPERTY
VdW
SciTegic.value.DoubleValue
0.628

@<SCITEGIC>MOL_PROPERTY
VdW6
SciTegic.value.DoubleValue
-3.284

@<SCITEGIC>MOL_PROPERTY
VdW12
SciTegic.value.DoubleValue
3.912

@<SCITEGIC>MOL_PROPERTY
Bond
SciTegic.value.DoubleValue
0.054

@<SCITEGIC>MOL_PROPERTY
Angle
SciTegic.value.DoubleValue
4.034

@<SCITEGIC>MOL_PROPERTY
Pdih
SciTegic.value.DoubleValue
9.702

@<SCITEGIC>MOL_PROPERTY
Idih
SciTegic.value.DoubleValue
0.000

@<SCITEGIC>MOL_PROPERTY
Tether
SciTegic.value.DoubleValue
0.000

@<TRIPOS>MOLECULE
guest-4_confgen4.mol2 : confsearch ligand conformer 533
          16          16           1
SMALL
USER_CHARGES
 
@<TRIPOS>ATOM
       1    C1      20.634974   19.361856   21.977276 C.3        1 MOL1        -0.1689
       2    H1      21.470434   19.854890   22.492720 H          1 MOL1         0.0830
       3    H2      20.845697   19.366788   20.898762 H          1 MOL1         0.0830
       4    C2      19.292567   20.056423   22.244199 C.3        1 MOL1        -0.1689
       5    H3      19.243855   20.371987   23.295734 H          1 MOL1         0.0830
       6    H4      19.145608   20.942512   21.611829 H          1 MOL1         0.0830
       7    C3      18.236405   18.966654   21.983428 C.3        1 MOL1        -0.1765
       8    H5      17.932742   18.992727   20.928822 H          1 MOL1         0.0830
       9    H6      17.336643   19.121310   22.593780 H          1 MOL1         0.0830
      10    C4      18.918001   17.614304   22.277320 C.3        1 MOL1         0.1214
      11    H7      18.770400   16.939500   21.421531 H          1 MOL1         0.0787
      12    C5      20.420612   17.915453   22.459541 C.3        1 MOL1        -0.1765
      13    H8      20.697875   17.841210   23.519916 H          1 MOL1         0.0830
      14    H9      21.044748   17.208669   21.897618 H          1 MOL1         0.0830
      15    O1      18.383965   17.043940   23.466179 O.3        1 MOL1        -0.5512
      16    H10     18.858088   16.197691   23.609703 H          1 MOL1         0.3776
@<TRIPOS>BOND
    1     1     2    1
    2     1     3    1
    3     1     4    1
    4     4     5    1
    5     4     6    1
    6     4     7    1
    7     7     8    1
    8     7     9    1
    9     7    10    1
   10    10    11    1
   11     1    12    1
   12    10    12    1
   13    12    13    1
   14    12    14    1
   15    10    15    1
   16    15    16    1
@<TRIPOS>SUBSTRUCTURE
       1 MOL1            1 RESIDUE      1      MOL     
@<SCITEGIC>MOL_PROPERTY
VConf Rank
SciTegic.value.IntegerValue
533

@<SCITEGIC>MOL_PROPERTY
Conf_Id
SciTegic.value.IntegerValue
33

@<SCITEGIC>MOL_PROPERTY
Delta U+W
SciTegic.value.DoubleValue
0.015

@<SCITEGIC>MOL_PROPERTY
U+W
SciTegic.value.DoubleValue
3.025

@<SCITEGIC>MOL_PROPERTY
Grad RMS
SciTegic.value.DoubleValue
0.000000

@<SCITEGIC>MOL_PROPERTY
U
SciTegic.value.DoubleValue
5.843

@<SCITEGIC>MOL_PROPERTY
W
SciTegic.value.DoubleValue
-2.819

@<SCITEGIC>MOL_PROPERTY
W(PB)
SciTegic.value.DoubleValue
-4.568

@<SCITEGIC>MOL_PROPERTY
W(SA)
SciTegic.value.DoubleValue
1.750

@<SCITEGIC>MOL_PROPERTY
Valence
SciTegic.value.DoubleValue
13.789

@<SCITEGIC>MOL_PROPERTY
Coulomb
SciTegic.value.DoubleValue
-8.574

@<SCITEGIC>MOL_PROPERTY
VdW
SciTegic.value.DoubleValue
0.628

@<SCITEGIC>MOL_PROPERTY
VdW6
SciTegic.value.DoubleValue
-3.284

@<SCITEGIC>MOL_PROPERTY
VdW12
SciTegic.value.DoubleValue
3.913

@<SCITEGIC>MOL_PROPERTY
Bond
SciTegic.value.DoubleValue
0.054

@<SCITEGIC>MOL_PROPERTY
Angle
SciTegic.value.DoubleValue
4.033

@<SCITEGIC>MOL_PROPERTY
Pdih
SciTegic.value.DoubleValue
9.702

@<SCITEGIC>MOL_PROPERTY
Idih
SciTegic.value.DoubleValue
0.000

@<SCITEGIC>MOL_PROPERTY
Tether
SciTegic.value.DoubleValue
0.000

@<TRIPOS>MOLECULE
guest-4_confgen4.mol2 : confsearch ligand conformer 534
          16          16           1
SMALL
USER_CHARGES
 
@<TRIPOS>ATOM
       1    C1      20.500725   19.218966   22.651076 C.3        1 MOL1        -0.1689
       2    H1      20.936131   19.892964   21.900494 H          1 MOL1         0.0830
       3    H2      21.136678   19.261339   23.545931 H          1 MOL1         0.0830
       4    C2      20.414741   17.785521   22.082864 C.3        1 MOL1        -0.1689
       5    H3      20.809503   17.765563   21.057685 H          1 MOL1         0.0830
       6    H4      21.004919   17.077847   22.681101 H          1 MOL1         0.0830
       7    C3      18.919521   17.402450   22.085991 C.3        1 MOL1        -0.1765
       8    H5      18.695309   16.806766   22.980704 H          1 MOL1         0.0830
       9    H6      18.641228   16.804357   21.208014 H          1 MOL1         0.0830
      10    C4      18.142334   18.723658   22.159352 C.3        1 MOL1         0.1214
      11    H7      17.163270   18.590909   22.641837 H          1 MOL1         0.0787
      12    C5      19.054351   19.647793   22.977371 C.3        1 MOL1        -0.1765
      13    H8      18.875372   20.708953   22.758486 H          1 MOL1         0.0830
      14    H9      18.856825   19.489093   24.045743 H          1 MOL1         0.0830
      15    O1      17.994205   19.252481   20.849691 O.3        1 MOL1        -0.5512
      16    H10     18.906641   19.335102   20.503574 H          1 MOL1         0.3776
@<TRIPOS>BOND
    1     1     2    1
    2     1     3    1
    3     1     4    1
    4     4     5    1
    5     4     6    1
    6     4     7    1
    7     7     8    1
    8     7     9    1
    9     7    10    1
   10    10    11    1
   11     1    12    1
   12    10    12    1
   13    12    13    1
   14    12    14    1
   15    10    15    1
   16    15    16    1
@<TRIPOS>SUBSTRUCTURE
       1 MOL1            1 RESIDUE      1      MOL     
@<SCITEGIC>MOL_PROPERTY
VConf Rank
SciTegic.value.IntegerValue
534

@<SCITEGIC>MOL_PROPERTY
Conf_Id
SciTegic.value.IntegerValue
20

@<SCITEGIC>MOL_PROPERTY
Delta U+W
SciTegic.value.DoubleValue
-0.483

@<SCITEGIC>MOL_PROPERTY
U+W
SciTegic.value.DoubleValue
2.527

@<SCITEGIC>MOL_PROPERTY
Grad RMS
SciTegic.value.DoubleValue
0.000000

@<SCITEGIC>MOL_PROPERTY
U
SciTegic.value.DoubleValue
4.508

@<SCITEGIC>MOL_PROPERTY
W
SciTegic.value.DoubleValue
-1.981

@<SCITEGIC>MOL_PROPERTY
W(PB)
SciTegic.value.DoubleValue
-3.712

@<SCITEGIC>MOL_PROPERTY
W(SA)
SciTegic.value.DoubleValue
1.732

@<SCITEGIC>MOL_PROPERTY
Valence
SciTegic.value.DoubleValue
14.705

@<SCITEGIC>MOL_PROPERTY
Coulomb
SciTegic.value.DoubleValue
-10.687

@<SCITEGIC>MOL_PROPERTY
VdW
SciTegic.value.DoubleValue
0.490

@<SCITEGIC>MOL_PROPERTY
VdW6
SciTegic.value.DoubleValue
-3.745

@<SCITEGIC>MOL_PROPERTY
VdW12
SciTegic.value.DoubleValue
4.235

@<SCITEGIC>MOL_PROPERTY
Bond
SciTegic.value.DoubleValue
0.068

@<SCITEGIC>MOL_PROPERTY
Angle
SciTegic.value.DoubleValue
3.901

@<SCITEGIC>MOL_PROPERTY
Pdih
SciTegic.value.DoubleValue
10.737

@<SCITEGIC>MOL_PROPERTY
Idih
SciTegic.value.DoubleValue
0.000

@<SCITEGIC>MOL_PROPERTY
Tether
SciTegic.value.DoubleValue
0.000

@<TRIPOS>MOLECULE
guest-4_confgen4.mol2 : confsearch ligand conformer 535
          16          16           1
SMALL
USER_CHARGES
 
@<TRIPOS>ATOM
       1    C1      20.420447   17.964534   21.515685 C.3        1 MOL1        -0.1689
       2    H1      19.911897   17.523828   20.646875 H          1 MOL1         0.0830
       3    H2      21.502611   17.825898   21.387837 H          1 MOL1         0.0830
       4    C2      19.894414   17.315655   22.803308 C.3        1 MOL1        -0.1689
       5    H3      19.731686   16.235118   22.690523 H          1 MOL1         0.0830
       6    H4      20.616161   17.471321   23.617233 H          1 MOL1         0.0830
       7    C3      18.591037   18.075554   23.110420 C.3        1 MOL1        -0.1765
       8    H5      18.386142   18.101152   24.188478 H          1 MOL1         0.0830
       9    H6      17.750000   17.567586   22.619085 H          1 MOL1         0.0830
      10    C4      18.769157   19.495595   22.532979 C.3        1 MOL1         0.1214
      11    H7      18.926680   20.216470   23.348481 H          1 MOL1         0.0787
      12    C5      20.029220   19.448294   21.644251 C.3        1 MOL1        -0.1765
      13    H8      19.863604   19.909333   20.661380 H          1 MOL1         0.0830
      14    H9      20.837852   20.000933   22.140018 H          1 MOL1         0.0830
      15    O1      17.633504   19.855347   21.755315 O.3        1 MOL1        -0.5512
      16    H10     16.865154   19.858916   22.364542 H          1 MOL1         0.3776
@<TRIPOS>BOND
    1     1     2    1
    2     1     3    1
    3     1     4    1
    4     4     5    1
    5     4     6    1
    6     4     7    1
    7     7     8    1
    8     7     9    1
    9     7    10    1
   10    10    11    1
   11     1    12    1
   12    10    12    1
   13    12    13    1
   14    12    14    1
   15    10    15    1
   16    15    16    1
@<TRIPOS>SUBSTRUCTURE
       1 MOL1            1 RESIDUE      1      MOL     
@<SCITEGIC>MOL_PROPERTY
VConf Rank
SciTegic.value.IntegerValue
535

@<SCITEGIC>MOL_PROPERTY
Conf_Id
SciTegic.value.IntegerValue
59

@<SCITEGIC>MOL_PROPERTY
Delta U+W
SciTegic.value.DoubleValue
0.000

@<SCITEGIC>MOL_PROPERTY
U+W
SciTegic.value.DoubleValue
3.010

@<SCITEGIC>MOL_PROPERTY
Grad RMS
SciTegic.value.DoubleValue
0.000000

@<SCITEGIC>MOL_PROPERTY
U
SciTegic.value.DoubleValue
5.843

@<SCITEGIC>MOL_PROPERTY
W
SciTegic.value.DoubleValue
-2.833

@<SCITEGIC>MOL_PROPERTY
W(PB)
SciTegic.value.DoubleValue
-4.568

@<SCITEGIC>MOL_PROPERTY
W(SA)
SciTegic.value.DoubleValue
1.735

@<SCITEGIC>MOL_PROPERTY
Valence
SciTegic.value.DoubleValue
13.789

@<SCITEGIC>MOL_PROPERTY
Coulomb
SciTegic.value.DoubleValue
-8.574

@<SCITEGIC>MOL_PROPERTY
VdW
SciTegic.value.DoubleValue
0.628

@<SCITEGIC>MOL_PROPERTY
VdW6
SciTegic.value.DoubleValue
-3.284

@<SCITEGIC>MOL_PROPERTY
VdW12
SciTegic.value.DoubleValue
3.912

@<SCITEGIC>MOL_PROPERTY
Bond
SciTegic.value.DoubleValue
0.054

@<SCITEGIC>MOL_PROPERTY
Angle
SciTegic.value.DoubleValue
4.034

@<SCITEGIC>MOL_PROPERTY
Pdih
SciTegic.value.DoubleValue
9.702

@<SCITEGIC>MOL_PROPERTY
Idih
SciTegic.value.DoubleValue
0.000

@<SCITEGIC>MOL_PROPERTY
Tether
SciTegic.value.DoubleValue
0.000

@<TRIPOS>MOLECULE
guest-4_confgen4.mol2 : confsearch ligand conformer 536
          16          16           1
SMALL
USER_CHARGES
 
@<TRIPOS>ATOM
       1    C1      20.693082   18.838220   22.977453 C.3        1 MOL1        -0.1689
       2    H1      21.420860   19.645299   23.137832 H          1 MOL1         0.0830
       3    H2      20.962859   17.997334   23.631481 H          1 MOL1         0.0830
       4    C2      20.657158   18.365881   21.517544 C.3        1 MOL1        -0.1689
       5    H3      20.746239   19.232563   20.847764 H          1 MOL1         0.0830
       6    H4      21.469822   17.664933   21.283254 H          1 MOL1         0.0830
       7    C3      19.265308   17.728071   21.353141 C.3        1 MOL1        -0.1765
       8    H5      19.318387   16.659457   21.598767 H          1 MOL1         0.0830
       9    H6      18.899749   17.815635   20.321289 H          1 MOL1         0.0830
      10    C4      18.337009   18.431235   22.364882 C.3        1 MOL1         0.1214
      11    H7      17.812883   17.673062   22.964870 H          1 MOL1         0.0787
      12    C5      19.249102   19.284400   23.271486 C.3        1 MOL1        -0.1765
      13    H8      19.140894   20.349650   23.025893 H          1 MOL1         0.0830
      14    H9      18.997700   19.155766   24.332192 H          1 MOL1         0.0830
      15    O1      17.407323   19.263406   21.681455 O.3        1 MOL1        -0.5512
      16    H10     16.854241   19.691001   22.369055 H          1 MOL1         0.3776
@<TRIPOS>BOND
    1     1     2    1
    2     1     3    1
    3     1     4    1
    4     4     5    1
    5     4     6    1
    6     4     7    1
    7     7     8    1
    8     7     9    1
    9     7    10    1
   10    10    11    1
   11     1    12    1
   12    10    12    1
   13    12    13    1
   14    12    14    1
   15    10    15    1
   16    15    16    1
@<TRIPOS>SUBSTRUCTURE
       1 MOL1            1 RESIDUE      1      MOL     
@<SCITEGIC>MOL_PROPERTY
VConf Rank
SciTegic.value.IntegerValue
536

@<SCITEGIC>MOL_PROPERTY
Conf_Id
SciTegic.value.IntegerValue
33

@<SCITEGIC>MOL_PROPERTY
Delta U+W
SciTegic.value.DoubleValue
0.015

@<SCITEGIC>MOL_PROPERTY
U+W
SciTegic.value.DoubleValue
3.025

@<SCITEGIC>MOL_PROPERTY
Grad RMS
SciTegic.value.DoubleValue
0.000000

@<SCITEGIC>MOL_PROPERTY
U
SciTegic.value.DoubleValue
5.843

@<SCITEGIC>MOL_PROPERTY
W
SciTegic.value.DoubleValue
-2.819

@<SCITEGIC>MOL_PROPERTY
W(PB)
SciTegic.value.DoubleValue
-4.568

@<SCITEGIC>MOL_PROPERTY
W(SA)
SciTegic.value.DoubleValue
1.750

@<SCITEGIC>MOL_PROPERTY
Valence
SciTegic.value.DoubleValue
13.789

@<SCITEGIC>MOL_PROPERTY
Coulomb
SciTegic.value.DoubleValue
-8.574

@<SCITEGIC>MOL_PROPERTY
VdW
SciTegic.value.DoubleValue
0.628

@<SCITEGIC>MOL_PROPERTY
VdW6
SciTegic.value.DoubleValue
-3.284

@<SCITEGIC>MOL_PROPERTY
VdW12
SciTegic.value.DoubleValue
3.913

@<SCITEGIC>MOL_PROPERTY
Bond
SciTegic.value.DoubleValue
0.054

@<SCITEGIC>MOL_PROPERTY
Angle
SciTegic.value.DoubleValue
4.033

@<SCITEGIC>MOL_PROPERTY
Pdih
SciTegic.value.DoubleValue
9.702

@<SCITEGIC>MOL_PROPERTY
Idih
SciTegic.value.DoubleValue
0.000

@<SCITEGIC>MOL_PROPERTY
Tether
SciTegic.value.DoubleValue
0.000

@<TRIPOS>MOLECULE
guest-4_confgen4.mol2 : confsearch ligand conformer 537
          16          16           1
SMALL
USER_CHARGES
 
@<TRIPOS>ATOM
       1    C1      19.233768   18.749062   20.937208 C.3        1 MOL1        -0.1689
       2    H1      19.810854   18.028769   20.341073 H          1 MOL1         0.0830
       3    H2      18.672564   19.385447   20.239309 H          1 MOL1         0.0830
       4    C2      20.186952   19.580759   21.823064 C.3        1 MOL1        -0.1689
       5    H3      21.225424   19.263716   21.654882 H          1 MOL1         0.0830
       6    H4      20.123611   20.652355   21.589248 H          1 MOL1         0.0830
       7    C3      19.776028   19.306786   23.285431 C.3        1 MOL1        -0.1765
       8    H5      19.123292   20.115100   23.640654 H          1 MOL1         0.0830
       9    H6      20.642144   19.256450   23.958718 H          1 MOL1         0.0830
      10    C4      18.979068   17.995523   23.264531 C.3        1 MOL1         0.1214
      11    H7      18.252811   17.950260   24.088840 H          1 MOL1         0.0787
      12    C5      18.281860   18.004706   21.897500 C.3        1 MOL1        -0.1765
      13    H8      18.043373   16.992222   21.545355 H          1 MOL1         0.0830
      14    H9      17.338335   18.559871   21.982201 H          1 MOL1         0.0830
      15    O1      19.880275   16.899501   23.322560 O.3        1 MOL1        -0.5512
      16    H10     20.481395   17.023235   22.559338 H          1 MOL1         0.3776
@<TRIPOS>BOND
    1     1     2    1
    2     1     3    1
    3     1     4    1
    4     4     5    1
    5     4     6    1
    6     4     7    1
    7     7     8    1
    8     7     9    1
    9     7    10    1
   10    10    11    1
   11     1    12    1
   12    10    12    1
   13    12    13    1
   14    12    14    1
   15    10    15    1
   16    15    16    1
@<TRIPOS>SUBSTRUCTURE
       1 MOL1            1 RESIDUE      1      MOL     
@<SCITEGIC>MOL_PROPERTY
VConf Rank
SciTegic.value.IntegerValue
537

@<SCITEGIC>MOL_PROPERTY
Conf_Id
SciTegic.value.IntegerValue
20

@<SCITEGIC>MOL_PROPERTY
Delta U+W
SciTegic.value.DoubleValue
-0.483

@<SCITEGIC>MOL_PROPERTY
U+W
SciTegic.value.DoubleValue
2.527

@<SCITEGIC>MOL_PROPERTY
Grad RMS
SciTegic.value.DoubleValue
0.000000

@<SCITEGIC>MOL_PROPERTY
U
SciTegic.value.DoubleValue
4.508

@<SCITEGIC>MOL_PROPERTY
W
SciTegic.value.DoubleValue
-1.981

@<SCITEGIC>MOL_PROPERTY
W(PB)
SciTegic.value.DoubleValue
-3.712

@<SCITEGIC>MOL_PROPERTY
W(SA)
SciTegic.value.DoubleValue
1.732

@<SCITEGIC>MOL_PROPERTY
Valence
SciTegic.value.DoubleValue
14.705

@<SCITEGIC>MOL_PROPERTY
Coulomb
SciTegic.value.DoubleValue
-10.687

@<SCITEGIC>MOL_PROPERTY
VdW
SciTegic.value.DoubleValue
0.490

@<SCITEGIC>MOL_PROPERTY
VdW6
SciTegic.value.DoubleValue
-3.745

@<SCITEGIC>MOL_PROPERTY
VdW12
SciTegic.value.DoubleValue
4.235

@<SCITEGIC>MOL_PROPERTY
Bond
SciTegic.value.DoubleValue
0.068

@<SCITEGIC>MOL_PROPERTY
Angle
SciTegic.value.DoubleValue
3.901

@<SCITEGIC>MOL_PROPERTY
Pdih
SciTegic.value.DoubleValue
10.737

@<SCITEGIC>MOL_PROPERTY
Idih
SciTegic.value.DoubleValue
0.000

@<SCITEGIC>MOL_PROPERTY
Tether
SciTegic.value.DoubleValue
0.000

@<TRIPOS>MOLECULE
guest-4_confgen4.mol2 : confsearch ligand conformer 538
          16          16           1
SMALL
USER_CHARGES
 
@<TRIPOS>ATOM
       1    C1      17.955626   18.427677   22.675823 C.3        1 MOL1        -0.1689
       2    H1      17.742358   19.307359   23.299003 H          1 MOL1         0.0830
       3    H2      17.021741   17.864425   22.544487 H          1 MOL1         0.0830
       4    C2      19.059493   17.587512   23.332580 C.3        1 MOL1        -0.1689
       5    H3      18.950664   17.534453   24.424413 H          1 MOL1         0.0830
       6    H4      19.031188   16.563696   22.934302 H          1 MOL1         0.0830
       7    C3      20.369284   18.275958   22.907085 C.3        1 MOL1        -0.1765
       8    H5      21.198582   17.559224   22.848758 H          1 MOL1         0.0830
       9    H6      20.635657   19.040481   23.649604 H          1 MOL1         0.0830
      10    C4      20.090485   18.933452   21.539002 C.3        1 MOL1         0.1214
      11    H7      20.583764   18.361953   20.739263 H          1 MOL1         0.0787
      12    C5      18.562289   18.880524   21.334920 C.3        1 MOL1        -0.1765
      13    H8      18.151367   19.845991   21.010824 H          1 MOL1         0.0830
      14    H9      18.330416   18.141258   20.557231 H          1 MOL1         0.0830
      15    O1      20.538484   20.283701   21.542833 O.3        1 MOL1        -0.5512
      16    H10     21.508168   20.257870   21.686283 H          1 MOL1         0.3776
@<TRIPOS>BOND
    1     1     2    1
    2     1     3    1
    3     1     4    1
    4     4     5    1
    5     4     6    1
    6     4     7    1
    7     7     8    1
    8     7     9    1
    9     7    10    1
   10    10    11    1
   11     1    12    1
   12    10    12    1
   13    12    13    1
   14    12    14    1
   15    10    15    1
   16    15    16    1
@<TRIPOS>SUBSTRUCTURE
       1 MOL1            1 RESIDUE      1      MOL     
@<SCITEGIC>MOL_PROPERTY
VConf Rank
SciTegic.value.IntegerValue
538

@<SCITEGIC>MOL_PROPERTY
Conf_Id
SciTegic.value.IntegerValue
59

@<SCITEGIC>MOL_PROPERTY
Delta U+W
SciTegic.value.DoubleValue
0.000

@<SCITEGIC>MOL_PROPERTY
U+W
SciTegic.value.DoubleValue
3.010

@<SCITEGIC>MOL_PROPERTY
Grad RMS
SciTegic.value.DoubleValue
0.000000

@<SCITEGIC>MOL_PROPERTY
U
SciTegic.value.DoubleValue
5.843

@<SCITEGIC>MOL_PROPERTY
W
SciTegic.value.DoubleValue
-2.833

@<SCITEGIC>MOL_PROPERTY
W(PB)
SciTegic.value.DoubleValue
-4.568

@<SCITEGIC>MOL_PROPERTY
W(SA)
SciTegic.value.DoubleValue
1.735

@<SCITEGIC>MOL_PROPERTY
Valence
SciTegic.value.DoubleValue
13.789

@<SCITEGIC>MOL_PROPERTY
Coulomb
SciTegic.value.DoubleValue
-8.574

@<SCITEGIC>MOL_PROPERTY
VdW
SciTegic.value.DoubleValue
0.628

@<SCITEGIC>MOL_PROPERTY
VdW6
SciTegic.value.DoubleValue
-3.284

@<SCITEGIC>MOL_PROPERTY
VdW12
SciTegic.value.DoubleValue
3.912

@<SCITEGIC>MOL_PROPERTY
Bond
SciTegic.value.DoubleValue
0.054

@<SCITEGIC>MOL_PROPERTY
Angle
SciTegic.value.DoubleValue
4.034

@<SCITEGIC>MOL_PROPERTY
Pdih
SciTegic.value.DoubleValue
9.702

@<SCITEGIC>MOL_PROPERTY
Idih
SciTegic.value.DoubleValue
0.000

@<SCITEGIC>MOL_PROPERTY
Tether
SciTegic.value.DoubleValue
0.000

@<TRIPOS>MOLECULE
guest-4_confgen4.mol2 : confsearch ligand conformer 539
          16          16           1
SMALL
USER_CHARGES
 
@<TRIPOS>ATOM
       1    C1      20.363878   18.687674   21.186317 C.3        1 MOL1        -0.1689
       2    H1      20.356572   18.585824   20.092547 H          1 MOL1         0.0830
       3    H2      21.351238   19.062628   21.489880 H          1 MOL1         0.0830
       4    C2      20.074860   17.359123   21.898461 C.3        1 MOL1        -0.1689
       5    H3      19.292568   16.812023   21.354054 H          1 MOL1         0.0830
       6    H4      20.962995   16.715959   21.963259 H          1 MOL1         0.0830
       7    C3      19.545943   17.772038   23.284399 C.3        1 MOL1        -0.1765
       8    H5      20.384192   17.858233   23.987957 H          1 MOL1         0.0830
       9    H6      18.846333   17.028095   23.688273 H          1 MOL1         0.0830
      10    C4      18.890928   19.157826   23.110203 C.3        1 MOL1         0.1214
      11    H7      19.296887   19.848815   23.863363 H          1 MOL1         0.0787
      12    C5      19.266228   19.640932   21.693342 C.3        1 MOL1        -0.1765
      13    H8      18.395133   19.579122   21.026893 H          1 MOL1         0.0830
      14    H9      19.611811   20.682740   21.700688 H          1 MOL1         0.0830
      15    O1      17.477707   19.051510   23.234304 O.3        1 MOL1        -0.5512
      16    H10     17.115343   19.953369   23.104418 H          1 MOL1         0.3776
@<TRIPOS>BOND
    1     1     2    1
    2     1     3    1
    3     1     4    1
    4     4     5    1
    5     4     6    1
    6     4     7    1
    7     7     8    1
    8     7     9    1
    9     7    10    1
   10    10    11    1
   11     1    12    1
   12    10    12    1
   13    12    13    1
   14    12    14    1
   15    10    15    1
   16    15    16    1
@<TRIPOS>SUBSTRUCTURE
       1 MOL1            1 RESIDUE      1      MOL     
@<SCITEGIC>MOL_PROPERTY
VConf Rank
SciTegic.value.IntegerValue
539

@<SCITEGIC>MOL_PROPERTY
Conf_Id
SciTegic.value.IntegerValue
33

@<SCITEGIC>MOL_PROPERTY
Delta U+W
SciTegic.value.DoubleValue
0.015

@<SCITEGIC>MOL_PROPERTY
U+W
SciTegic.value.DoubleValue
3.025

@<SCITEGIC>MOL_PROPERTY
Grad RMS
SciTegic.value.DoubleValue
0.000000

@<SCITEGIC>MOL_PROPERTY
U
SciTegic.value.DoubleValue
5.843

@<SCITEGIC>MOL_PROPERTY
W
SciTegic.value.DoubleValue
-2.819

@<SCITEGIC>MOL_PROPERTY
W(PB)
SciTegic.value.DoubleValue
-4.568

@<SCITEGIC>MOL_PROPERTY
W(SA)
SciTegic.value.DoubleValue
1.750

@<SCITEGIC>MOL_PROPERTY
Valence
SciTegic.value.DoubleValue
13.789

@<SCITEGIC>MOL_PROPERTY
Coulomb
SciTegic.value.DoubleValue
-8.574

@<SCITEGIC>MOL_PROPERTY
VdW
SciTegic.value.DoubleValue
0.628

@<SCITEGIC>MOL_PROPERTY
VdW6
SciTegic.value.DoubleValue
-3.284

@<SCITEGIC>MOL_PROPERTY
VdW12
SciTegic.value.DoubleValue
3.913

@<SCITEGIC>MOL_PROPERTY
Bond
SciTegic.value.DoubleValue
0.054

@<SCITEGIC>MOL_PROPERTY
Angle
SciTegic.value.DoubleValue
4.033

@<SCITEGIC>MOL_PROPERTY
Pdih
SciTegic.value.DoubleValue
9.702

@<SCITEGIC>MOL_PROPERTY
Idih
SciTegic.value.DoubleValue
0.000

@<SCITEGIC>MOL_PROPERTY
Tether
SciTegic.value.DoubleValue
0.000

@<TRIPOS>MOLECULE
guest-4_confgen4.mol2 : confsearch ligand conformer 540
          16          16           1
SMALL
USER_CHARGES
 
@<TRIPOS>ATOM
       1    C1      19.735258   18.409265   23.529771 C.3        1 MOL1        -0.1689
       2    H1      20.790940   18.626923   23.742814 H          1 MOL1         0.0830
       3    H2      19.263593   18.093686   24.470483 H          1 MOL1         0.0830
       4    C2      19.633184   17.312398   22.447419 C.3        1 MOL1        -0.1689
       5    H3      20.639443   16.998459   22.137401 H          1 MOL1         0.0830
       6    H4      19.107209   16.423410   22.821650 H          1 MOL1         0.0830
       7    C3      18.880345   17.941879   21.256023 C.3        1 MOL1        -0.1765
       8    H5      17.819716   17.661726   21.302941 H          1 MOL1         0.0830
       9    H6      19.273324   17.601617   20.288658 H          1 MOL1         0.0830
      10    C4      19.002532   19.461567   21.430985 C.3        1 MOL1         0.1214
      11    H7      18.153955   19.990968   20.974219 H          1 MOL1         0.0787
      12    C5      19.039182   19.659986   22.952249 C.3        1 MOL1        -0.1765
      13    H8      19.549086   20.589582   23.238349 H          1 MOL1         0.0830
      14    H9      18.009495   19.713940   23.329681 H          1 MOL1         0.0830
      15    O1      20.232694   19.899250   20.872469 O.3        1 MOL1        -0.5512
      16    H10     20.921797   19.379107   21.334802 H          1 MOL1         0.3776
@<TRIPOS>BOND
    1     1     2    1
    2     1     3    1
    3     1     4    1
    4     4     5    1
    5     4     6    1
    6     4     7    1
    7     7     8    1
    8     7     9    1
    9     7    10    1
   10    10    11    1
   11     1    12    1
   12    10    12    1
   13    12    13    1
   14    12    14    1
   15    10    15    1
   16    15    16    1
@<TRIPOS>SUBSTRUCTURE
       1 MOL1            1 RESIDUE      1      MOL     
@<SCITEGIC>MOL_PROPERTY
VConf Rank
SciTegic.value.IntegerValue
540

@<SCITEGIC>MOL_PROPERTY
Conf_Id
SciTegic.value.IntegerValue
20

@<SCITEGIC>MOL_PROPERTY
Delta U+W
SciTegic.value.DoubleValue
-0.483

@<SCITEGIC>MOL_PROPERTY
U+W
SciTegic.value.DoubleValue
2.527

@<SCITEGIC>MOL_PROPERTY
Grad RMS
SciTegic.value.DoubleValue
0.000000

@<SCITEGIC>MOL_PROPERTY
U
SciTegic.value.DoubleValue
4.508

@<SCITEGIC>MOL_PROPERTY
W
SciTegic.value.DoubleValue
-1.981

@<SCITEGIC>MOL_PROPERTY
W(PB)
SciTegic.value.DoubleValue
-3.712

@<SCITEGIC>MOL_PROPERTY
W(SA)
SciTegic.value.DoubleValue
1.732

@<SCITEGIC>MOL_PROPERTY
Valence
SciTegic.value.DoubleValue
14.705

@<SCITEGIC>MOL_PROPERTY
Coulomb
SciTegic.value.DoubleValue
-10.687

@<SCITEGIC>MOL_PROPERTY
VdW
SciTegic.value.DoubleValue
0.490

@<SCITEGIC>MOL_PROPERTY
VdW6
SciTegic.value.DoubleValue
-3.745

@<SCITEGIC>MOL_PROPERTY
VdW12
SciTegic.value.DoubleValue
4.235

@<SCITEGIC>MOL_PROPERTY
Bond
SciTegic.value.DoubleValue
0.068

@<SCITEGIC>MOL_PROPERTY
Angle
SciTegic.value.DoubleValue
3.901

@<SCITEGIC>MOL_PROPERTY
Pdih
SciTegic.value.DoubleValue
10.737

@<SCITEGIC>MOL_PROPERTY
Idih
SciTegic.value.DoubleValue
0.000

@<SCITEGIC>MOL_PROPERTY
Tether
SciTegic.value.DoubleValue
0.000

@<TRIPOS>MOLECULE
guest-4_confgen4.mol2 : confsearch ligand conformer 541
          16          16           1
SMALL
USER_CHARGES
 
@<TRIPOS>ATOM
       1    C1      20.474209   18.207055   21.449528 C.3        1 MOL1        -0.1689
       2    H1      21.353263   18.667885   21.921309 H          1 MOL1         0.0830
       3    H2      20.812275   17.641152   20.570830 H          1 MOL1         0.0830
       4    C2      19.454142   19.295660   21.088791 C.3        1 MOL1        -0.1689
       5    H3      19.932943   20.205058   20.700844 H          1 MOL1         0.0830
       6    H4      18.764536   18.916483   20.321788 H          1 MOL1         0.0830
       7    C3      18.686736   19.550846   22.398953 C.3        1 MOL1        -0.1765
       8    H5      17.658443   19.881469   22.203636 H          1 MOL1         0.0830
       9    H6      19.193169   20.342106   22.968355 H          1 MOL1         0.0830
      10    C4      18.716051   18.223517   23.185730 C.3        1 MOL1         0.1214
      11    H7      17.726781   17.744205   23.152203 H          1 MOL1         0.0787
      12    C5      19.744481   17.319736   22.474853 C.3        1 MOL1        -0.1765
      13    H8      20.446957   16.853921   23.178817 H          1 MOL1         0.0830
      14    H9      19.212332   16.514197   21.952355 H          1 MOL1         0.0830
      15    O1      19.116287   18.458673   24.530498 O.3        1 MOL1        -0.5512
      16    H10     18.436961   19.043570   24.927919 H          1 MOL1         0.3776
@<TRIPOS>BOND
    1     1     2    1
    2     1     3    1
    3     1     4    1
    4     4     5    1
    5     4     6    1
    6     4     7    1
    7     7     8    1
    8     7     9    1
    9     7    10    1
   10    10    11    1
   11     1    12    1
   12    10    12    1
   13    12    13    1
   14    12    14    1
   15    10    15    1
   16    15    16    1
@<TRIPOS>SUBSTRUCTURE
       1 MOL1            1 RESIDUE      1      MOL     
@<SCITEGIC>MOL_PROPERTY
VConf Rank
SciTegic.value.IntegerValue
541

@<SCITEGIC>MOL_PROPERTY
Conf_Id
SciTegic.value.IntegerValue
59

@<SCITEGIC>MOL_PROPERTY
Delta U+W
SciTegic.value.DoubleValue
0.000

@<SCITEGIC>MOL_PROPERTY
U+W
SciTegic.value.DoubleValue
3.010

@<SCITEGIC>MOL_PROPERTY
Grad RMS
SciTegic.value.DoubleValue
0.000000

@<SCITEGIC>MOL_PROPERTY
U
SciTegic.value.DoubleValue
5.843

@<SCITEGIC>MOL_PROPERTY
W
SciTegic.value.DoubleValue
-2.833

@<SCITEGIC>MOL_PROPERTY
W(PB)
SciTegic.value.DoubleValue
-4.568

@<SCITEGIC>MOL_PROPERTY
W(SA)
SciTegic.value.DoubleValue
1.735

@<SCITEGIC>MOL_PROPERTY
Valence
SciTegic.value.DoubleValue
13.789

@<SCITEGIC>MOL_PROPERTY
Coulomb
SciTegic.value.DoubleValue
-8.574

@<SCITEGIC>MOL_PROPERTY
VdW
SciTegic.value.DoubleValue
0.628

@<SCITEGIC>MOL_PROPERTY
VdW6
SciTegic.value.DoubleValue
-3.284

@<SCITEGIC>MOL_PROPERTY
VdW12
SciTegic.value.DoubleValue
3.912

@<SCITEGIC>MOL_PROPERTY
Bond
SciTegic.value.DoubleValue
0.054

@<SCITEGIC>MOL_PROPERTY
Angle
SciTegic.value.DoubleValue
4.034

@<SCITEGIC>MOL_PROPERTY
Pdih
SciTegic.value.DoubleValue
9.702

@<SCITEGIC>MOL_PROPERTY
Idih
SciTegic.value.DoubleValue
0.000

@<SCITEGIC>MOL_PROPERTY
Tether
SciTegic.value.DoubleValue
0.000

@<TRIPOS>MOLECULE
guest-4_confgen4.mol2 : confsearch ligand conformer 542
          16          16           1
SMALL
USER_CHARGES
 
@<TRIPOS>ATOM
       1    C1      19.603767   17.472567   21.432939 C.3        1 MOL1        -0.1689
       2    H1      19.054661   16.564362   21.149380 H          1 MOL1         0.0830
       3    H2      20.475391   17.567975   20.770526 H          1 MOL1         0.0830
       4    C2      20.067855   17.441640   22.895606 C.3        1 MOL1        -0.1689
       5    H3      19.281468   16.998174   23.522193 H          1 MOL1         0.0830
       6    H4      20.987340   16.856269   23.031733 H          1 MOL1         0.0830
       7    C3      20.253189   18.923118   23.272372 C.3        1 MOL1        -0.1765
       8    H5      21.282586   19.233592   23.050941 H          1 MOL1         0.0830
       9    H6      20.076146   19.093302   24.342751 H          1 MOL1         0.0830
      10    C4      19.282816   19.727786   22.383169 C.3        1 MOL1         0.1214
      11    H7      19.834322   20.537944   21.884164 H          1 MOL1         0.0787
      12    C5      18.733139   18.738583   21.333851 C.3        1 MOL1        -0.1765
      13    H8      17.690118   18.481056   21.563131 H          1 MOL1         0.0830
      14    H9      18.760486   19.166047   20.323220 H          1 MOL1         0.0830
      15    O1      18.218593   20.252297   23.168163 O.3        1 MOL1        -0.5512
      16    H10     17.630738   20.741201   22.554218 H          1 MOL1         0.3776
@<TRIPOS>BOND
    1     1     2    1
    2     1     3    1
    3     1     4    1
    4     4     5    1
    5     4     6    1
    6     4     7    1
    7     7     8    1
    8     7     9    1
    9     7    10    1
   10    10    11    1
   11     1    12    1
   12    10    12    1
   13    12    13    1
   14    12    14    1
   15    10    15    1
   16    15    16    1
@<TRIPOS>SUBSTRUCTURE
       1 MOL1            1 RESIDUE      1      MOL     
@<SCITEGIC>MOL_PROPERTY
VConf Rank
SciTegic.value.IntegerValue
542

@<SCITEGIC>MOL_PROPERTY
Conf_Id
SciTegic.value.IntegerValue
33

@<SCITEGIC>MOL_PROPERTY
Delta U+W
SciTegic.value.DoubleValue
0.015

@<SCITEGIC>MOL_PROPERTY
U+W
SciTegic.value.DoubleValue
3.025

@<SCITEGIC>MOL_PROPERTY
Grad RMS
SciTegic.value.DoubleValue
0.000000

@<SCITEGIC>MOL_PROPERTY
U
SciTegic.value.DoubleValue
5.843

@<SCITEGIC>MOL_PROPERTY
W
SciTegic.value.DoubleValue
-2.819

@<SCITEGIC>MOL_PROPERTY
W(PB)
SciTegic.value.DoubleValue
-4.568

@<SCITEGIC>MOL_PROPERTY
W(SA)
SciTegic.value.DoubleValue
1.750

@<SCITEGIC>MOL_PROPERTY
Valence
SciTegic.value.DoubleValue
13.789

@<SCITEGIC>MOL_PROPERTY
Coulomb
SciTegic.value.DoubleValue
-8.574

@<SCITEGIC>MOL_PROPERTY
VdW
SciTegic.value.DoubleValue
0.628

@<SCITEGIC>MOL_PROPERTY
VdW6
SciTegic.value.DoubleValue
-3.284

@<SCITEGIC>MOL_PROPERTY
VdW12
SciTegic.value.DoubleValue
3.913

@<SCITEGIC>MOL_PROPERTY
Bond
SciTegic.value.DoubleValue
0.054

@<SCITEGIC>MOL_PROPERTY
Angle
SciTegic.value.DoubleValue
4.033

@<SCITEGIC>MOL_PROPERTY
Pdih
SciTegic.value.DoubleValue
9.702

@<SCITEGIC>MOL_PROPERTY
Idih
SciTegic.value.DoubleValue
0.000

@<SCITEGIC>MOL_PROPERTY
Tether
SciTegic.value.DoubleValue
0.000

@<TRIPOS>MOLECULE
guest-4_confgen4.mol2 : confsearch ligand conformer 543
          16          16           1
SMALL
USER_CHARGES
 
@<TRIPOS>ATOM
       1    C1      18.320051   17.816295   22.071414 C.3        1 MOL1        -0.1689
       2    H1      18.419064   16.818055   22.519678 H          1 MOL1         0.0830
       3    H2      17.330600   17.872059   21.597206 H          1 MOL1         0.0830
       4    C2      19.453815   18.047562   21.048616 C.3        1 MOL1        -0.1689
       5    H3      20.100909   17.160861   21.001099 H          1 MOL1         0.0830
       6    H4      19.057387   18.225319   20.039534 H          1 MOL1         0.0830
       7    C3      20.255721   19.266452   21.552294 C.3        1 MOL1        -0.1765
       8    H5      19.918999   20.169742   21.026645 H          1 MOL1         0.0830
       9    H6      21.333825   19.158151   21.373501 H          1 MOL1         0.0830
      10    C4      19.925076   19.405761   23.044360 C.3        1 MOL1         0.1214
      11    H7      20.019502   20.447190   23.384199 H          1 MOL1         0.0787
      12    C5      18.478688   18.904881   23.154083 C.3        1 MOL1        -0.1765
      13    H8      18.243444   18.529849   24.159078 H          1 MOL1         0.0830
      14    H9      17.795795   19.737588   22.939894 H          1 MOL1         0.0830
      15    O1      20.774717   18.549315   23.793638 O.3        1 MOL1        -0.5512
      16    H10     20.624162   17.654685   23.424676 H          1 MOL1         0.3776
@<TRIPOS>BOND
    1     1     2    1
    2     1     3    1
    3     1     4    1
    4     4     5    1
    5     4     6    1
    6     4     7    1
    7     7     8    1
    8     7     9    1
    9     7    10    1
   10    10    11    1
   11     1    12    1
   12    10    12    1
   13    12    13    1
   14    12    14    1
   15    10    15    1
   16    15    16    1
@<TRIPOS>SUBSTRUCTURE
       1 MOL1            1 RESIDUE      1      MOL     
@<SCITEGIC>MOL_PROPERTY
VConf Rank
SciTegic.value.IntegerValue
543

@<SCITEGIC>MOL_PROPERTY
Conf_Id
SciTegic.value.IntegerValue
20

@<SCITEGIC>MOL_PROPERTY
Delta U+W
SciTegic.value.DoubleValue
-0.483

@<SCITEGIC>MOL_PROPERTY
U+W
SciTegic.value.DoubleValue
2.527

@<SCITEGIC>MOL_PROPERTY
Grad RMS
SciTegic.value.DoubleValue
0.000000

@<SCITEGIC>MOL_PROPERTY
U
SciTegic.value.DoubleValue
4.508

@<SCITEGIC>MOL_PROPERTY
W
SciTegic.value.DoubleValue
-1.981

@<SCITEGIC>MOL_PROPERTY
W(PB)
SciTegic.value.DoubleValue
-3.712

@<SCITEGIC>MOL_PROPERTY
W(SA)
SciTegic.value.DoubleValue
1.732

@<SCITEGIC>MOL_PROPERTY
Valence
SciTegic.value.DoubleValue
14.705

@<SCITEGIC>MOL_PROPERTY
Coulomb
SciTegic.value.DoubleValue
-10.687

@<SCITEGIC>MOL_PROPERTY
VdW
SciTegic.value.DoubleValue
0.490

@<SCITEGIC>MOL_PROPERTY
VdW6
SciTegic.value.DoubleValue
-3.745

@<SCITEGIC>MOL_PROPERTY
VdW12
SciTegic.value.DoubleValue
4.235

@<SCITEGIC>MOL_PROPERTY
Bond
SciTegic.value.DoubleValue
0.068

@<SCITEGIC>MOL_PROPERTY
Angle
SciTegic.value.DoubleValue
3.901

@<SCITEGIC>MOL_PROPERTY
Pdih
SciTegic.value.DoubleValue
10.737

@<SCITEGIC>MOL_PROPERTY
Idih
SciTegic.value.DoubleValue
0.000

@<SCITEGIC>MOL_PROPERTY
Tether
SciTegic.value.DoubleValue
0.000

@<TRIPOS>MOLECULE
guest-4_confgen4.mol2 : confsearch ligand conformer 544
          16          16           1
SMALL
USER_CHARGES
 
@<TRIPOS>ATOM
       1    C1      18.200617   19.297241   21.843312 C.3        1 MOL1        -0.1689
       2    H1      18.094797   19.018412   20.785610 H          1 MOL1         0.0830
       3    H2      17.368423   19.963408   22.108488 H          1 MOL1         0.0830
       4    C2      19.570340   19.952308   22.067974 C.3        1 MOL1        -0.1689
       5    H3      19.855253   20.618936   21.242631 H          1 MOL1         0.0830
       6    H4      19.550381   20.542249   22.994902 H          1 MOL1         0.0830
       7    C3      20.540536   18.767212   22.225538 C.3        1 MOL1        -0.1765
       8    H5      21.390427   19.027483   22.869579 H          1 MOL1         0.0830
       9    H6      20.937116   18.488861   21.239622 H          1 MOL1         0.0830
      10    C4      19.715215   17.605235   22.817429 C.3        1 MOL1         0.1214
      11    H7      19.976090   17.459195   23.875793 H          1 MOL1         0.0787
      12    C5      18.234726   18.025513   22.710880 C.3        1 MOL1        -0.1765
      13    H8      17.605247   17.230953   22.288443 H          1 MOL1         0.0830
      14    H9      17.854393   18.254148   23.714949 H          1 MOL1         0.0830
      15    O1      19.941691   16.413650   22.073977 O.3        1 MOL1        -0.5512
      16    H10     20.894315   16.200730   22.167285 H          1 MOL1         0.3776
@<TRIPOS>BOND
    1     1     2    1
    2     1     3    1
    3     1     4    1
    4     4     5    1
    5     4     6    1
    6     4     7    1
    7     7     8    1
    8     7     9    1
    9     7    10    1
   10    10    11    1
   11     1    12    1
   12    10    12    1
   13    12    13    1
   14    12    14    1
   15    10    15    1
   16    15    16    1
@<TRIPOS>SUBSTRUCTURE
       1 MOL1            1 RESIDUE      1      MOL     
@<SCITEGIC>MOL_PROPERTY
VConf Rank
SciTegic.value.IntegerValue
544

@<SCITEGIC>MOL_PROPERTY
Conf_Id
SciTegic.value.IntegerValue
59

@<SCITEGIC>MOL_PROPERTY
Delta U+W
SciTegic.value.DoubleValue
0.000

@<SCITEGIC>MOL_PROPERTY
U+W
SciTegic.value.DoubleValue
3.010

@<SCITEGIC>MOL_PROPERTY
Grad RMS
SciTegic.value.DoubleValue
0.000000

@<SCITEGIC>MOL_PROPERTY
U
SciTegic.value.DoubleValue
5.843

@<SCITEGIC>MOL_PROPERTY
W
SciTegic.value.DoubleValue
-2.833

@<SCITEGIC>MOL_PROPERTY
W(PB)
SciTegic.value.DoubleValue
-4.568

@<SCITEGIC>MOL_PROPERTY
W(SA)
SciTegic.value.DoubleValue
1.735

@<SCITEGIC>MOL_PROPERTY
Valence
SciTegic.value.DoubleValue
13.789

@<SCITEGIC>MOL_PROPERTY
Coulomb
SciTegic.value.DoubleValue
-8.574

@<SCITEGIC>MOL_PROPERTY
VdW
SciTegic.value.DoubleValue
0.628

@<SCITEGIC>MOL_PROPERTY
VdW6
SciTegic.value.DoubleValue
-3.284

@<SCITEGIC>MOL_PROPERTY
VdW12
SciTegic.value.DoubleValue
3.912

@<SCITEGIC>MOL_PROPERTY
Bond
SciTegic.value.DoubleValue
0.054

@<SCITEGIC>MOL_PROPERTY
Angle
SciTegic.value.DoubleValue
4.034

@<SCITEGIC>MOL_PROPERTY
Pdih
SciTegic.value.DoubleValue
9.702

@<SCITEGIC>MOL_PROPERTY
Idih
SciTegic.value.DoubleValue
0.000

@<SCITEGIC>MOL_PROPERTY
Tether
SciTegic.value.DoubleValue
0.000

@<TRIPOS>MOLECULE
guest-4_confgen4.mol2 : confsearch ligand conformer 545
          16          16           1
SMALL
USER_CHARGES
 
@<TRIPOS>ATOM
       1    C1      18.090188   18.242789   22.028919 C.3        1 MOL1        -0.1689
       2    H1      17.307387   17.594895   22.446308 H          1 MOL1         0.0830
       3    H2      17.640113   18.860382   21.239214 H          1 MOL1         0.0830
       4    C2      19.264849   17.441469   21.451177 C.3        1 MOL1        -0.1689
       5    H3      19.482843   16.584850   22.104141 H          1 MOL1         0.0830
       6    H4      19.056972   17.060776   20.441969 H          1 MOL1         0.0830
       7    C3      20.450486   18.423672   21.476079 C.3        1 MOL1        -0.1765
       8    H5      20.487846   18.980139   20.530546 H          1 MOL1         0.0830
       9    H6      21.408032   17.898723   21.592501 H          1 MOL1         0.0830
      10    C4      20.179735   19.410746   22.630278 C.3        1 MOL1         0.1214
      11    H7      20.274103   20.440924   22.256986 H          1 MOL1         0.0787
      12    C5      18.732032   19.148221   23.096083 C.3        1 MOL1        -0.1765
      13    H8      18.731890   18.626590   24.062873 H          1 MOL1         0.0830
      14    H9      18.171464   20.084050   23.217880 H          1 MOL1         0.0830
      15    O1      21.089245   19.177202   23.698990 O.3        1 MOL1        -0.5512
      16    H10     20.865432   19.820484   24.404415 H          1 MOL1         0.3776
@<TRIPOS>BOND
    1     1     2    1
    2     1     3    1
    3     1     4    1
    4     4     5    1
    5     4     6    1
    6     4     7    1
    7     7     8    1
    8     7     9    1
    9     7    10    1
   10    10    11    1
   11     1    12    1
   12    10    12    1
   13    12    13    1
   14    12    14    1
   15    10    15    1
   16    15    16    1
@<TRIPOS>SUBSTRUCTURE
       1 MOL1            1 RESIDUE      1      MOL     
@<SCITEGIC>MOL_PROPERTY
VConf Rank
SciTegic.value.IntegerValue
545

@<SCITEGIC>MOL_PROPERTY
Conf_Id
SciTegic.value.IntegerValue
33

@<SCITEGIC>MOL_PROPERTY
Delta U+W
SciTegic.value.DoubleValue
0.015

@<SCITEGIC>MOL_PROPERTY
U+W
SciTegic.value.DoubleValue
3.025

@<SCITEGIC>MOL_PROPERTY
Grad RMS
SciTegic.value.DoubleValue
0.000000

@<SCITEGIC>MOL_PROPERTY
U
SciTegic.value.DoubleValue
5.843

@<SCITEGIC>MOL_PROPERTY
W
SciTegic.value.DoubleValue
-2.819

@<SCITEGIC>MOL_PROPERTY
W(PB)
SciTegic.value.DoubleValue
-4.568

@<SCITEGIC>MOL_PROPERTY
W(SA)
SciTegic.value.DoubleValue
1.750

@<SCITEGIC>MOL_PROPERTY
Valence
SciTegic.value.DoubleValue
13.789

@<SCITEGIC>MOL_PROPERTY
Coulomb
SciTegic.value.DoubleValue
-8.574

@<SCITEGIC>MOL_PROPERTY
VdW
SciTegic.value.DoubleValue
0.628

@<SCITEGIC>MOL_PROPERTY
VdW6
SciTegic.value.DoubleValue
-3.284

@<SCITEGIC>MOL_PROPERTY
VdW12
SciTegic.value.DoubleValue
3.913

@<SCITEGIC>MOL_PROPERTY
Bond
SciTegic.value.DoubleValue
0.054

@<SCITEGIC>MOL_PROPERTY
Angle
SciTegic.value.DoubleValue
4.033

@<SCITEGIC>MOL_PROPERTY
Pdih
SciTegic.value.DoubleValue
9.702

@<SCITEGIC>MOL_PROPERTY
Idih
SciTegic.value.DoubleValue
0.000

@<SCITEGIC>MOL_PROPERTY
Tether
SciTegic.value.DoubleValue
0.000

@<TRIPOS>MOLECULE
guest-4_confgen4.mol2 : confsearch ligand conformer 546
          16          16           1
SMALL
USER_CHARGES
 
@<TRIPOS>ATOM
       1    C1      19.008259   18.320766   23.508831 C.3        1 MOL1        -0.1689
       2    H1      18.290531   19.030007   23.943653 H          1 MOL1         0.0830
       3    H2      19.203205   17.541935   24.258774 H          1 MOL1         0.0830
       4    C2      20.303115   19.061939   23.110043 C.3        1 MOL1        -0.1689
       5    H3      20.212471   20.129677   23.352830 H          1 MOL1         0.0830
       6    H4      21.175594   18.670117   23.650649 H          1 MOL1         0.0830
       7    C3      20.463846   18.873352   21.586548 C.3        1 MOL1        -0.1765
       8    H5      21.158727   18.046090   21.390594 H          1 MOL1         0.0830
       9    H6      20.865325   19.770210   21.096174 H          1 MOL1         0.0830
      10    C4      19.074757   18.493522   21.056309 C.3        1 MOL1         0.1214
      11    H7      19.142778   17.884068   20.143664 H          1 MOL1         0.0787
      12    C5      18.435824   17.711101   22.211532 C.3        1 MOL1        -0.1765
      13    H8      17.338662   17.748657   22.182743 H          1 MOL1         0.0830
      14    H9      18.736110   16.657538   22.137671 H          1 MOL1         0.0830
      15    O1      18.324499   19.676133   20.821042 O.3        1 MOL1        -0.5512
      16    H10     18.318049   20.148652   21.678857 H          1 MOL1         0.3776
@<TRIPOS>BOND
    1     1     2    1
    2     1     3    1
    3     1     4    1
    4     4     5    1
    5     4     6    1
    6     4     7    1
    7     7     8    1
    8     7     9    1
    9     7    10    1
   10    10    11    1
   11     1    12    1
   12    10    12    1
   13    12    13    1
   14    12    14    1
   15    10    15    1
   16    15    16    1
@<TRIPOS>SUBSTRUCTURE
       1 MOL1            1 RESIDUE      1      MOL     
@<SCITEGIC>MOL_PROPERTY
VConf Rank
SciTegic.value.IntegerValue
546

@<SCITEGIC>MOL_PROPERTY
Conf_Id
SciTegic.value.IntegerValue
20

@<SCITEGIC>MOL_PROPERTY
Delta U+W
SciTegic.value.DoubleValue
-0.483

@<SCITEGIC>MOL_PROPERTY
U+W
SciTegic.value.DoubleValue
2.527

@<SCITEGIC>MOL_PROPERTY
Grad RMS
SciTegic.value.DoubleValue
0.000000

@<SCITEGIC>MOL_PROPERTY
U
SciTegic.value.DoubleValue
4.508

@<SCITEGIC>MOL_PROPERTY
W
SciTegic.value.DoubleValue
-1.981

@<SCITEGIC>MOL_PROPERTY
W(PB)
SciTegic.value.DoubleValue
-3.712

@<SCITEGIC>MOL_PROPERTY
W(SA)
SciTegic.value.DoubleValue
1.732

@<SCITEGIC>MOL_PROPERTY
Valence
SciTegic.value.DoubleValue
14.705

@<SCITEGIC>MOL_PROPERTY
Coulomb
SciTegic.value.DoubleValue
-10.687

@<SCITEGIC>MOL_PROPERTY
VdW
SciTegic.value.DoubleValue
0.490

@<SCITEGIC>MOL_PROPERTY
VdW6
SciTegic.value.DoubleValue
-3.745

@<SCITEGIC>MOL_PROPERTY
VdW12
SciTegic.value.DoubleValue
4.235

@<SCITEGIC>MOL_PROPERTY
Bond
SciTegic.value.DoubleValue
0.068

@<SCITEGIC>MOL_PROPERTY
Angle
SciTegic.value.DoubleValue
3.901

@<SCITEGIC>MOL_PROPERTY
Pdih
SciTegic.value.DoubleValue
10.737

@<SCITEGIC>MOL_PROPERTY
Idih
SciTegic.value.DoubleValue
0.000

@<SCITEGIC>MOL_PROPERTY
Tether
SciTegic.value.DoubleValue
0.000

@<TRIPOS>MOLECULE
guest-4_confgen4.mol2 : confsearch ligand conformer 547
          16          16           1
SMALL
USER_CHARGES
 
@<TRIPOS>ATOM
       1    C1      19.326813   17.745042   21.106604 C.3        1 MOL1        -0.1689
       2    H1      18.276683   17.440856   20.995365 H          1 MOL1         0.0830
       3    H2      19.888803   17.363841   20.243183 H          1 MOL1         0.0830
       4    C2      19.875491   17.221090   22.440829 C.3        1 MOL1        -0.1689
       5    H3      19.519199   16.207568   22.670150 H          1 MOL1         0.0830
       6    H4      20.973649   17.199583   22.406018 H          1 MOL1         0.0830
       7    C3      19.407427   18.255896   23.480372 C.3        1 MOL1        -0.1765
       8    H5      20.103453   18.317117   24.326921 H          1 MOL1         0.0830
       9    H6      18.425091   17.958580   23.872041 H          1 MOL1         0.0830
      10    C4      19.300569   19.603146   22.735270 C.3        1 MOL1         0.1214
      11    H7      20.132799   20.260866   23.025643 H          1 MOL1         0.0787
      12    C5      19.409268   19.277619   21.231259 C.3        1 MOL1        -0.1765
      13    H8      18.628268   19.773919   20.639864 H          1 MOL1         0.0830
      14    H9      20.381536   19.625788   20.859027 H          1 MOL1         0.0830
      15    O1      18.049736   20.220694   23.014448 O.3        1 MOL1        -0.5512
      16    H10     18.030780   20.393929   23.979415 H          1 MOL1         0.3776
@<TRIPOS>BOND
    1     1     2    1
    2     1     3    1
    3     1     4    1
    4     4     5    1
    5     4     6    1
    6     4     7    1
    7     7     8    1
    8     7     9    1
    9     7    10    1
   10    10    11    1
   11     1    12    1
   12    10    12    1
   13    12    13    1
   14    12    14    1
   15    10    15    1
   16    15    16    1
@<TRIPOS>SUBSTRUCTURE
       1 MOL1            1 RESIDUE      1      MOL     
@<SCITEGIC>MOL_PROPERTY
VConf Rank
SciTegic.value.IntegerValue
547

@<SCITEGIC>MOL_PROPERTY
Conf_Id
SciTegic.value.IntegerValue
59

@<SCITEGIC>MOL_PROPERTY
Delta U+W
SciTegic.value.DoubleValue
0.000

@<SCITEGIC>MOL_PROPERTY
U+W
SciTegic.value.DoubleValue
3.010

@<SCITEGIC>MOL_PROPERTY
Grad RMS
SciTegic.value.DoubleValue
0.000000

@<SCITEGIC>MOL_PROPERTY
U
SciTegic.value.DoubleValue
5.843

@<SCITEGIC>MOL_PROPERTY
W
SciTegic.value.DoubleValue
-2.833

@<SCITEGIC>MOL_PROPERTY
W(PB)
SciTegic.value.DoubleValue
-4.568

@<SCITEGIC>MOL_PROPERTY
W(SA)
SciTegic.value.DoubleValue
1.735

@<SCITEGIC>MOL_PROPERTY
Valence
SciTegic.value.DoubleValue
13.789

@<SCITEGIC>MOL_PROPERTY
Coulomb
SciTegic.value.DoubleValue
-8.574

@<SCITEGIC>MOL_PROPERTY
VdW
SciTegic.value.DoubleValue
0.628

@<SCITEGIC>MOL_PROPERTY
VdW6
SciTegic.value.DoubleValue
-3.284

@<SCITEGIC>MOL_PROPERTY
VdW12
SciTegic.value.DoubleValue
3.912

@<SCITEGIC>MOL_PROPERTY
Bond
SciTegic.value.DoubleValue
0.054

@<SCITEGIC>MOL_PROPERTY
Angle
SciTegic.value.DoubleValue
4.034

@<SCITEGIC>MOL_PROPERTY
Pdih
SciTegic.value.DoubleValue
9.702

@<SCITEGIC>MOL_PROPERTY
Idih
SciTegic.value.DoubleValue
0.000

@<SCITEGIC>MOL_PROPERTY
Tether
SciTegic.value.DoubleValue
0.000

@<TRIPOS>MOLECULE
guest-4_confgen4.mol2 : confsearch ligand conformer 548
          16          16           1
SMALL
USER_CHARGES
 
@<TRIPOS>ATOM
       1    C1      20.707652   18.004175   22.630391 C.3        1 MOL1        -0.1689
       2    H1      21.767160   18.278527   22.724904 H          1 MOL1         0.0830
       3    H2      20.581373   16.983110   23.016527 H          1 MOL1         0.0830
       4    C2      20.214173   18.071817   21.178623 C.3        1 MOL1        -0.1689
       5    H3      20.651379   18.948986   20.681526 H          1 MOL1         0.0830
       6    H4      20.485988   17.177869   20.601026 H          1 MOL1         0.0830
       7    C3      18.689738   18.253274   21.297977 C.3        1 MOL1        -0.1765
       8    H5      18.202153   17.269952   21.318538 H          1 MOL1         0.0830
       9    H6      18.280888   18.810802   20.444734 H          1 MOL1         0.0830
      10    C4      18.435797   18.968810   22.640855 C.3        1 MOL1         0.1214
      11    H7      17.682966   18.408581   23.214360 H          1 MOL1         0.0787
      12    C5      19.782284   18.968388   23.394981 C.3        1 MOL1        -0.1765
      13    H8      20.222074   19.975034   23.389327 H          1 MOL1         0.0830
      14    H9      19.658580   18.660428   24.441262 H          1 MOL1         0.0830
      15    O1      18.002382   20.304162   22.410883 O.3        1 MOL1        -0.5512
      16    H10     17.868028   20.711996   23.292444 H          1 MOL1         0.3776
@<TRIPOS>BOND
    1     1     2    1
    2     1     3    1
    3     1     4    1
    4     4     5    1
    5     4     6    1
    6     4     7    1
    7     7     8    1
    8     7     9    1
    9     7    10    1
   10    10    11    1
   11     1    12    1
   12    10    12    1
   13    12    13    1
   14    12    14    1
   15    10    15    1
   16    15    16    1
@<TRIPOS>SUBSTRUCTURE
       1 MOL1            1 RESIDUE      1      MOL     
@<SCITEGIC>MOL_PROPERTY
VConf Rank
SciTegic.value.IntegerValue
548

@<SCITEGIC>MOL_PROPERTY
Conf_Id
SciTegic.value.IntegerValue
33

@<SCITEGIC>MOL_PROPERTY
Delta U+W
SciTegic.value.DoubleValue
0.015

@<SCITEGIC>MOL_PROPERTY
U+W
SciTegic.value.DoubleValue
3.025

@<SCITEGIC>MOL_PROPERTY
Grad RMS
SciTegic.value.DoubleValue
0.000000

@<SCITEGIC>MOL_PROPERTY
U
SciTegic.value.DoubleValue
5.843

@<SCITEGIC>MOL_PROPERTY
W
SciTegic.value.DoubleValue
-2.819

@<SCITEGIC>MOL_PROPERTY
W(PB)
SciTegic.value.DoubleValue
-4.568

@<SCITEGIC>MOL_PROPERTY
W(SA)
SciTegic.value.DoubleValue
1.750

@<SCITEGIC>MOL_PROPERTY
Valence
SciTegic.value.DoubleValue
13.789

@<SCITEGIC>MOL_PROPERTY
Coulomb
SciTegic.value.DoubleValue
-8.574

@<SCITEGIC>MOL_PROPERTY
VdW
SciTegic.value.DoubleValue
0.628

@<SCITEGIC>MOL_PROPERTY
VdW6
SciTegic.value.DoubleValue
-3.284

@<SCITEGIC>MOL_PROPERTY
VdW12
SciTegic.value.DoubleValue
3.913

@<SCITEGIC>MOL_PROPERTY
Bond
SciTegic.value.DoubleValue
0.054

@<SCITEGIC>MOL_PROPERTY
Angle
SciTegic.value.DoubleValue
4.033

@<SCITEGIC>MOL_PROPERTY
Pdih
SciTegic.value.DoubleValue
9.702

@<SCITEGIC>MOL_PROPERTY
Idih
SciTegic.value.DoubleValue
0.000

@<SCITEGIC>MOL_PROPERTY
Tether
SciTegic.value.DoubleValue
0.000

@<TRIPOS>MOLECULE
guest-4_confgen4.mol2 : confsearch ligand conformer 549
          16          16           1
SMALL
USER_CHARGES
 
@<TRIPOS>ATOM
       1    C1      18.731958   19.036397   21.169238 C.3        1 MOL1        -0.1689
       2    H1      18.773430   20.123512   21.015326 H          1 MOL1         0.0830
       3    H2      18.160849   18.603435   20.336546 H          1 MOL1         0.0830
       4    C2      18.075306   18.723479   22.531556 C.3        1 MOL1        -0.1689
       5    H3      17.798022   19.659098   23.036489 H          1 MOL1         0.0830
       6    H4      17.161222   18.125942   22.411558 H          1 MOL1         0.0830
       7    C3      19.130757   17.962209   23.361573 C.3        1 MOL1        -0.1765
       8    H5      18.943816   16.882522   23.291223 H          1 MOL1         0.0830
       9    H6      19.102437   18.237659   24.424273 H          1 MOL1         0.0830
      10    C4      20.486917   18.276234   22.715653 C.3        1 MOL1         0.1214
      11    H7      21.210121   17.464060   22.877925 H          1 MOL1         0.0787
      12    C5      20.159126   18.451384   21.226750 C.3        1 MOL1        -0.1765
      13    H8      20.890991   19.087901   20.711751 H          1 MOL1         0.0830
      14    H9      20.171936   17.466926   20.740641 H          1 MOL1         0.0830
      15    O1      20.978741   19.503603   23.233805 O.3        1 MOL1        -0.5512
      16    H10     20.276124   20.159402   23.045610 H          1 MOL1         0.3776
@<TRIPOS>BOND
    1     1     2    1
    2     1     3    1
    3     1     4    1
    4     4     5    1
    5     4     6    1
    6     4     7    1
    7     7     8    1
    8     7     9    1
    9     7    10    1
   10    10    11    1
   11     1    12    1
   12    10    12    1
   13    12    13    1
   14    12    14    1
   15    10    15    1
   16    15    16    1
@<TRIPOS>SUBSTRUCTURE
       1 MOL1            1 RESIDUE      1      MOL     
@<SCITEGIC>MOL_PROPERTY
VConf Rank
SciTegic.value.IntegerValue
549

@<SCITEGIC>MOL_PROPERTY
Conf_Id
SciTegic.value.IntegerValue
20

@<SCITEGIC>MOL_PROPERTY
Delta U+W
SciTegic.value.DoubleValue
-0.483

@<SCITEGIC>MOL_PROPERTY
U+W
SciTegic.value.DoubleValue
2.527

@<SCITEGIC>MOL_PROPERTY
Grad RMS
SciTegic.value.DoubleValue
0.000000

@<SCITEGIC>MOL_PROPERTY
U
SciTegic.value.DoubleValue
4.508

@<SCITEGIC>MOL_PROPERTY
W
SciTegic.value.DoubleValue
-1.981

@<SCITEGIC>MOL_PROPERTY
W(PB)
SciTegic.value.DoubleValue
-3.712

@<SCITEGIC>MOL_PROPERTY
W(SA)
SciTegic.value.DoubleValue
1.732

@<SCITEGIC>MOL_PROPERTY
Valence
SciTegic.value.DoubleValue
14.705

@<SCITEGIC>MOL_PROPERTY
Coulomb
SciTegic.value.DoubleValue
-10.687

@<SCITEGIC>MOL_PROPERTY
VdW
SciTegic.value.DoubleValue
0.490

@<SCITEGIC>MOL_PROPERTY
VdW6
SciTegic.value.DoubleValue
-3.745

@<SCITEGIC>MOL_PROPERTY
VdW12
SciTegic.value.DoubleValue
4.235

@<SCITEGIC>MOL_PROPERTY
Bond
SciTegic.value.DoubleValue
0.068

@<SCITEGIC>MOL_PROPERTY
Angle
SciTegic.value.DoubleValue
3.901

@<SCITEGIC>MOL_PROPERTY
Pdih
SciTegic.value.DoubleValue
10.737

@<SCITEGIC>MOL_PROPERTY
Idih
SciTegic.value.DoubleValue
0.000

@<SCITEGIC>MOL_PROPERTY
Tether
SciTegic.value.DoubleValue
0.000

@<TRIPOS>MOLECULE
guest-4_confgen4.mol2 : confsearch ligand conformer 550
          16          16           1
SMALL
USER_CHARGES
 
@<TRIPOS>ATOM
       1    C1      20.500168   18.835558   23.168651 C.3        1 MOL1        -0.1689
       2    H1      20.149083   18.629500   24.189414 H          1 MOL1         0.0830
       3    H2      21.563311   19.107339   23.218707 H          1 MOL1         0.0830
       4    C2      19.640919   19.942740   22.542898 C.3        1 MOL1        -0.1689
       5    H3      19.393148   20.735933   23.261379 H          1 MOL1         0.0830
       6    H4      20.180624   20.398150   21.700909 H          1 MOL1         0.0830
       7    C3      18.389920   19.210001   22.024583 C.3        1 MOL1        -0.1765
       8    H5      17.959279   19.719121   21.152694 H          1 MOL1         0.0830
       9    H6      17.626982   19.190355   22.814725 H          1 MOL1         0.0830
      10    C4      18.838742   17.774492   21.678821 C.3        1 MOL1         0.1214
      11    H7      18.890495   17.648930   20.587457 H          1 MOL1         0.0787
      12    C5      20.249708   17.604074   22.278793 C.3        1 MOL1        -0.1765
      13    H8      20.351667   16.668674   22.845055 H          1 MOL1         0.0830
      14    H9      20.984971   17.582637   21.463924 H          1 MOL1         0.0830
      15    O1      17.944118   16.828800   22.252584 O.3        1 MOL1        -0.5512
      16    H10     17.066432   16.989233   21.845816 H          1 MOL1         0.3776
@<TRIPOS>BOND
    1     1     2    1
    2     1     3    1
    3     1     4    1
    4     4     5    1
    5     4     6    1
    6     4     7    1
    7     7     8    1
    8     7     9    1
    9     7    10    1
   10    10    11    1
   11     1    12    1
   12    10    12    1
   13    12    13    1
   14    12    14    1
   15    10    15    1
   16    15    16    1
@<TRIPOS>SUBSTRUCTURE
       1 MOL1            1 RESIDUE      1      MOL     
@<SCITEGIC>MOL_PROPERTY
VConf Rank
SciTegic.value.IntegerValue
550

@<SCITEGIC>MOL_PROPERTY
Conf_Id
SciTegic.value.IntegerValue
59

@<SCITEGIC>MOL_PROPERTY
Delta U+W
SciTegic.value.DoubleValue
0.000

@<SCITEGIC>MOL_PROPERTY
U+W
SciTegic.value.DoubleValue
3.010

@<SCITEGIC>MOL_PROPERTY
Grad RMS
SciTegic.value.DoubleValue
0.000000

@<SCITEGIC>MOL_PROPERTY
U
SciTegic.value.DoubleValue
5.843

@<SCITEGIC>MOL_PROPERTY
W
SciTegic.value.DoubleValue
-2.833

@<SCITEGIC>MOL_PROPERTY
W(PB)
SciTegic.value.DoubleValue
-4.568

@<SCITEGIC>MOL_PROPERTY
W(SA)
SciTegic.value.DoubleValue
1.735

@<SCITEGIC>MOL_PROPERTY
Valence
SciTegic.value.DoubleValue
13.789

@<SCITEGIC>MOL_PROPERTY
Coulomb
SciTegic.value.DoubleValue
-8.574

@<SCITEGIC>MOL_PROPERTY
VdW
SciTegic.value.DoubleValue
0.628

@<SCITEGIC>MOL_PROPERTY
VdW6
SciTegic.value.DoubleValue
-3.284

@<SCITEGIC>MOL_PROPERTY
VdW12
SciTegic.value.DoubleValue
3.912

@<SCITEGIC>MOL_PROPERTY
Bond
SciTegic.value.DoubleValue
0.054

@<SCITEGIC>MOL_PROPERTY
Angle
SciTegic.value.DoubleValue
4.034

@<SCITEGIC>MOL_PROPERTY
Pdih
SciTegic.value.DoubleValue
9.702

@<SCITEGIC>MOL_PROPERTY
Idih
SciTegic.value.DoubleValue
0.000

@<SCITEGIC>MOL_PROPERTY
Tether
SciTegic.value.DoubleValue
0.000

@<TRIPOS>MOLECULE
guest-4_confgen4.mol2 : confsearch ligand conformer 551
          16          16           1
SMALL
USER_CHARGES
 
@<TRIPOS>ATOM
       1    C1      20.700783   18.263570   22.908529 C.3        1 MOL1        -0.1689
       2    H1      21.101256   17.531174   23.622656 H          1 MOL1         0.0830
       3    H2      21.545360   18.813062   22.469930 H          1 MOL1         0.0830
       4    C2      19.728979   19.251462   23.568371 C.3        1 MOL1        -0.1689
       5    H3      19.099661   18.719117   24.295177 H          1 MOL1         0.0830
       6    H4      20.249037   20.064096   24.093547 H          1 MOL1         0.0830
       7    C3      18.855658   19.765322   22.408916 C.3        1 MOL1        -0.1765
       8    H5      19.316619   20.658974   21.968478 H          1 MOL1         0.0830
       9    H6      17.850248   20.043175   22.752378 H          1 MOL1         0.0830
      10    C4      18.823713   18.642687   21.351340 C.3        1 MOL1         0.1214
      11    H7      19.095130   19.059687   20.370543 H          1 MOL1         0.0787
      12    C5      19.873942   17.601009   21.791408 C.3        1 MOL1        -0.1765
      13    H8      19.378043   16.705083   22.189130 H          1 MOL1         0.0830
      14    H9      20.509795   17.289986   20.952479 H          1 MOL1         0.0830
      15    O1      17.531979   18.048346   21.305729 O.3        1 MOL1        -0.5512
      16    H10     17.572412   17.339162   20.629747 H          1 MOL1         0.3776
@<TRIPOS>BOND
    1     1     2    1
    2     1     3    1
    3     1     4    1
    4     4     5    1
    5     4     6    1
    6     4     7    1
    7     7     8    1
    8     7     9    1
    9     7    10    1
   10    10    11    1
   11     1    12    1
   12    10    12    1
   13    12    13    1
   14    12    14    1
   15    10    15    1
   16    15    16    1
@<TRIPOS>SUBSTRUCTURE
       1 MOL1            1 RESIDUE      1      MOL     
@<SCITEGIC>MOL_PROPERTY
VConf Rank
SciTegic.value.IntegerValue
551

@<SCITEGIC>MOL_PROPERTY
Conf_Id
SciTegic.value.IntegerValue
33

@<SCITEGIC>MOL_PROPERTY
Delta U+W
SciTegic.value.DoubleValue
0.015

@<SCITEGIC>MOL_PROPERTY
U+W
SciTegic.value.DoubleValue
3.025

@<SCITEGIC>MOL_PROPERTY
Grad RMS
SciTegic.value.DoubleValue
0.000000

@<SCITEGIC>MOL_PROPERTY
U
SciTegic.value.DoubleValue
5.843

@<SCITEGIC>MOL_PROPERTY
W
SciTegic.value.DoubleValue
-2.819

@<SCITEGIC>MOL_PROPERTY
W(PB)
SciTegic.value.DoubleValue
-4.568

@<SCITEGIC>MOL_PROPERTY
W(SA)
SciTegic.value.DoubleValue
1.750

@<SCITEGIC>MOL_PROPERTY
Valence
SciTegic.value.DoubleValue
13.789

@<SCITEGIC>MOL_PROPERTY
Coulomb
SciTegic.value.DoubleValue
-8.574

@<SCITEGIC>MOL_PROPERTY
VdW
SciTegic.value.DoubleValue
0.628

@<SCITEGIC>MOL_PROPERTY
VdW6
SciTegic.value.DoubleValue
-3.284

@<SCITEGIC>MOL_PROPERTY
VdW12
SciTegic.value.DoubleValue
3.913

@<SCITEGIC>MOL_PROPERTY
Bond
SciTegic.value.DoubleValue
0.054

@<SCITEGIC>MOL_PROPERTY
Angle
SciTegic.value.DoubleValue
4.033

@<SCITEGIC>MOL_PROPERTY
Pdih
SciTegic.value.DoubleValue
9.702

@<SCITEGIC>MOL_PROPERTY
Idih
SciTegic.value.DoubleValue
0.000

@<SCITEGIC>MOL_PROPERTY
Tether
SciTegic.value.DoubleValue
0.000

@<TRIPOS>MOLECULE
guest-4_confgen4.mol2 : confsearch ligand conformer 552
          16          16           1
SMALL
USER_CHARGES
 
@<TRIPOS>ATOM
       1    C1      19.510131   18.924150   23.550022 C.3        1 MOL1        -0.1689
       2    H1      20.514802   19.268739   23.831307 H          1 MOL1         0.0830
       3    H2      18.881864   18.957998   24.450652 H          1 MOL1         0.0830
       4    C2      19.588869   17.496710   22.965868 C.3        1 MOL1        -0.1689
       5    H3      20.631489   17.150055   22.965418 H          1 MOL1         0.0830
       6    H4      19.000943   16.784028   23.560367 H          1 MOL1         0.0830
       7    C3      19.055895   17.585496   21.520015 C.3        1 MOL1        -0.1765
       8    H5      18.001284   17.280619   21.498420 H          1 MOL1         0.0830
       9    H6      19.607197   16.930513   20.832215 H          1 MOL1         0.0830
      10    C4      19.155532   19.063750   21.120228 C.3        1 MOL1         0.1214
      11    H7      18.401365   19.330619   20.365910 H          1 MOL1         0.0787
      12    C5      18.931382   19.821665   22.435629 C.3        1 MOL1        -0.1765
      13    H8      19.390229   20.819330   22.424284 H          1 MOL1         0.0830
      14    H9      17.852497   19.951891   22.592698 H          1 MOL1         0.0830
      15    O1      20.466053   19.331981   20.643368 O.3        1 MOL1        -0.5512
      16    H10     21.062223   19.066220   21.373515 H          1 MOL1         0.3776
@<TRIPOS>BOND
    1     1     2    1
    2     1     3    1
    3     1     4    1
    4     4     5    1
    5     4     6    1
    6     4     7    1
    7     7     8    1
    8     7     9    1
    9     7    10    1
   10    10    11    1
   11     1    12    1
   12    10    12    1
   13    12    13    1
   14    12    14    1
   15    10    15    1
   16    15    16    1
@<TRIPOS>SUBSTRUCTURE
       1 MOL1            1 RESIDUE      1      MOL     
@<SCITEGIC>MOL_PROPERTY
VConf Rank
SciTegic.value.IntegerValue
552

@<SCITEGIC>MOL_PROPERTY
Conf_Id
SciTegic.value.IntegerValue
20

@<SCITEGIC>MOL_PROPERTY
Delta U+W
SciTegic.value.DoubleValue
-0.483

@<SCITEGIC>MOL_PROPERTY
U+W
SciTegic.value.DoubleValue
2.527

@<SCITEGIC>MOL_PROPERTY
Grad RMS
SciTegic.value.DoubleValue
0.000000

@<SCITEGIC>MOL_PROPERTY
U
SciTegic.value.DoubleValue
4.508

@<SCITEGIC>MOL_PROPERTY
W
SciTegic.value.DoubleValue
-1.981

@<SCITEGIC>MOL_PROPERTY
W(PB)
SciTegic.value.DoubleValue
-3.712

@<SCITEGIC>MOL_PROPERTY
W(SA)
SciTegic.value.DoubleValue
1.732

@<SCITEGIC>MOL_PROPERTY
Valence
SciTegic.value.DoubleValue
14.705

@<SCITEGIC>MOL_PROPERTY
Coulomb
SciTegic.value.DoubleValue
-10.687

@<SCITEGIC>MOL_PROPERTY
VdW
SciTegic.value.DoubleValue
0.490

@<SCITEGIC>MOL_PROPERTY
VdW6
SciTegic.value.DoubleValue
-3.745

@<SCITEGIC>MOL_PROPERTY
VdW12
SciTegic.value.DoubleValue
4.235

@<SCITEGIC>MOL_PROPERTY
Bond
SciTegic.value.DoubleValue
0.068

@<SCITEGIC>MOL_PROPERTY
Angle
SciTegic.value.DoubleValue
3.901

@<SCITEGIC>MOL_PROPERTY
Pdih
SciTegic.value.DoubleValue
10.737

@<SCITEGIC>MOL_PROPERTY
Idih
SciTegic.value.DoubleValue
0.000

@<SCITEGIC>MOL_PROPERTY
Tether
SciTegic.value.DoubleValue
0.000

@<TRIPOS>MOLECULE
guest-4_confgen4.mol2 : confsearch ligand conformer 553
          16          16           1
SMALL
USER_CHARGES
 
@<TRIPOS>ATOM
       1    C1      19.079275   18.548843   20.887285 C.3        1 MOL1        -0.1689
       2    H1      18.150374   17.971275   20.781284 H          1 MOL1         0.0830
       3    H2      19.368880   18.919970   19.894795 H          1 MOL1         0.0830
       4    C2      20.163259   17.667462   21.522796 C.3        1 MOL1        -0.1689
       5    H3      20.140092   16.637051   21.142696 H          1 MOL1         0.0830
       6    H4      21.155086   18.090024   21.309850 H          1 MOL1         0.0830
       7    C3      19.879298   17.740940   23.034260 C.3        1 MOL1        -0.1765
       8    H5      20.798177   17.616119   23.621565 H          1 MOL1         0.0830
       9    H6      19.188066   16.934140   23.313649 H          1 MOL1         0.0830
      10    C4      19.226449   19.116150   23.287763 C.3        1 MOL1         0.1214
      11    H7      19.943447   19.787757   23.782107 H          1 MOL1         0.0787
      12    C5      18.865371   19.687869   21.901186 C.3        1 MOL1        -0.1765
      13    H8      17.838079   20.074304   21.864299 H          1 MOL1         0.0830
      14    H9      19.543252   20.519628   21.669377 H          1 MOL1         0.0830
      15    O1      18.052419   18.964293   24.076738 O.3        1 MOL1        -0.5512
      16    H10     18.338042   18.589709   24.936760 H          1 MOL1         0.3776
@<TRIPOS>BOND
    1     1     2    1
    2     1     3    1
    3     1     4    1
    4     4     5    1
    5     4     6    1
    6     4     7    1
    7     7     8    1
    8     7     9    1
    9     7    10    1
   10    10    11    1
   11     1    12    1
   12    10    12    1
   13    12    13    1
   14    12    14    1
   15    10    15    1
   16    15    16    1
@<TRIPOS>SUBSTRUCTURE
       1 MOL1            1 RESIDUE      1      MOL     
@<SCITEGIC>MOL_PROPERTY
VConf Rank
SciTegic.value.IntegerValue
553

@<SCITEGIC>MOL_PROPERTY
Conf_Id
SciTegic.value.IntegerValue
59

@<SCITEGIC>MOL_PROPERTY
Delta U+W
SciTegic.value.DoubleValue
0.000

@<SCITEGIC>MOL_PROPERTY
U+W
SciTegic.value.DoubleValue
3.010

@<SCITEGIC>MOL_PROPERTY
Grad RMS
SciTegic.value.DoubleValue
0.000000

@<SCITEGIC>MOL_PROPERTY
U
SciTegic.value.DoubleValue
5.843

@<SCITEGIC>MOL_PROPERTY
W
SciTegic.value.DoubleValue
-2.833

@<SCITEGIC>MOL_PROPERTY
W(PB)
SciTegic.value.DoubleValue
-4.568

@<SCITEGIC>MOL_PROPERTY
W(SA)
SciTegic.value.DoubleValue
1.735

@<SCITEGIC>MOL_PROPERTY
Valence
SciTegic.value.DoubleValue
13.789

@<SCITEGIC>MOL_PROPERTY
Coulomb
SciTegic.value.DoubleValue
-8.574

@<SCITEGIC>MOL_PROPERTY
VdW
SciTegic.value.DoubleValue
0.628

@<SCITEGIC>MOL_PROPERTY
VdW6
SciTegic.value.DoubleValue
-3.284

@<SCITEGIC>MOL_PROPERTY
VdW12
SciTegic.value.DoubleValue
3.912

@<SCITEGIC>MOL_PROPERTY
Bond
SciTegic.value.DoubleValue
0.054

@<SCITEGIC>MOL_PROPERTY
Angle
SciTegic.value.DoubleValue
4.034

@<SCITEGIC>MOL_PROPERTY
Pdih
SciTegic.value.DoubleValue
9.702

@<SCITEGIC>MOL_PROPERTY
Idih
SciTegic.value.DoubleValue
0.000

@<SCITEGIC>MOL_PROPERTY
Tether
SciTegic.value.DoubleValue
0.000

@<TRIPOS>MOLECULE
guest-4_confgen4.mol2 : confsearch ligand conformer 554
          16          16           1
SMALL
USER_CHARGES
 
@<TRIPOS>ATOM
       1    C1      18.788317   19.297186   23.365190 C.3        1 MOL1        -0.1689
       2    H1      17.800697   19.716568   23.600740 H          1 MOL1         0.0830
       3    H2      19.401678   19.329844   24.276422 H          1 MOL1         0.0830
       4    C2      19.495124   20.064392   22.239337 C.3        1 MOL1        -0.1689
       5    H3      18.763859   20.342166   21.467474 H          1 MOL1         0.0830
       6    H4      19.982065   20.981403   22.597977 H          1 MOL1         0.0830
       7    C3      20.500830   19.054131   21.657097 C.3        1 MOL1        -0.1765
       8    H5      21.457917   19.139411   22.187942 H          1 MOL1         0.0830
       9    H6      20.691946   19.241904   20.592093 H          1 MOL1         0.0830
      10    C4      19.909997   17.651277   21.907528 C.3        1 MOL1         0.1214
      11    H7      20.666838   17.020177   22.395816 H          1 MOL1         0.0787
      12    C5      18.701867   17.849887   22.847054 C.3        1 MOL1        -0.1765
      13    H8      17.762732   17.718014   22.292602 H          1 MOL1         0.0830
      14    H9      18.710044   17.127030   23.673043 H          1 MOL1         0.0830
      15    O1      19.486703   17.070920   20.679560 O.3        1 MOL1        -0.5512
      16    H10     19.112002   16.191601   20.898481 H          1 MOL1         0.3776
@<TRIPOS>BOND
    1     1     2    1
    2     1     3    1
    3     1     4    1
    4     4     5    1
    5     4     6    1
    6     4     7    1
    7     7     8    1
    8     7     9    1
    9     7    10    1
   10    10    11    1
   11     1    12    1
   12    10    12    1
   13    12    13    1
   14    12    14    1
   15    10    15    1
   16    15    16    1
@<TRIPOS>SUBSTRUCTURE
       1 MOL1            1 RESIDUE      1      MOL     
@<SCITEGIC>MOL_PROPERTY
VConf Rank
SciTegic.value.IntegerValue
554

@<SCITEGIC>MOL_PROPERTY
Conf_Id
SciTegic.value.IntegerValue
33

@<SCITEGIC>MOL_PROPERTY
Delta U+W
SciTegic.value.DoubleValue
0.015

@<SCITEGIC>MOL_PROPERTY
U+W
SciTegic.value.DoubleValue
3.025

@<SCITEGIC>MOL_PROPERTY
Grad RMS
SciTegic.value.DoubleValue
0.000000

@<SCITEGIC>MOL_PROPERTY
U
SciTegic.value.DoubleValue
5.843

@<SCITEGIC>MOL_PROPERTY
W
SciTegic.value.DoubleValue
-2.819

@<SCITEGIC>MOL_PROPERTY
W(PB)
SciTegic.value.DoubleValue
-4.568

@<SCITEGIC>MOL_PROPERTY
W(SA)
SciTegic.value.DoubleValue
1.750

@<SCITEGIC>MOL_PROPERTY
Valence
SciTegic.value.DoubleValue
13.789

@<SCITEGIC>MOL_PROPERTY
Coulomb
SciTegic.value.DoubleValue
-8.574

@<SCITEGIC>MOL_PROPERTY
VdW
SciTegic.value.DoubleValue
0.628

@<SCITEGIC>MOL_PROPERTY
VdW6
SciTegic.value.DoubleValue
-3.284

@<SCITEGIC>MOL_PROPERTY
VdW12
SciTegic.value.DoubleValue
3.913

@<SCITEGIC>MOL_PROPERTY
Bond
SciTegic.value.DoubleValue
0.054

@<SCITEGIC>MOL_PROPERTY
Angle
SciTegic.value.DoubleValue
4.033

@<SCITEGIC>MOL_PROPERTY
Pdih
SciTegic.value.DoubleValue
9.702

@<SCITEGIC>MOL_PROPERTY
Idih
SciTegic.value.DoubleValue
0.000

@<SCITEGIC>MOL_PROPERTY
Tether
SciTegic.value.DoubleValue
0.000

@<TRIPOS>MOLECULE
guest-4_confgen4.mol2 : confsearch ligand conformer 555
          16          16           1
SMALL
USER_CHARGES
 
@<TRIPOS>ATOM
       1    C1      19.070106   18.569480   20.958755 C.3        1 MOL1        -0.1689
       2    H1      18.144007   18.024043   20.730575 H          1 MOL1         0.0830
       3    H2      19.475216   18.949565   20.010906 H          1 MOL1         0.0830
       4    C2      20.070805   17.631485   21.668536 C.3        1 MOL1        -0.1689
       5    H3      19.629430   16.631819   21.782920 H          1 MOL1         0.0830
       6    H4      20.999820   17.521706   21.092447 H          1 MOL1         0.0830
       7    C3      20.347231   18.253938   23.053664 C.3        1 MOL1        -0.1765
       8    H5      21.279982   18.832051   23.016518 H          1 MOL1         0.0830
       9    H6      20.456884   17.492801   23.837661 H          1 MOL1         0.0830
      10    C4      19.179203   19.209887   23.330907 C.3        1 MOL1         0.1214
      11    H7      19.478767   20.032515   23.996134 H          1 MOL1         0.0787
      12    C5      18.780364   19.724163   21.941157 C.3        1 MOL1        -0.1765
      13    H8      17.732306   20.049947   21.903149 H          1 MOL1         0.0830
      14    H9      19.408279   20.588320   21.687037 H          1 MOL1         0.0830
      15    O1      18.097056   18.477253   23.886796 O.3        1 MOL1        -0.5512
      16    H10     17.902297   17.774790   23.232750 H          1 MOL1         0.3776
@<TRIPOS>BOND
    1     1     2    1
    2     1     3    1
    3     1     4    1
    4     4     5    1
    5     4     6    1
    6     4     7    1
    7     7     8    1
    8     7     9    1
    9     7    10    1
   10    10    11    1
   11     1    12    1
   12    10    12    1
   13    12    13    1
   14    12    14    1
   15    10    15    1
   16    15    16    1
@<TRIPOS>SUBSTRUCTURE
       1 MOL1            1 RESIDUE      1      MOL     
@<SCITEGIC>MOL_PROPERTY
VConf Rank
SciTegic.value.IntegerValue
555

@<SCITEGIC>MOL_PROPERTY
Conf_Id
SciTegic.value.IntegerValue
20

@<SCITEGIC>MOL_PROPERTY
Delta U+W
SciTegic.value.DoubleValue
-0.483

@<SCITEGIC>MOL_PROPERTY
U+W
SciTegic.value.DoubleValue
2.527

@<SCITEGIC>MOL_PROPERTY
Grad RMS
SciTegic.value.DoubleValue
0.000000

@<SCITEGIC>MOL_PROPERTY
U
SciTegic.value.DoubleValue
4.508

@<SCITEGIC>MOL_PROPERTY
W
SciTegic.value.DoubleValue
-1.981

@<SCITEGIC>MOL_PROPERTY
W(PB)
SciTegic.value.DoubleValue
-3.712

@<SCITEGIC>MOL_PROPERTY
W(SA)
SciTegic.value.DoubleValue
1.732

@<SCITEGIC>MOL_PROPERTY
Valence
SciTegic.value.DoubleValue
14.705

@<SCITEGIC>MOL_PROPERTY
Coulomb
SciTegic.value.DoubleValue
-10.687

@<SCITEGIC>MOL_PROPERTY
VdW
SciTegic.value.DoubleValue
0.490

@<SCITEGIC>MOL_PROPERTY
VdW6
SciTegic.value.DoubleValue
-3.745

@<SCITEGIC>MOL_PROPERTY
VdW12
SciTegic.value.DoubleValue
4.235

@<SCITEGIC>MOL_PROPERTY
Bond
SciTegic.value.DoubleValue
0.068

@<SCITEGIC>MOL_PROPERTY
Angle
SciTegic.value.DoubleValue
3.901

@<SCITEGIC>MOL_PROPERTY
Pdih
SciTegic.value.DoubleValue
10.737

@<SCITEGIC>MOL_PROPERTY
Idih
SciTegic.value.DoubleValue
0.000

@<SCITEGIC>MOL_PROPERTY
Tether
SciTegic.value.DoubleValue
0.000

@<TRIPOS>MOLECULE
guest-4_confgen4.mol2 : confsearch ligand conformer 556
          16          16           1
SMALL
USER_CHARGES
 
@<TRIPOS>ATOM
       1    C1      17.952535   18.302205   22.587390 C.3        1 MOL1        -0.1689
       2    H1      17.590145   17.738709   21.716286 H          1 MOL1         0.0830
       3    H2      17.129181   18.386268   23.309654 H          1 MOL1         0.0830
       4    C2      18.475615   19.671669   22.132767 C.3        1 MOL1        -0.1689
       5    H3      17.848805   20.119554   21.349653 H          1 MOL1         0.0830
       6    H4      18.500704   20.360501   22.988633 H          1 MOL1         0.0830
       7    C3      19.909606   19.392016   21.646949 C.3        1 MOL1        -0.1765
       8    H5      20.556129   20.269159   21.779138 H          1 MOL1         0.0830
       9    H6      19.889031   19.146268   20.576449 H          1 MOL1         0.0830
      10    C4      20.417598   18.184720   22.463074 C.3        1 MOL1         0.1214
      11    H7      21.150060   18.518434   23.212509 H          1 MOL1         0.0787
      12    C5      19.185561   17.596555   23.181392 C.3        1 MOL1        -0.1765
      13    H8      19.119673   16.505961   23.070557 H          1 MOL1         0.0830
      14    H9      19.256424   17.819241   24.253992 H          1 MOL1         0.0830
      15    O1      20.990845   17.212740   21.596742 O.3        1 MOL1        -0.5512
      16    H10     21.757654   17.641535   21.161229 H          1 MOL1         0.3776
@<TRIPOS>BOND
    1     1     2    1
    2     1     3    1
    3     1     4    1
    4     4     5    1
    5     4     6    1
    6     4     7    1
    7     7     8    1
    8     7     9    1
    9     7    10    1
   10    10    11    1
   11     1    12    1
   12    10    12    1
   13    12    13    1
   14    12    14    1
   15    10    15    1
   16    15    16    1
@<TRIPOS>SUBSTRUCTURE
       1 MOL1            1 RESIDUE      1      MOL     
@<SCITEGIC>MOL_PROPERTY
VConf Rank
SciTegic.value.IntegerValue
556

@<SCITEGIC>MOL_PROPERTY
Conf_Id
SciTegic.value.IntegerValue
59

@<SCITEGIC>MOL_PROPERTY
Delta U+W
SciTegic.value.DoubleValue
0.000

@<SCITEGIC>MOL_PROPERTY
U+W
SciTegic.value.DoubleValue
3.010

@<SCITEGIC>MOL_PROPERTY
Grad RMS
SciTegic.value.DoubleValue
0.000000

@<SCITEGIC>MOL_PROPERTY
U
SciTegic.value.DoubleValue
5.843

@<SCITEGIC>MOL_PROPERTY
W
SciTegic.value.DoubleValue
-2.833

@<SCITEGIC>MOL_PROPERTY
W(PB)
SciTegic.value.DoubleValue
-4.568

@<SCITEGIC>MOL_PROPERTY
W(SA)
SciTegic.value.DoubleValue
1.735

@<SCITEGIC>MOL_PROPERTY
Valence
SciTegic.value.DoubleValue
13.789

@<SCITEGIC>MOL_PROPERTY
Coulomb
SciTegic.value.DoubleValue
-8.574

@<SCITEGIC>MOL_PROPERTY
VdW
SciTegic.value.DoubleValue
0.628

@<SCITEGIC>MOL_PROPERTY
VdW6
SciTegic.value.DoubleValue
-3.284

@<SCITEGIC>MOL_PROPERTY
VdW12
SciTegic.value.DoubleValue
3.912

@<SCITEGIC>MOL_PROPERTY
Bond
SciTegic.value.DoubleValue
0.054

@<SCITEGIC>MOL_PROPERTY
Angle
SciTegic.value.DoubleValue
4.034

@<SCITEGIC>MOL_PROPERTY
Pdih
SciTegic.value.DoubleValue
9.702

@<SCITEGIC>MOL_PROPERTY
Idih
SciTegic.value.DoubleValue
0.000

@<SCITEGIC>MOL_PROPERTY
Tether
SciTegic.value.DoubleValue
0.000

@<TRIPOS>MOLECULE
guest-4_confgen4.mol2 : confsearch ligand conformer 557
          16          16           1
SMALL
USER_CHARGES
 
@<TRIPOS>ATOM
       1    C1      18.034382   18.824967   22.217868 C.3        1 MOL1        -0.1689
       2    H1      17.225333   18.792846   21.475463 H          1 MOL1         0.0830
       3    H2      17.583962   18.958169   23.211347 H          1 MOL1         0.0830
       4    C2      19.031186   19.960086   21.946549 C.3        1 MOL1        -0.1689
       5    H3      19.208177   20.044165   20.865215 H          1 MOL1         0.0830
       6    H4      18.671156   20.931085   22.312858 H          1 MOL1         0.0830
       7    C3      20.326515   19.511075   22.647683 C.3        1 MOL1        -0.1765
       8    H5      20.332676   19.879878   23.681623 H          1 MOL1         0.0830
       9    H6      21.217577   19.910761   22.145411 H          1 MOL1         0.0830
      10    C4      20.305876   17.968639   22.663940 C.3        1 MOL1         0.1214
      11    H7      20.488482   17.613637   23.688707 H          1 MOL1         0.0787
      12    C5      18.894440   17.547984   22.202818 C.3        1 MOL1        -0.1765
      13    H8      18.931617   17.147059   21.180733 H          1 MOL1         0.0830
      14    H9      18.471794   16.772086   22.854124 H          1 MOL1         0.0830
      15    O1      21.287291   17.455488   21.770969 O.3        1 MOL1        -0.5512
      16    H10     21.222151   16.477984   21.813051 H          1 MOL1         0.3776
@<TRIPOS>BOND
    1     1     2    1
    2     1     3    1
    3     1     4    1
    4     4     5    1
    5     4     6    1
    6     4     7    1
    7     7     8    1
    8     7     9    1
    9     7    10    1
   10    10    11    1
   11     1    12    1
   12    10    12    1
   13    12    13    1
   14    12    14    1
   15    10    15    1
   16    15    16    1
@<TRIPOS>SUBSTRUCTURE
       1 MOL1            1 RESIDUE      1      MOL     
@<SCITEGIC>MOL_PROPERTY
VConf Rank
SciTegic.value.IntegerValue
557

@<SCITEGIC>MOL_PROPERTY
Conf_Id
SciTegic.value.IntegerValue
33

@<SCITEGIC>MOL_PROPERTY
Delta U+W
SciTegic.value.DoubleValue
0.015

@<SCITEGIC>MOL_PROPERTY
U+W
SciTegic.value.DoubleValue
3.025

@<SCITEGIC>MOL_PROPERTY
Grad RMS
SciTegic.value.DoubleValue
0.000000

@<SCITEGIC>MOL_PROPERTY
U
SciTegic.value.DoubleValue
5.843

@<SCITEGIC>MOL_PROPERTY
W
SciTegic.value.DoubleValue
-2.819

@<SCITEGIC>MOL_PROPERTY
W(PB)
SciTegic.value.DoubleValue
-4.568

@<SCITEGIC>MOL_PROPERTY
W(SA)
SciTegic.value.DoubleValue
1.750

@<SCITEGIC>MOL_PROPERTY
Valence
SciTegic.value.DoubleValue
13.789

@<SCITEGIC>MOL_PROPERTY
Coulomb
SciTegic.value.DoubleValue
-8.574

@<SCITEGIC>MOL_PROPERTY
VdW
SciTegic.value.DoubleValue
0.628

@<SCITEGIC>MOL_PROPERTY
VdW6
SciTegic.value.DoubleValue
-3.284

@<SCITEGIC>MOL_PROPERTY
VdW12
SciTegic.value.DoubleValue
3.913

@<SCITEGIC>MOL_PROPERTY
Bond
SciTegic.value.DoubleValue
0.054

@<SCITEGIC>MOL_PROPERTY
Angle
SciTegic.value.DoubleValue
4.033

@<SCITEGIC>MOL_PROPERTY
Pdih
SciTegic.value.DoubleValue
9.702

@<SCITEGIC>MOL_PROPERTY
Idih
SciTegic.value.DoubleValue
0.000

@<SCITEGIC>MOL_PROPERTY
Tether
SciTegic.value.DoubleValue
0.000

@<TRIPOS>MOLECULE
guest-4_confgen4.mol2 : confsearch ligand conformer 558
          16          16           1
SMALL
USER_CHARGES
 
@<TRIPOS>ATOM
       1    C1      19.328760   18.696812   23.590414 C.3        1 MOL1        -0.1689
       2    H1      19.592622   19.685983   23.989343 H          1 MOL1         0.0830
       3    H2      19.075646   18.050632   24.442108 H          1 MOL1         0.0830
       4    C2      20.510721   18.126413   22.776390 C.3        1 MOL1        -0.1689
       5    H3      21.346987   18.839049   22.782238 H          1 MOL1         0.0830
       6    H4      20.875245   17.181299   23.201691 H          1 MOL1         0.0830
       7    C3      19.993048   17.923669   21.336478 C.3        1 MOL1        -0.1765
       8    H5      19.699209   16.875006   21.196531 H          1 MOL1         0.0830
       9    H6      20.755830   18.160367   20.582726 H          1 MOL1         0.0830
      10    C4      18.748747   18.811874   21.203057 C.3        1 MOL1         0.1214
      11    H7      18.044108   18.412135   20.459636 H          1 MOL1         0.0787
      12    C5      18.140887   18.816169   22.612115 C.3        1 MOL1        -0.1765
      13    H8      17.534573   19.712136   22.800872 H          1 MOL1         0.0830
      14    H9      17.486698   17.941052   22.720872 H          1 MOL1         0.0830
      15    O1      19.150010   20.130966   20.862777 O.3        1 MOL1        -0.5512
      16    H10     19.768662   20.400203   21.572667 H          1 MOL1         0.3776
@<TRIPOS>BOND
    1     1     2    1
    2     1     3    1
    3     1     4    1
    4     4     5    1
    5     4     6    1
    6     4     7    1
    7     7     8    1
    8     7     9    1
    9     7    10    1
   10    10    11    1
   11     1    12    1
   12    10    12    1
   13    12    13    1
   14    12    14    1
   15    10    15    1
   16    15    16    1
@<TRIPOS>SUBSTRUCTURE
       1 MOL1            1 RESIDUE      1      MOL     
@<SCITEGIC>MOL_PROPERTY
VConf Rank
SciTegic.value.IntegerValue
558

@<SCITEGIC>MOL_PROPERTY
Conf_Id
SciTegic.value.IntegerValue
20

@<SCITEGIC>MOL_PROPERTY
Delta U+W
SciTegic.value.DoubleValue
-0.483

@<SCITEGIC>MOL_PROPERTY
U+W
SciTegic.value.DoubleValue
2.527

@<SCITEGIC>MOL_PROPERTY
Grad RMS
SciTegic.value.DoubleValue
0.000000

@<SCITEGIC>MOL_PROPERTY
U
SciTegic.value.DoubleValue
4.508

@<SCITEGIC>MOL_PROPERTY
W
SciTegic.value.DoubleValue
-1.981

@<SCITEGIC>MOL_PROPERTY
W(PB)
SciTegic.value.DoubleValue
-3.712

@<SCITEGIC>MOL_PROPERTY
W(SA)
SciTegic.value.DoubleValue
1.732

@<SCITEGIC>MOL_PROPERTY
Valence
SciTegic.value.DoubleValue
14.705

@<SCITEGIC>MOL_PROPERTY
Coulomb
SciTegic.value.DoubleValue
-10.687

@<SCITEGIC>MOL_PROPERTY
VdW
SciTegic.value.DoubleValue
0.490

@<SCITEGIC>MOL_PROPERTY
VdW6
SciTegic.value.DoubleValue
-3.745

@<SCITEGIC>MOL_PROPERTY
VdW12
SciTegic.value.DoubleValue
4.235

@<SCITEGIC>MOL_PROPERTY
Bond
SciTegic.value.DoubleValue
0.068

@<SCITEGIC>MOL_PROPERTY
Angle
SciTegic.value.DoubleValue
3.901

@<SCITEGIC>MOL_PROPERTY
Pdih
SciTegic.value.DoubleValue
10.737

@<SCITEGIC>MOL_PROPERTY
Idih
SciTegic.value.DoubleValue
0.000

@<SCITEGIC>MOL_PROPERTY
Tether
SciTegic.value.DoubleValue
0.000

@<TRIPOS>MOLECULE
guest-4_confgen4.mol2 : confsearch ligand conformer 559
          16          16           1
SMALL
USER_CHARGES
 
@<TRIPOS>ATOM
       1    C1      18.173135   18.874872   23.093048 C.3        1 MOL1        -0.1689
       2    H1      17.914906   17.942728   23.614682 H          1 MOL1         0.0830
       3    H2      17.473435   19.656583   23.418610 H          1 MOL1         0.0830
       4    C2      18.130100   18.644340   21.576232 C.3        1 MOL1        -0.1689
       5    H3      17.290552   18.003324   21.274541 H          1 MOL1         0.0830
       6    H4      18.029613   19.608442   21.058510 H          1 MOL1         0.0830
       7    C3      19.495912   18.015297   21.245445 C.3        1 MOL1        -0.1765
       8    H5      19.813699   18.260705   20.223862 H          1 MOL1         0.0830
       9    H6      19.420390   16.922026   21.321865 H          1 MOL1         0.0830
      10    C4      20.489802   18.557265   22.294317 C.3        1 MOL1         0.1214
      11    H7      21.155063   19.301689   21.833036 H          1 MOL1         0.0787
      12    C5      19.640083   19.240219   23.385822 C.3        1 MOL1        -0.1765
      13    H8      19.938362   18.935442   24.397831 H          1 MOL1         0.0830
      14    H9      19.770563   20.327752   23.312825 H          1 MOL1         0.0830
      15    O1      21.242546   17.488517   22.855604 O.3        1 MOL1        -0.5512
      16    H10     21.751405   17.086335   22.120182 H          1 MOL1         0.3776
@<TRIPOS>BOND
    1     1     2    1
    2     1     3    1
    3     1     4    1
    4     4     5    1
    5     4     6    1
    6     4     7    1
    7     7     8    1
    8     7     9    1
    9     7    10    1
   10    10    11    1
   11     1    12    1
   12    10    12    1
   13    12    13    1
   14    12    14    1
   15    10    15    1
   16    15    16    1
@<TRIPOS>SUBSTRUCTURE
       1 MOL1            1 RESIDUE      1      MOL     
@<SCITEGIC>MOL_PROPERTY
VConf Rank
SciTegic.value.IntegerValue
559

@<SCITEGIC>MOL_PROPERTY
Conf_Id
SciTegic.value.IntegerValue
59

@<SCITEGIC>MOL_PROPERTY
Delta U+W
SciTegic.value.DoubleValue
0.000

@<SCITEGIC>MOL_PROPERTY
U+W
SciTegic.value.DoubleValue
3.010

@<SCITEGIC>MOL_PROPERTY
Grad RMS
SciTegic.value.DoubleValue
0.000000

@<SCITEGIC>MOL_PROPERTY
U
SciTegic.value.DoubleValue
5.843

@<SCITEGIC>MOL_PROPERTY
W
SciTegic.value.DoubleValue
-2.833

@<SCITEGIC>MOL_PROPERTY
W(PB)
SciTegic.value.DoubleValue
-4.568

@<SCITEGIC>MOL_PROPERTY
W(SA)
SciTegic.value.DoubleValue
1.735

@<SCITEGIC>MOL_PROPERTY
Valence
SciTegic.value.DoubleValue
13.789

@<SCITEGIC>MOL_PROPERTY
Coulomb
SciTegic.value.DoubleValue
-8.574

@<SCITEGIC>MOL_PROPERTY
VdW
SciTegic.value.DoubleValue
0.628

@<SCITEGIC>MOL_PROPERTY
VdW6
SciTegic.value.DoubleValue
-3.284

@<SCITEGIC>MOL_PROPERTY
VdW12
SciTegic.value.DoubleValue
3.912

@<SCITEGIC>MOL_PROPERTY
Bond
SciTegic.value.DoubleValue
0.054

@<SCITEGIC>MOL_PROPERTY
Angle
SciTegic.value.DoubleValue
4.034

@<SCITEGIC>MOL_PROPERTY
Pdih
SciTegic.value.DoubleValue
9.702

@<SCITEGIC>MOL_PROPERTY
Idih
SciTegic.value.DoubleValue
0.000

@<SCITEGIC>MOL_PROPERTY
Tether
SciTegic.value.DoubleValue
0.000

@<TRIPOS>MOLECULE
guest-4_confgen4.mol2 : confsearch ligand conformer 560
          16          16           1
SMALL
USER_CHARGES
 
@<TRIPOS>ATOM
       1    C1      18.231480   19.364097   22.366621 C.3        1 MOL1        -0.1689
       2    H1      17.657594   20.081873   21.764781 H          1 MOL1         0.0830
       3    H2      17.616896   19.069764   23.228755 H          1 MOL1         0.0830
       4    C2      19.563794   19.947064   22.857352 C.3        1 MOL1        -0.1689
       5    H3      20.015065   20.555508   22.061218 H          1 MOL1         0.0830
       6    H4      19.442566   20.579690   23.747144 H          1 MOL1         0.0830
       7    C3      20.446927   18.715062   23.128136 C.3        1 MOL1        -0.1765
       8    H5      20.315069   18.388594   24.167903 H          1 MOL1         0.0830
       9    H6      21.511645   18.940722   22.981601 H          1 MOL1         0.0830
      10    C4      19.949157   17.601071   22.184183 C.3        1 MOL1         0.1214
      11    H7      19.759022   16.688460   22.767715 H          1 MOL1         0.0787
      12    C5      18.633208   18.114179   21.562303 C.3        1 MOL1        -0.1765
      13    H8      18.792168   18.393714   20.511887 H          1 MOL1         0.0830
      14    H9      17.847396   17.348375   21.592143 H          1 MOL1         0.0830
      15    O1      20.910847   17.355724   21.164941 O.3        1 MOL1        -0.5512
      16    H10     20.539782   16.652016   20.591675 H          1 MOL1         0.3776
@<TRIPOS>BOND
    1     1     2    1
    2     1     3    1
    3     1     4    1
    4     4     5    1
    5     4     6    1
    6     4     7    1
    7     7     8    1
    8     7     9    1
    9     7    10    1
   10    10    11    1
   11     1    12    1
   12    10    12    1
   13    12    13    1
   14    12    14    1
   15    10    15    1
   16    15    16    1
@<TRIPOS>SUBSTRUCTURE
       1 MOL1            1 RESIDUE      1      MOL     
@<SCITEGIC>MOL_PROPERTY
VConf Rank
SciTegic.value.IntegerValue
560

@<SCITEGIC>MOL_PROPERTY
Conf_Id
SciTegic.value.IntegerValue
33

@<SCITEGIC>MOL_PROPERTY
Delta U+W
SciTegic.value.DoubleValue
0.015

@<SCITEGIC>MOL_PROPERTY
U+W
SciTegic.value.DoubleValue
3.025

@<SCITEGIC>MOL_PROPERTY
Grad RMS
SciTegic.value.DoubleValue
0.000000

@<SCITEGIC>MOL_PROPERTY
U
SciTegic.value.DoubleValue
5.843

@<SCITEGIC>MOL_PROPERTY
W
SciTegic.value.DoubleValue
-2.819

@<SCITEGIC>MOL_PROPERTY
W(PB)
SciTegic.value.DoubleValue
-4.568

@<SCITEGIC>MOL_PROPERTY
W(SA)
SciTegic.value.DoubleValue
1.750

@<SCITEGIC>MOL_PROPERTY
Valence
SciTegic.value.DoubleValue
13.789

@<SCITEGIC>MOL_PROPERTY
Coulomb
SciTegic.value.DoubleValue
-8.574

@<SCITEGIC>MOL_PROPERTY
VdW
SciTegic.value.DoubleValue
0.628

@<SCITEGIC>MOL_PROPERTY
VdW6
SciTegic.value.DoubleValue
-3.284

@<SCITEGIC>MOL_PROPERTY
VdW12
SciTegic.value.DoubleValue
3.913

@<SCITEGIC>MOL_PROPERTY
Bond
SciTegic.value.DoubleValue
0.054

@<SCITEGIC>MOL_PROPERTY
Angle
SciTegic.value.DoubleValue
4.033

@<SCITEGIC>MOL_PROPERTY
Pdih
SciTegic.value.DoubleValue
9.702

@<SCITEGIC>MOL_PROPERTY
Idih
SciTegic.value.DoubleValue
0.000

@<SCITEGIC>MOL_PROPERTY
Tether
SciTegic.value.DoubleValue
0.000

@<TRIPOS>MOLECULE
guest-4_confgen4.mol2 : confsearch ligand conformer 561
          16          16           1
SMALL
USER_CHARGES
 
@<TRIPOS>ATOM
       1    C1      18.400983   19.165708   22.980188 C.3        1 MOL1        -0.1689
       2    H1      18.047989   20.132420   22.595362 H          1 MOL1         0.0830
       3    H2      17.807729   18.925753   23.873199 H          1 MOL1         0.0830
       4    C2      19.908451   19.248614   23.305285 C.3        1 MOL1        -0.1689
       5    H3      20.284790   20.255739   23.078801 H          1 MOL1         0.0830
       6    H4      20.103861   19.051017   24.368192 H          1 MOL1         0.0830
       7    C3      20.607506   18.204208   22.409197 C.3        1 MOL1        -0.1765
       8    H5      20.776478   17.283182   22.982592 H          1 MOL1         0.0830
       9    H6      21.582410   18.554404   22.044599 H          1 MOL1         0.0830
      10    C4      19.631393   17.905770   21.263278 C.3        1 MOL1         0.1214
      11    H7      19.773352   16.890851   20.864821 H          1 MOL1         0.0787
      12    C5      18.245582   18.073456   21.900747 C.3        1 MOL1        -0.1765
      13    H8      17.474991   18.326537   21.160380 H          1 MOL1         0.0830
      14    H9      17.954691   17.127138   22.375601 H          1 MOL1         0.0830
      15    O1      19.797334   18.878734   20.242195 O.3        1 MOL1        -0.5512
      16    H10     19.654212   19.740233   20.685477 H          1 MOL1         0.3776
@<TRIPOS>BOND
    1     1     2    1
    2     1     3    1
    3     1     4    1
    4     4     5    1
    5     4     6    1
    6     4     7    1
    7     7     8    1
    8     7     9    1
    9     7    10    1
   10    10    11    1
   11     1    12    1
   12    10    12    1
   13    12    13    1
   14    12    14    1
   15    10    15    1
   16    15    16    1
@<TRIPOS>SUBSTRUCTURE
       1 MOL1            1 RESIDUE      1      MOL     
@<SCITEGIC>MOL_PROPERTY
VConf Rank
SciTegic.value.IntegerValue
561

@<SCITEGIC>MOL_PROPERTY
Conf_Id
SciTegic.value.IntegerValue
20

@<SCITEGIC>MOL_PROPERTY
Delta U+W
SciTegic.value.DoubleValue
-0.483

@<SCITEGIC>MOL_PROPERTY
U+W
SciTegic.value.DoubleValue
2.527

@<SCITEGIC>MOL_PROPERTY
Grad RMS
SciTegic.value.DoubleValue
0.000000

@<SCITEGIC>MOL_PROPERTY
U
SciTegic.value.DoubleValue
4.508

@<SCITEGIC>MOL_PROPERTY
W
SciTegic.value.DoubleValue
-1.981

@<SCITEGIC>MOL_PROPERTY
W(PB)
SciTegic.value.DoubleValue
-3.712

@<SCITEGIC>MOL_PROPERTY
W(SA)
SciTegic.value.DoubleValue
1.732

@<SCITEGIC>MOL_PROPERTY
Valence
SciTegic.value.DoubleValue
14.705

@<SCITEGIC>MOL_PROPERTY
Coulomb
SciTegic.value.DoubleValue
-10.687

@<SCITEGIC>MOL_PROPERTY
VdW
SciTegic.value.DoubleValue
0.490

@<SCITEGIC>MOL_PROPERTY
VdW6
SciTegic.value.DoubleValue
-3.745

@<SCITEGIC>MOL_PROPERTY
VdW12
SciTegic.value.DoubleValue
4.235

@<SCITEGIC>MOL_PROPERTY
Bond
SciTegic.value.DoubleValue
0.068

@<SCITEGIC>MOL_PROPERTY
Angle
SciTegic.value.DoubleValue
3.901

@<SCITEGIC>MOL_PROPERTY
Pdih
SciTegic.value.DoubleValue
10.737

@<SCITEGIC>MOL_PROPERTY
Idih
SciTegic.value.DoubleValue
0.000

@<SCITEGIC>MOL_PROPERTY
Tether
SciTegic.value.DoubleValue
0.000

@<TRIPOS>MOLECULE
guest-4_confgen4.mol2 : confsearch ligand conformer 562
          16          16           1
SMALL
USER_CHARGES
 
@<TRIPOS>ATOM
       1    C1      19.709250   19.955172   22.479660 C.3        1 MOL1        -0.1689
       2    H1      19.056328   20.496353   21.780737 H          1 MOL1         0.0830
       3    H2      20.300644   20.692583   23.039233 H          1 MOL1         0.0830
       4    C2      20.588871   18.967013   21.701497 C.3        1 MOL1        -0.1689
       5    H3      20.946911   19.385148   20.750850 H          1 MOL1         0.0830
       6    H4      21.463694   18.694017   22.307949 H          1 MOL1         0.0830
       7    C3      19.690808   17.733130   21.497604 C.3        1 MOL1        -0.1765
       8    H5      20.283483   16.811208   21.437245 H          1 MOL1         0.0830
       9    H6      19.135596   17.839602   20.555698 H          1 MOL1         0.0830
      10    C4      18.715156   17.703046   22.692961 C.3        1 MOL1         0.1214
      11    H7      18.998609   16.901010   23.390033 H          1 MOL1         0.0787
      12    C5      18.853833   19.066420   23.401349 C.3        1 MOL1        -0.1765
      13    H8      17.879632   19.525832   23.615582 H          1 MOL1         0.0830
      14    H9      19.372050   18.921562   24.358192 H          1 MOL1         0.0830
      15    O1      17.380999   17.522438   22.233290 O.3        1 MOL1        -0.5512
      16    H10     17.353703   16.651002   21.784528 H          1 MOL1         0.3776
@<TRIPOS>BOND
    1     1     2    1
    2     1     3    1
    3     1     4    1
    4     4     5    1
    5     4     6    1
    6     4     7    1
    7     7     8    1
    8     7     9    1
    9     7    10    1
   10    10    11    1
   11     1    12    1
   12    10    12    1
   13    12    13    1
   14    12    14    1
   15    10    15    1
   16    15    16    1
@<TRIPOS>SUBSTRUCTURE
       1 MOL1            1 RESIDUE      1      MOL     
@<SCITEGIC>MOL_PROPERTY
VConf Rank
SciTegic.value.IntegerValue
562

@<SCITEGIC>MOL_PROPERTY
Conf_Id
SciTegic.value.IntegerValue
59

@<SCITEGIC>MOL_PROPERTY
Delta U+W
SciTegic.value.DoubleValue
0.000

@<SCITEGIC>MOL_PROPERTY
U+W
SciTegic.value.DoubleValue
3.010

@<SCITEGIC>MOL_PROPERTY
Grad RMS
SciTegic.value.DoubleValue
0.000000

@<SCITEGIC>MOL_PROPERTY
U
SciTegic.value.DoubleValue
5.843

@<SCITEGIC>MOL_PROPERTY
W
SciTegic.value.DoubleValue
-2.833

@<SCITEGIC>MOL_PROPERTY
W(PB)
SciTegic.value.DoubleValue
-4.568

@<SCITEGIC>MOL_PROPERTY
W(SA)
SciTegic.value.DoubleValue
1.735

@<SCITEGIC>MOL_PROPERTY
Valence
SciTegic.value.DoubleValue
13.789

@<SCITEGIC>MOL_PROPERTY
Coulomb
SciTegic.value.DoubleValue
-8.574

@<SCITEGIC>MOL_PROPERTY
VdW
SciTegic.value.DoubleValue
0.628

@<SCITEGIC>MOL_PROPERTY
VdW6
SciTegic.value.DoubleValue
-3.284

@<SCITEGIC>MOL_PROPERTY
VdW12
SciTegic.value.DoubleValue
3.912

@<SCITEGIC>MOL_PROPERTY
Bond
SciTegic.value.DoubleValue
0.054

@<SCITEGIC>MOL_PROPERTY
Angle
SciTegic.value.DoubleValue
4.034

@<SCITEGIC>MOL_PROPERTY
Pdih
SciTegic.value.DoubleValue
9.702

@<SCITEGIC>MOL_PROPERTY
Idih
SciTegic.value.DoubleValue
0.000

@<SCITEGIC>MOL_PROPERTY
Tether
SciTegic.value.DoubleValue
0.000

@<TRIPOS>MOLECULE
guest-4_confgen4.mol2 : confsearch ligand conformer 563
          16          16           1
SMALL
USER_CHARGES
 
@<TRIPOS>ATOM
       1    C1      20.428779   19.272000   21.473095 C.3        1 MOL1        -0.1689
       2    H1      20.626425   19.472813   20.411319 H          1 MOL1         0.0830
       3    H2      21.149284   19.846896   22.071416 H          1 MOL1         0.0830
       4    C2      20.545668   17.780759   21.816990 C.3        1 MOL1        -0.1689
       5    H3      20.113429   17.180420   21.004314 H          1 MOL1         0.0830
       6    H4      21.587436   17.464089   21.962188 H          1 MOL1         0.0830
       7    C3      19.697051   17.611465   23.090672 C.3        1 MOL1        -0.1765
       8    H5      20.326466   17.768302   23.976292 H          1 MOL1         0.0830
       9    H6      19.268709   16.602636   23.160005 H          1 MOL1         0.0830
      10    C4      18.611548   18.706622   23.044712 C.3        1 MOL1         0.1214
      11    H7      18.613830   19.260517   23.994825 H          1 MOL1         0.0787
      12    C5      18.993286   19.648465   21.883272 C.3        1 MOL1        -0.1765
      13    H8      18.319099   19.493207   21.029957 H          1 MOL1         0.0830
      14    H9      18.924416   20.703066   22.179788 H          1 MOL1         0.0830
      15    O1      17.336257   18.123490   22.804951 O.3        1 MOL1        -0.5512
      16    H10     16.690934   18.861164   22.774558 H          1 MOL1         0.3776
@<TRIPOS>BOND
    1     1     2    1
    2     1     3    1
    3     1     4    1
    4     4     5    1
    5     4     6    1
    6     4     7    1
    7     7     8    1
    8     7     9    1
    9     7    10    1
   10    10    11    1
   11     1    12    1
   12    10    12    1
   13    12    13    1
   14    12    14    1
   15    10    15    1
   16    15    16    1
@<TRIPOS>SUBSTRUCTURE
       1 MOL1            1 RESIDUE      1      MOL     
@<SCITEGIC>MOL_PROPERTY
VConf Rank
SciTegic.value.IntegerValue
563

@<SCITEGIC>MOL_PROPERTY
Conf_Id
SciTegic.value.IntegerValue
33

@<SCITEGIC>MOL_PROPERTY
Delta U+W
SciTegic.value.DoubleValue
0.015

@<SCITEGIC>MOL_PROPERTY
U+W
SciTegic.value.DoubleValue
3.025

@<SCITEGIC>MOL_PROPERTY
Grad RMS
SciTegic.value.DoubleValue
0.000000

@<SCITEGIC>MOL_PROPERTY
U
SciTegic.value.DoubleValue
5.843

@<SCITEGIC>MOL_PROPERTY
W
SciTegic.value.DoubleValue
-2.819

@<SCITEGIC>MOL_PROPERTY
W(PB)
SciTegic.value.DoubleValue
-4.568

@<SCITEGIC>MOL_PROPERTY
W(SA)
SciTegic.value.DoubleValue
1.750

@<SCITEGIC>MOL_PROPERTY
Valence
SciTegic.value.DoubleValue
13.789

@<SCITEGIC>MOL_PROPERTY
Coulomb
SciTegic.value.DoubleValue
-8.574

@<SCITEGIC>MOL_PROPERTY
VdW
SciTegic.value.DoubleValue
0.628

@<SCITEGIC>MOL_PROPERTY
VdW6
SciTegic.value.DoubleValue
-3.284

@<SCITEGIC>MOL_PROPERTY
VdW12
SciTegic.value.DoubleValue
3.913

@<SCITEGIC>MOL_PROPERTY
Bond
SciTegic.value.DoubleValue
0.054

@<SCITEGIC>MOL_PROPERTY
Angle
SciTegic.value.DoubleValue
4.033

@<SCITEGIC>MOL_PROPERTY
Pdih
SciTegic.value.DoubleValue
9.702

@<SCITEGIC>MOL_PROPERTY
Idih
SciTegic.value.DoubleValue
0.000

@<SCITEGIC>MOL_PROPERTY
Tether
SciTegic.value.DoubleValue
0.000

@<TRIPOS>MOLECULE
guest-4_confgen4.mol2 : confsearch ligand conformer 564
          16          16           1
SMALL
USER_CHARGES
 
@<TRIPOS>ATOM
       1    C1      19.883282   17.457030   22.705329 C.3        1 MOL1        -0.1689
       2    H1      19.591976   17.204639   23.734244 H          1 MOL1         0.0830
       3    H2      20.516828   16.642213   22.328912 H          1 MOL1         0.0830
       4    C2      20.627749   18.809974   22.687108 C.3        1 MOL1        -0.1689
       5    H3      20.697674   19.211852   23.707320 H          1 MOL1         0.0830
       6    H4      21.650423   18.703054   22.300191 H          1 MOL1         0.0830
       7    C3      19.794053   19.756313   21.797260 C.3        1 MOL1        -0.1765
       8    H5      20.219675   19.778096   20.785335 H          1 MOL1         0.0830
       9    H6      19.785612   20.786192   22.178422 H          1 MOL1         0.0830
      10    C4      18.386286   19.148841   21.732751 C.3        1 MOL1         0.1214
      11    H7      17.870895   19.420113   20.800139 H          1 MOL1         0.0787
      12    C5      18.628326   17.636260   21.824808 C.3        1 MOL1        -0.1765
      13    H8      17.758294   17.099406   22.225851 H          1 MOL1         0.0830
      14    H9      18.827440   17.245140   20.818328 H          1 MOL1         0.0830
      15    O1      17.641499   19.573075   22.865060 O.3        1 MOL1        -0.5512
      16    H10     18.171741   19.291565   23.638854 H          1 MOL1         0.3776
@<TRIPOS>BOND
    1     1     2    1
    2     1     3    1
    3     1     4    1
    4     4     5    1
    5     4     6    1
    6     4     7    1
    7     7     8    1
    8     7     9    1
    9     7    10    1
   10    10    11    1
   11     1    12    1
   12    10    12    1
   13    12    13    1
   14    12    14    1
   15    10    15    1
   16    15    16    1
@<TRIPOS>SUBSTRUCTURE
       1 MOL1            1 RESIDUE      1      MOL     
@<SCITEGIC>MOL_PROPERTY
VConf Rank
SciTegic.value.IntegerValue
564

@<SCITEGIC>MOL_PROPERTY
Conf_Id
SciTegic.value.IntegerValue
20

@<SCITEGIC>MOL_PROPERTY
Delta U+W
SciTegic.value.DoubleValue
-0.483

@<SCITEGIC>MOL_PROPERTY
U+W
SciTegic.value.DoubleValue
2.527

@<SCITEGIC>MOL_PROPERTY
Grad RMS
SciTegic.value.DoubleValue
0.000000

@<SCITEGIC>MOL_PROPERTY
U
SciTegic.value.DoubleValue
4.508

@<SCITEGIC>MOL_PROPERTY
W
SciTegic.value.DoubleValue
-1.981

@<SCITEGIC>MOL_PROPERTY
W(PB)
SciTegic.value.DoubleValue
-3.712

@<SCITEGIC>MOL_PROPERTY
W(SA)
SciTegic.value.DoubleValue
1.732

@<SCITEGIC>MOL_PROPERTY
Valence
SciTegic.value.DoubleValue
14.705

@<SCITEGIC>MOL_PROPERTY
Coulomb
SciTegic.value.DoubleValue
-10.687

@<SCITEGIC>MOL_PROPERTY
VdW
SciTegic.value.DoubleValue
0.490

@<SCITEGIC>MOL_PROPERTY
VdW6
SciTegic.value.DoubleValue
-3.745

@<SCITEGIC>MOL_PROPERTY
VdW12
SciTegic.value.DoubleValue
4.235

@<SCITEGIC>MOL_PROPERTY
Bond
SciTegic.value.DoubleValue
0.068

@<SCITEGIC>MOL_PROPERTY
Angle
SciTegic.value.DoubleValue
3.901

@<SCITEGIC>MOL_PROPERTY
Pdih
SciTegic.value.DoubleValue
10.737

@<SCITEGIC>MOL_PROPERTY
Idih
SciTegic.value.DoubleValue
0.000

@<SCITEGIC>MOL_PROPERTY
Tether
SciTegic.value.DoubleValue
0.000

@<TRIPOS>MOLECULE
guest-4_confgen4.mol2 : confsearch ligand conformer 565
          16          16           1
SMALL
USER_CHARGES
 
@<TRIPOS>ATOM
       1    C1      20.579077   19.241848   21.926954 C.3        1 MOL1        -0.1689
       2    H1      20.764877   19.966248   22.732187 H          1 MOL1         0.0830
       3    H2      21.409976   19.302528   21.211015 H          1 MOL1         0.0830
       4    C2      19.220871   19.534781   21.274886 C.3        1 MOL1        -0.1689
       5    H3      19.033445   20.611631   21.165224 H          1 MOL1         0.0830
       6    H4      19.183315   19.076109   20.276970 H          1 MOL1         0.0830
       7    C3      18.196580   18.853049   22.200427 C.3        1 MOL1        -0.1765
       8    H5      17.304888   18.533721   21.645664 H          1 MOL1         0.0830
       9    H6      17.876045   19.564282   22.973854 H          1 MOL1         0.0830
      10    C4      18.923367   17.653837   22.844905 C.3        1 MOL1         0.1214
      11    H7      18.567067   16.713839   22.398842 H          1 MOL1         0.0787
      12    C5      20.422369   17.832521   22.527263 C.3        1 MOL1        -0.1765
      13    H8      21.055345   17.698405   23.414605 H          1 MOL1         0.0830
      14    H9      20.723286   17.080763   21.786055 H          1 MOL1         0.0830
      15    O1      18.716773   17.653297   24.252459 O.3        1 MOL1        -0.5512
      16    H10     17.752284   17.548674   24.395101 H          1 MOL1         0.3776
@<TRIPOS>BOND
    1     1     2    1
    2     1     3    1
    3     1     4    1
    4     4     5    1
    5     4     6    1
    6     4     7    1
    7     7     8    1
    8     7     9    1
    9     7    10    1
   10    10    11    1
   11     1    12    1
   12    10    12    1
   13    12    13    1
   14    12    14    1
   15    10    15    1
   16    15    16    1
@<TRIPOS>SUBSTRUCTURE
       1 MOL1            1 RESIDUE      1      MOL     
@<SCITEGIC>MOL_PROPERTY
VConf Rank
SciTegic.value.IntegerValue
565

@<SCITEGIC>MOL_PROPERTY
Conf_Id
SciTegic.value.IntegerValue
59

@<SCITEGIC>MOL_PROPERTY
Delta U+W
SciTegic.value.DoubleValue
0.000

@<SCITEGIC>MOL_PROPERTY
U+W
SciTegic.value.DoubleValue
3.010

@<SCITEGIC>MOL_PROPERTY
Grad RMS
SciTegic.value.DoubleValue
0.000000

@<SCITEGIC>MOL_PROPERTY
U
SciTegic.value.DoubleValue
5.843

@<SCITEGIC>MOL_PROPERTY
W
SciTegic.value.DoubleValue
-2.833

@<SCITEGIC>MOL_PROPERTY
W(PB)
SciTegic.value.DoubleValue
-4.568

@<SCITEGIC>MOL_PROPERTY
W(SA)
SciTegic.value.DoubleValue
1.735

@<SCITEGIC>MOL_PROPERTY
Valence
SciTegic.value.DoubleValue
13.789

@<SCITEGIC>MOL_PROPERTY
Coulomb
SciTegic.value.DoubleValue
-8.574

@<SCITEGIC>MOL_PROPERTY
VdW
SciTegic.value.DoubleValue
0.628

@<SCITEGIC>MOL_PROPERTY
VdW6
SciTegic.value.DoubleValue
-3.284

@<SCITEGIC>MOL_PROPERTY
VdW12
SciTegic.value.DoubleValue
3.912

@<SCITEGIC>MOL_PROPERTY
Bond
SciTegic.value.DoubleValue
0.054

@<SCITEGIC>MOL_PROPERTY
Angle
SciTegic.value.DoubleValue
4.034

@<SCITEGIC>MOL_PROPERTY
Pdih
SciTegic.value.DoubleValue
9.702

@<SCITEGIC>MOL_PROPERTY
Idih
SciTegic.value.DoubleValue
0.000

@<SCITEGIC>MOL_PROPERTY
Tether
SciTegic.value.DoubleValue
0.000

@<TRIPOS>MOLECULE
guest-4_confgen4.mol2 : confsearch ligand conformer 566
          16          16           1
SMALL
USER_CHARGES
 
@<TRIPOS>ATOM
       1    C1      18.517837   19.368209   21.507325 C.3        1 MOL1        -0.1689
       2    H1      18.500319   19.981875   20.596355 H          1 MOL1         0.0830
       3    H2      17.481286   19.215869   21.838952 H          1 MOL1         0.0830
       4    C2      19.330129   20.019820   22.634849 C.3        1 MOL1        -0.1689
       5    H3      20.228843   20.493026   22.215245 H          1 MOL1         0.0830
       6    H4      18.758042   20.786252   23.175166 H          1 MOL1         0.0830
       7    C3      19.741448   18.845295   23.541702 C.3        1 MOL1        -0.1765
       8    H5      18.975234   18.688770   24.312092 H          1 MOL1         0.0830
       9    H6      20.693129   19.043095   24.052778 H          1 MOL1         0.0830
      10    C4      19.810017   17.595974   22.639320 C.3        1 MOL1         0.1214
      11    H7      19.216153   16.788225   23.091412 H          1 MOL1         0.0787
      12    C5      19.198530   18.005540   21.282826 C.3        1 MOL1        -0.1765
      13    H8      19.987948   18.113994   20.526625 H          1 MOL1         0.0830
      14    H9      18.484289   17.255476   20.919357 H          1 MOL1         0.0830
      15    O1      21.162376   17.189967   22.465595 O.3        1 MOL1        -0.5512
      16    H10     21.147037   16.404525   21.878759 H          1 MOL1         0.3776
@<TRIPOS>BOND
    1     1     2    1
    2     1     3    1
    3     1     4    1
    4     4     5    1
    5     4     6    1
    6     4     7    1
    7     7     8    1
    8     7     9    1
    9     7    10    1
   10    10    11    1
   11     1    12    1
   12    10    12    1
   13    12    13    1
   14    12    14    1
   15    10    15    1
   16    15    16    1
@<TRIPOS>SUBSTRUCTURE
       1 MOL1            1 RESIDUE      1      MOL     
@<SCITEGIC>MOL_PROPERTY
VConf Rank
SciTegic.value.IntegerValue
566

@<SCITEGIC>MOL_PROPERTY
Conf_Id
SciTegic.value.IntegerValue
33

@<SCITEGIC>MOL_PROPERTY
Delta U+W
SciTegic.value.DoubleValue
0.015

@<SCITEGIC>MOL_PROPERTY
U+W
SciTegic.value.DoubleValue
3.025

@<SCITEGIC>MOL_PROPERTY
Grad RMS
SciTegic.value.DoubleValue
0.000000

@<SCITEGIC>MOL_PROPERTY
U
SciTegic.value.DoubleValue
5.843

@<SCITEGIC>MOL_PROPERTY
W
SciTegic.value.DoubleValue
-2.819

@<SCITEGIC>MOL_PROPERTY
W(PB)
SciTegic.value.DoubleValue
-4.568

@<SCITEGIC>MOL_PROPERTY
W(SA)
SciTegic.value.DoubleValue
1.750

@<SCITEGIC>MOL_PROPERTY
Valence
SciTegic.value.DoubleValue
13.789

@<SCITEGIC>MOL_PROPERTY
Coulomb
SciTegic.value.DoubleValue
-8.574

@<SCITEGIC>MOL_PROPERTY
VdW
SciTegic.value.DoubleValue
0.628

@<SCITEGIC>MOL_PROPERTY
VdW6
SciTegic.value.DoubleValue
-3.284

@<SCITEGIC>MOL_PROPERTY
VdW12
SciTegic.value.DoubleValue
3.913

@<SCITEGIC>MOL_PROPERTY
Bond
SciTegic.value.DoubleValue
0.054

@<SCITEGIC>MOL_PROPERTY
Angle
SciTegic.value.DoubleValue
4.033

@<SCITEGIC>MOL_PROPERTY
Pdih
SciTegic.value.DoubleValue
9.702

@<SCITEGIC>MOL_PROPERTY
Idih
SciTegic.value.DoubleValue
0.000

@<SCITEGIC>MOL_PROPERTY
Tether
SciTegic.value.DoubleValue
0.000

@<TRIPOS>MOLECULE
guest-4_confgen4.mol2 : confsearch ligand conformer 567
          16          16           1
SMALL
USER_CHARGES
 
@<TRIPOS>ATOM
       1    C1      19.306735   17.426941   22.874282 C.3        1 MOL1        -0.1689
       2    H1      18.953555   17.478872   23.913413 H          1 MOL1         0.0830
       3    H2      19.487562   16.369777   22.636159 H          1 MOL1         0.0830
       4    C2      20.588631   18.272839   22.712343 C.3        1 MOL1        -0.1689
       5    H3      20.856443   18.733295   23.673323 H          1 MOL1         0.0830
       6    H4      21.439807   17.658320   22.388515 H          1 MOL1         0.0830
       7    C3      20.264064   19.364229   21.670249 C.3        1 MOL1        -0.1765
       8    H5      20.631033   19.050543   20.684067 H          1 MOL1         0.0830
       9    H6      20.737257   20.325122   21.912694 H          1 MOL1         0.0830
      10    C4      18.733528   19.465479   21.623312 C.3        1 MOL1         0.1214
      11    H7      18.380895   19.812245   20.641280 H          1 MOL1         0.0787
      12    C5      18.256075   18.038191   21.923049 C.3        1 MOL1        -0.1765
      13    H8      17.245243   18.019118   22.351838 H          1 MOL1         0.0830
      14    H9      18.232439   17.466013   20.986205 H          1 MOL1         0.0830
      15    O1      18.290333   20.333508   22.656225 O.3        1 MOL1        -0.5512
      16    H10     18.648153   19.949270   23.482959 H          1 MOL1         0.3776
@<TRIPOS>BOND
    1     1     2    1
    2     1     3    1
    3     1     4    1
    4     4     5    1
    5     4     6    1
    6     4     7    1
    7     7     8    1
    8     7     9    1
    9     7    10    1
   10    10    11    1
   11     1    12    1
   12    10    12    1
   13    12    13    1
   14    12    14    1
   15    10    15    1
   16    15    16    1
@<TRIPOS>SUBSTRUCTURE
       1 MOL1            1 RESIDUE      1      MOL     
@<SCITEGIC>MOL_PROPERTY
VConf Rank
SciTegic.value.IntegerValue
567

@<SCITEGIC>MOL_PROPERTY
Conf_Id
SciTegic.value.IntegerValue
20

@<SCITEGIC>MOL_PROPERTY
Delta U+W
SciTegic.value.DoubleValue
-0.483

@<SCITEGIC>MOL_PROPERTY
U+W
SciTegic.value.DoubleValue
2.527

@<SCITEGIC>MOL_PROPERTY
Grad RMS
SciTegic.value.DoubleValue
0.000000

@<SCITEGIC>MOL_PROPERTY
U
SciTegic.value.DoubleValue
4.508

@<SCITEGIC>MOL_PROPERTY
W
SciTegic.value.DoubleValue
-1.981

@<SCITEGIC>MOL_PROPERTY
W(PB)
SciTegic.value.DoubleValue
-3.712

@<SCITEGIC>MOL_PROPERTY
W(SA)
SciTegic.value.DoubleValue
1.732

@<SCITEGIC>MOL_PROPERTY
Valence
SciTegic.value.DoubleValue
14.705

@<SCITEGIC>MOL_PROPERTY
Coulomb
SciTegic.value.DoubleValue
-10.687

@<SCITEGIC>MOL_PROPERTY
VdW
SciTegic.value.DoubleValue
0.490

@<SCITEGIC>MOL_PROPERTY
VdW6
SciTegic.value.DoubleValue
-3.745

@<SCITEGIC>MOL_PROPERTY
VdW12
SciTegic.value.DoubleValue
4.235

@<SCITEGIC>MOL_PROPERTY
Bond
SciTegic.value.DoubleValue
0.068

@<SCITEGIC>MOL_PROPERTY
Angle
SciTegic.value.DoubleValue
3.901

@<SCITEGIC>MOL_PROPERTY
Pdih
SciTegic.value.DoubleValue
10.737

@<SCITEGIC>MOL_PROPERTY
Idih
SciTegic.value.DoubleValue
0.000

@<SCITEGIC>MOL_PROPERTY
Tether
SciTegic.value.DoubleValue
0.000

@<TRIPOS>MOLECULE
guest-4_confgen4.mol2 : confsearch ligand conformer 568
          16          16           1
SMALL
USER_CHARGES
 
@<TRIPOS>ATOM
       1    C1      19.810134   18.935859   23.642170 C.3        1 MOL1        -0.1689
       2    H1      18.901498   18.944335   24.260220 H          1 MOL1         0.0830
       3    H2      20.668816   19.159659   24.289644 H          1 MOL1         0.0830
       4    C2      19.661705   19.945337   22.495587 C.3        1 MOL1        -0.1689
       5    H3      19.165104   20.871433   22.815730 H          1 MOL1         0.0830
       6    H4      20.653980   20.205986   22.101790 H          1 MOL1         0.0830
       7    C3      18.857112   19.190032   21.421947 C.3        1 MOL1        -0.1765
       8    H5      19.102562   19.545343   20.412812 H          1 MOL1         0.0830
       9    H6      17.784101   19.357869   21.587068 H          1 MOL1         0.0830
      10    C4      19.197345   17.694743   21.595243 C.3        1 MOL1         0.1214
      11    H7      19.858287   17.362384   20.781479 H          1 MOL1         0.0787
      12    C5      19.943375   17.571952   22.939934 C.3        1 MOL1        -0.1765
      13    H8      19.549985   16.756860   23.561940 H          1 MOL1         0.0830
      14    H9      21.002544   17.360503   22.743644 H          1 MOL1         0.0830
      15    O1      18.004557   16.919918   21.623379 O.3        1 MOL1        -0.5512
      16    H10     17.568461   17.043319   20.753824 H          1 MOL1         0.3776
@<TRIPOS>BOND
    1     1     2    1
    2     1     3    1
    3     1     4    1
    4     4     5    1
    5     4     6    1
    6     4     7    1
    7     7     8    1
    8     7     9    1
    9     7    10    1
   10    10    11    1
   11     1    12    1
   12    10    12    1
   13    12    13    1
   14    12    14    1
   15    10    15    1
   16    15    16    1
@<TRIPOS>SUBSTRUCTURE
       1 MOL1            1 RESIDUE      1      MOL     
@<SCITEGIC>MOL_PROPERTY
VConf Rank
SciTegic.value.IntegerValue
568

@<SCITEGIC>MOL_PROPERTY
Conf_Id
SciTegic.value.IntegerValue
59

@<SCITEGIC>MOL_PROPERTY
Delta U+W
SciTegic.value.DoubleValue
0.000

@<SCITEGIC>MOL_PROPERTY
U+W
SciTegic.value.DoubleValue
3.010

@<SCITEGIC>MOL_PROPERTY
Grad RMS
SciTegic.value.DoubleValue
0.000000

@<SCITEGIC>MOL_PROPERTY
U
SciTegic.value.DoubleValue
5.843

@<SCITEGIC>MOL_PROPERTY
W
SciTegic.value.DoubleValue
-2.833

@<SCITEGIC>MOL_PROPERTY
W(PB)
SciTegic.value.DoubleValue
-4.568

@<SCITEGIC>MOL_PROPERTY
W(SA)
SciTegic.value.DoubleValue
1.735

@<SCITEGIC>MOL_PROPERTY
Valence
SciTegic.value.DoubleValue
13.789

@<SCITEGIC>MOL_PROPERTY
Coulomb
SciTegic.value.DoubleValue
-8.574

@<SCITEGIC>MOL_PROPERTY
VdW
SciTegic.value.DoubleValue
0.628

@<SCITEGIC>MOL_PROPERTY
VdW6
SciTegic.value.DoubleValue
-3.284

@<SCITEGIC>MOL_PROPERTY
VdW12
SciTegic.value.DoubleValue
3.912

@<SCITEGIC>MOL_PROPERTY
Bond
SciTegic.value.DoubleValue
0.054

@<SCITEGIC>MOL_PROPERTY
Angle
SciTegic.value.DoubleValue
4.034

@<SCITEGIC>MOL_PROPERTY
Pdih
SciTegic.value.DoubleValue
9.702

@<SCITEGIC>MOL_PROPERTY
Idih
SciTegic.value.DoubleValue
0.000

@<SCITEGIC>MOL_PROPERTY
Tether
SciTegic.value.DoubleValue
0.000

@<TRIPOS>MOLECULE
guest-4_confgen4.mol2 : confsearch ligand conformer 569
          16          16           1
SMALL
USER_CHARGES
 
@<TRIPOS>ATOM
       1    C1      19.930004   17.264820   22.421046 C.3        1 MOL1        -0.1689
       2    H1      20.805730   16.661873   22.144789 H          1 MOL1         0.0830
       3    H2      19.292829   16.662032   23.083070 H          1 MOL1         0.0830
       4    C2      19.121701   17.715743   21.196693 C.3        1 MOL1        -0.1689
       5    H3      19.807787   17.994730   20.384824 H          1 MOL1         0.0830
       6    H4      18.449970   16.930134   20.824888 H          1 MOL1         0.0830
       7    C3      18.357626   18.963136   21.677605 C.3        1 MOL1        -0.1765
       8    H5      17.385842   18.663331   22.090932 H          1 MOL1         0.0830
       9    H6      18.168017   19.663821   20.853525 H          1 MOL1         0.0830
      10    C4      19.208049   19.594579   22.799148 C.3        1 MOL1         0.1214
      11    H7      18.576780   19.760025   23.684387 H          1 MOL1         0.0787
      12    C5      20.320635   18.576404   23.126571 C.3        1 MOL1        -0.1765
      13    H8      21.284915   18.926851   22.733973 H          1 MOL1         0.0830
      14    H9      20.429754   18.432327   24.209244 H          1 MOL1         0.0830
      15    O1      19.778845   20.818548   22.351947 O.3        1 MOL1        -0.5512
      16    H10     20.314131   21.167556   23.095715 H          1 MOL1         0.3776
@<TRIPOS>BOND
    1     1     2    1
    2     1     3    1
    3     1     4    1
    4     4     5    1
    5     4     6    1
    6     4     7    1
    7     7     8    1
    8     7     9    1
    9     7    10    1
   10    10    11    1
   11     1    12    1
   12    10    12    1
   13    12    13    1
   14    12    14    1
   15    10    15    1
   16    15    16    1
@<TRIPOS>SUBSTRUCTURE
       1 MOL1            1 RESIDUE      1      MOL     
@<SCITEGIC>MOL_PROPERTY
VConf Rank
SciTegic.value.IntegerValue
569

@<SCITEGIC>MOL_PROPERTY
Conf_Id
SciTegic.value.IntegerValue
33

@<SCITEGIC>MOL_PROPERTY
Delta U+W
SciTegic.value.DoubleValue
0.015

@<SCITEGIC>MOL_PROPERTY
U+W
SciTegic.value.DoubleValue
3.025

@<SCITEGIC>MOL_PROPERTY
Grad RMS
SciTegic.value.DoubleValue
0.000000

@<SCITEGIC>MOL_PROPERTY
U
SciTegic.value.DoubleValue
5.843

@<SCITEGIC>MOL_PROPERTY
W
SciTegic.value.DoubleValue
-2.819

@<SCITEGIC>MOL_PROPERTY
W(PB)
SciTegic.value.DoubleValue
-4.568

@<SCITEGIC>MOL_PROPERTY
W(SA)
SciTegic.value.DoubleValue
1.750

@<SCITEGIC>MOL_PROPERTY
Valence
SciTegic.value.DoubleValue
13.789

@<SCITEGIC>MOL_PROPERTY
Coulomb
SciTegic.value.DoubleValue
-8.574

@<SCITEGIC>MOL_PROPERTY
VdW
SciTegic.value.DoubleValue
0.628

@<SCITEGIC>MOL_PROPERTY
VdW6
SciTegic.value.DoubleValue
-3.284

@<SCITEGIC>MOL_PROPERTY
VdW12
SciTegic.value.DoubleValue
3.913

@<SCITEGIC>MOL_PROPERTY
Bond
SciTegic.value.DoubleValue
0.054

@<SCITEGIC>MOL_PROPERTY
Angle
SciTegic.value.DoubleValue
4.033

@<SCITEGIC>MOL_PROPERTY
Pdih
SciTegic.value.DoubleValue
9.702

@<SCITEGIC>MOL_PROPERTY
Idih
SciTegic.value.DoubleValue
0.000

@<SCITEGIC>MOL_PROPERTY
Tether
SciTegic.value.DoubleValue
0.000

@<TRIPOS>MOLECULE
guest-4_confgen4.mol2 : confsearch ligand conformer 570
          16          16           1
SMALL
USER_CHARGES
 
@<TRIPOS>ATOM
       1    C1      18.865279   17.930262   23.287422 C.3        1 MOL1        -0.1689
       2    H1      18.787667   16.847118   23.120081 H          1 MOL1         0.0830
       3    H2      18.497587   18.138010   24.301642 H          1 MOL1         0.0830
       4    C2      18.044857   18.686767   22.219888 C.3        1 MOL1        -0.1689
       5    H3      17.569334   17.969732   21.536540 H          1 MOL1         0.0830
       6    H4      17.248617   19.291064   22.675767 H          1 MOL1         0.0830
       7    C3      19.043780   19.575863   21.449111 C.3        1 MOL1        -0.1765
       8    H5      19.014215   20.596343   21.853298 H          1 MOL1         0.0830
       9    H6      18.808825   19.633824   20.377924 H          1 MOL1         0.0830
      10    C4      20.432991   18.977449   21.707928 C.3        1 MOL1         0.1214
      11    H7      21.221084   19.741470   21.643387 H          1 MOL1         0.0787
      12    C5      20.328955   18.391557   23.122447 C.3        1 MOL1        -0.1765
      13    H8      21.044026   17.574691   23.287994 H          1 MOL1         0.0830
      14    H9      20.549170   19.181470   23.852628 H          1 MOL1         0.0830
      15    O1      20.669293   17.926409   20.782573 O.3        1 MOL1        -0.5512
      16    H10     19.926072   17.301735   20.911284 H          1 MOL1         0.3776
@<TRIPOS>BOND
    1     1     2    1
    2     1     3    1
    3     1     4    1
    4     4     5    1
    5     4     6    1
    6     4     7    1
    7     7     8    1
    8     7     9    1
    9     7    10    1
   10    10    11    1
   11     1    12    1
   12    10    12    1
   13    12    13    1
   14    12    14    1
   15    10    15    1
   16    15    16    1
@<TRIPOS>SUBSTRUCTURE
       1 MOL1            1 RESIDUE      1      MOL     
@<SCITEGIC>MOL_PROPERTY
VConf Rank
SciTegic.value.IntegerValue
570

@<SCITEGIC>MOL_PROPERTY
Conf_Id
SciTegic.value.IntegerValue
20

@<SCITEGIC>MOL_PROPERTY
Delta U+W
SciTegic.value.DoubleValue
-0.483

@<SCITEGIC>MOL_PROPERTY
U+W
SciTegic.value.DoubleValue
2.527

@<SCITEGIC>MOL_PROPERTY
Grad RMS
SciTegic.value.DoubleValue
0.000000

@<SCITEGIC>MOL_PROPERTY
U
SciTegic.value.DoubleValue
4.508

@<SCITEGIC>MOL_PROPERTY
W
SciTegic.value.DoubleValue
-1.981

@<SCITEGIC>MOL_PROPERTY
W(PB)
SciTegic.value.DoubleValue
-3.712

@<SCITEGIC>MOL_PROPERTY
W(SA)
SciTegic.value.DoubleValue
1.732

@<SCITEGIC>MOL_PROPERTY
Valence
SciTegic.value.DoubleValue
14.705

@<SCITEGIC>MOL_PROPERTY
Coulomb
SciTegic.value.DoubleValue
-10.687

@<SCITEGIC>MOL_PROPERTY
VdW
SciTegic.value.DoubleValue
0.490

@<SCITEGIC>MOL_PROPERTY
VdW6
SciTegic.value.DoubleValue
-3.745

@<SCITEGIC>MOL_PROPERTY
VdW12
SciTegic.value.DoubleValue
4.235

@<SCITEGIC>MOL_PROPERTY
Bond
SciTegic.value.DoubleValue
0.068

@<SCITEGIC>MOL_PROPERTY
Angle
SciTegic.value.DoubleValue
3.901

@<SCITEGIC>MOL_PROPERTY
Pdih
SciTegic.value.DoubleValue
10.737

@<SCITEGIC>MOL_PROPERTY
Idih
SciTegic.value.DoubleValue
0.000

@<SCITEGIC>MOL_PROPERTY
Tether
SciTegic.value.DoubleValue
0.000

@<TRIPOS>MOLECULE
guest-4_confgen4.mol2 : confsearch ligand conformer 571
          16          16           1
SMALL
USER_CHARGES
 
@<TRIPOS>ATOM
       1    C1      17.999809   19.072523   22.314232 C.3        1 MOL1        -0.1689
       2    H1      18.103957   20.142611   22.086761 H          1 MOL1         0.0830
       3    H2      16.928974   18.839015   22.387919 H          1 MOL1         0.0830
       4    C2      18.761483   18.744743   23.605797 C.3        1 MOL1        -0.1689
       5    H3      18.653476   19.530693   24.365650 H          1 MOL1         0.0830
       6    H4      18.383794   17.803505   24.028938 H          1 MOL1         0.0830
       7    C3      20.222087   18.563601   23.153712 C.3        1 MOL1        -0.1765
       8    H5      20.759109   17.861139   23.804096 H          1 MOL1         0.0830
       9    H6      20.739900   19.531247   23.201824 H          1 MOL1         0.0830
      10    C4      20.166841   18.058555   21.696469 C.3        1 MOL1         0.1214
      11    H7      20.428476   16.991043   21.657946 H          1 MOL1         0.0787
      12    C5      18.708734   18.243034   21.227722 C.3        1 MOL1        -0.1765
      13    H8      18.645230   18.726920   20.243932 H          1 MOL1         0.0830
      14    H9      18.231534   17.257772   21.146362 H          1 MOL1         0.0830
      15    O1      21.045453   18.822127   20.878613 O.3        1 MOL1        -0.5512
      16    H10     21.950710   18.677007   21.226437 H          1 MOL1         0.3776
@<TRIPOS>BOND
    1     1     2    1
    2     1     3    1
    3     1     4    1
    4     4     5    1
    5     4     6    1
    6     4     7    1
    7     7     8    1
    8     7     9    1
    9     7    10    1
   10    10    11    1
   11     1    12    1
   12    10    12    1
   13    12    13    1
   14    12    14    1
   15    10    15    1
   16    15    16    1
@<TRIPOS>SUBSTRUCTURE
       1 MOL1            1 RESIDUE      1      MOL     
@<SCITEGIC>MOL_PROPERTY
VConf Rank
SciTegic.value.IntegerValue
571

@<SCITEGIC>MOL_PROPERTY
Conf_Id
SciTegic.value.IntegerValue
59

@<SCITEGIC>MOL_PROPERTY
Delta U+W
SciTegic.value.DoubleValue
0.000

@<SCITEGIC>MOL_PROPERTY
U+W
SciTegic.value.DoubleValue
3.010

@<SCITEGIC>MOL_PROPERTY
Grad RMS
SciTegic.value.DoubleValue
0.000000

@<SCITEGIC>MOL_PROPERTY
U
SciTegic.value.DoubleValue
5.843

@<SCITEGIC>MOL_PROPERTY
W
SciTegic.value.DoubleValue
-2.833

@<SCITEGIC>MOL_PROPERTY
W(PB)
SciTegic.value.DoubleValue
-4.568

@<SCITEGIC>MOL_PROPERTY
W(SA)
SciTegic.value.DoubleValue
1.735

@<SCITEGIC>MOL_PROPERTY
Valence
SciTegic.value.DoubleValue
13.789

@<SCITEGIC>MOL_PROPERTY
Coulomb
SciTegic.value.DoubleValue
-8.574

@<SCITEGIC>MOL_PROPERTY
VdW
SciTegic.value.DoubleValue
0.628

@<SCITEGIC>MOL_PROPERTY
VdW6
SciTegic.value.DoubleValue
-3.284

@<SCITEGIC>MOL_PROPERTY
VdW12
SciTegic.value.DoubleValue
3.912

@<SCITEGIC>MOL_PROPERTY
Bond
SciTegic.value.DoubleValue
0.054

@<SCITEGIC>MOL_PROPERTY
Angle
SciTegic.value.DoubleValue
4.034

@<SCITEGIC>MOL_PROPERTY
Pdih
SciTegic.value.DoubleValue
9.702

@<SCITEGIC>MOL_PROPERTY
Idih
SciTegic.value.DoubleValue
0.000

@<SCITEGIC>MOL_PROPERTY
Tether
SciTegic.value.DoubleValue
0.000

@<TRIPOS>MOLECULE
guest-4_confgen4.mol2 : confsearch ligand conformer 572
          16          16           1
SMALL
USER_CHARGES
 
@<TRIPOS>ATOM
       1    C1      20.221530   18.050466   23.366102 C.3        1 MOL1        -0.1689
       2    H1      21.133336   17.456184   23.515092 H          1 MOL1         0.0830
       3    H2      19.870702   18.393786   24.349297 H          1 MOL1         0.0830
       4    C2      19.110423   17.251069   22.671745 C.3        1 MOL1        -0.1689
       5    H3      19.547382   16.619142   21.885987 H          1 MOL1         0.0830
       6    H4      18.561386   16.603348   23.368637 H          1 MOL1         0.0830
       7    C3      18.208728   18.321857   22.030313 C.3        1 MOL1        -0.1765
       8    H5      17.424141   18.615853   22.739590 H          1 MOL1         0.0830
       9    H6      17.715543   17.945234   21.124255 H          1 MOL1         0.0830
      10    C4      19.109543   19.540789   21.743025 C.3        1 MOL1         0.1214
      11    H7      18.644957   20.443553   22.165750 H          1 MOL1         0.0787
      12    C5      20.455513   19.261468   22.444508 C.3        1 MOL1        -0.1765
      13    H8      21.226236   19.010223   21.703127 H          1 MOL1         0.0830
      14    H9      20.804275   20.134815   23.010614 H          1 MOL1         0.0830
      15    O1      19.307072   19.685326   20.341601 O.3        1 MOL1        -0.5512
      16    H10     19.891851   20.462797   20.218715 H          1 MOL1         0.3776
@<TRIPOS>BOND
    1     1     2    1
    2     1     3    1
    3     1     4    1
    4     4     5    1
    5     4     6    1
    6     4     7    1
    7     7     8    1
    8     7     9    1
    9     7    10    1
   10    10    11    1
   11     1    12    1
   12    10    12    1
   13    12    13    1
   14    12    14    1
   15    10    15    1
   16    15    16    1
@<TRIPOS>SUBSTRUCTURE
       1 MOL1            1 RESIDUE      1      MOL     
@<SCITEGIC>MOL_PROPERTY
VConf Rank
SciTegic.value.IntegerValue
572

@<SCITEGIC>MOL_PROPERTY
Conf_Id
SciTegic.value.IntegerValue
33

@<SCITEGIC>MOL_PROPERTY
Delta U+W
SciTegic.value.DoubleValue
0.015

@<SCITEGIC>MOL_PROPERTY
U+W
SciTegic.value.DoubleValue
3.025

@<SCITEGIC>MOL_PROPERTY
Grad RMS
SciTegic.value.DoubleValue
0.000000

@<SCITEGIC>MOL_PROPERTY
U
SciTegic.value.DoubleValue
5.843

@<SCITEGIC>MOL_PROPERTY
W
SciTegic.value.DoubleValue
-2.819

@<SCITEGIC>MOL_PROPERTY
W(PB)
SciTegic.value.DoubleValue
-4.568

@<SCITEGIC>MOL_PROPERTY
W(SA)
SciTegic.value.DoubleValue
1.750

@<SCITEGIC>MOL_PROPERTY
Valence
SciTegic.value.DoubleValue
13.789

@<SCITEGIC>MOL_PROPERTY
Coulomb
SciTegic.value.DoubleValue
-8.574

@<SCITEGIC>MOL_PROPERTY
VdW
SciTegic.value.DoubleValue
0.628

@<SCITEGIC>MOL_PROPERTY
VdW6
SciTegic.value.DoubleValue
-3.284

@<SCITEGIC>MOL_PROPERTY
VdW12
SciTegic.value.DoubleValue
3.913

@<SCITEGIC>MOL_PROPERTY
Bond
SciTegic.value.DoubleValue
0.054

@<SCITEGIC>MOL_PROPERTY
Angle
SciTegic.value.DoubleValue
4.033

@<SCITEGIC>MOL_PROPERTY
Pdih
SciTegic.value.DoubleValue
9.702

@<SCITEGIC>MOL_PROPERTY
Idih
SciTegic.value.DoubleValue
0.000

@<SCITEGIC>MOL_PROPERTY
Tether
SciTegic.value.DoubleValue
0.000

@<TRIPOS>MOLECULE
guest-4_confgen4.mol2 : confsearch ligand conformer 573
          16          16           1
SMALL
USER_CHARGES
 
@<TRIPOS>ATOM
       1    C1      18.485325   17.765333   22.781384 C.3        1 MOL1        -0.1689
       2    H1      17.440522   18.005418   22.540606 H          1 MOL1         0.0830
       3    H2      18.485144   16.852832   23.393216 H          1 MOL1         0.0830
       4    C2      19.137729   18.949447   23.527886 C.3        1 MOL1        -0.1689
       5    H3      18.408378   19.762175   23.649327 H          1 MOL1         0.0830
       6    H4      19.479750   18.656085   24.529863 H          1 MOL1         0.0830
       7    C3      20.319745   19.419995   22.653896 C.3        1 MOL1        -0.1765
       8    H5      21.252165   18.977836   23.029009 H          1 MOL1         0.0830
       9    H6      20.438585   20.511647   22.667248 H          1 MOL1         0.0830
      10    C4      20.045637   18.882356   21.242938 C.3        1 MOL1         0.1214
      11    H7      20.978124   18.721970   20.682826 H          1 MOL1         0.0787
      12    C5      19.298368   17.564029   21.484929 C.3        1 MOL1        -0.1765
      13    H8      18.662824   17.283902   20.634272 H          1 MOL1         0.0830
      14    H9      20.031814   16.760424   21.632906 H          1 MOL1         0.0830
      15    O1      19.191061   19.785131   20.556275 O.3        1 MOL1        -0.5512
      16    H10     18.396583   19.865182   21.123336 H          1 MOL1         0.3776
@<TRIPOS>BOND
    1     1     2    1
    2     1     3    1
    3     1     4    1
    4     4     5    1
    5     4     6    1
    6     4     7    1
    7     7     8    1
    8     7     9    1
    9     7    10    1
   10    10    11    1
   11     1    12    1
   12    10    12    1
   13    12    13    1
   14    12    14    1
   15    10    15    1
   16    15    16    1
@<TRIPOS>SUBSTRUCTURE
       1 MOL1            1 RESIDUE      1      MOL     
@<SCITEGIC>MOL_PROPERTY
VConf Rank
SciTegic.value.IntegerValue
573

@<SCITEGIC>MOL_PROPERTY
Conf_Id
SciTegic.value.IntegerValue
20

@<SCITEGIC>MOL_PROPERTY
Delta U+W
SciTegic.value.DoubleValue
-0.483

@<SCITEGIC>MOL_PROPERTY
U+W
SciTegic.value.DoubleValue
2.527

@<SCITEGIC>MOL_PROPERTY
Grad RMS
SciTegic.value.DoubleValue
0.000000

@<SCITEGIC>MOL_PROPERTY
U
SciTegic.value.DoubleValue
4.508

@<SCITEGIC>MOL_PROPERTY
W
SciTegic.value.DoubleValue
-1.981

@<SCITEGIC>MOL_PROPERTY
W(PB)
SciTegic.value.DoubleValue
-3.712

@<SCITEGIC>MOL_PROPERTY
W(SA)
SciTegic.value.DoubleValue
1.732

@<SCITEGIC>MOL_PROPERTY
Valence
SciTegic.value.DoubleValue
14.705

@<SCITEGIC>MOL_PROPERTY
Coulomb
SciTegic.value.DoubleValue
-10.687

@<SCITEGIC>MOL_PROPERTY
VdW
SciTegic.value.DoubleValue
0.490

@<SCITEGIC>MOL_PROPERTY
VdW6
SciTegic.value.DoubleValue
-3.745

@<SCITEGIC>MOL_PROPERTY
VdW12
SciTegic.value.DoubleValue
4.235

@<SCITEGIC>MOL_PROPERTY
Bond
SciTegic.value.DoubleValue
0.068

@<SCITEGIC>MOL_PROPERTY
Angle
SciTegic.value.DoubleValue
3.901

@<SCITEGIC>MOL_PROPERTY
Pdih
SciTegic.value.DoubleValue
10.737

@<SCITEGIC>MOL_PROPERTY
Idih
SciTegic.value.DoubleValue
0.000

@<SCITEGIC>MOL_PROPERTY
Tether
SciTegic.value.DoubleValue
0.000

@<TRIPOS>MOLECULE
guest-4_confgen4.mol2 : confsearch ligand conformer 574
          16          16           1
SMALL
USER_CHARGES
 
@<TRIPOS>ATOM
       1    C1      18.359433   19.171094   21.456423 C.3        1 MOL1        -0.1689
       2    H1      18.847427   19.268698   20.476621 H          1 MOL1         0.0830
       3    H2      17.322925   19.522107   21.361109 H          1 MOL1         0.0830
       4    C2      19.151788   19.961582   22.506676 C.3        1 MOL1        -0.1689
       5    H3      19.523331   20.918954   22.116607 H          1 MOL1         0.0830
       6    H4      18.510196   20.169789   23.374221 H          1 MOL1         0.0830
       7    C3      20.293344   19.014039   22.918465 C.3        1 MOL1        -0.1765
       8    H5      20.608873   19.192643   23.954510 H          1 MOL1         0.0830
       9    H6      21.161033   19.186054   22.267074 H          1 MOL1         0.0830
      10    C4      19.757735   17.579293   22.727924 C.3        1 MOL1         0.1214
      11    H7      19.545997   17.123590   23.706198 H          1 MOL1         0.0787
      12    C5      18.443293   17.708548   21.930823 C.3        1 MOL1        -0.1765
      13    H8      18.396503   17.006687   21.087482 H          1 MOL1         0.0830
      14    H9      17.598225   17.487872   22.595837 H          1 MOL1         0.0830
      15    O1      20.697526   16.796952   22.000860 O.3        1 MOL1        -0.5512
      16    H10     21.511936   16.757631   22.545582 H          1 MOL1         0.3776
@<TRIPOS>BOND
    1     1     2    1
    2     1     3    1
    3     1     4    1
    4     4     5    1
    5     4     6    1
    6     4     7    1
    7     7     8    1
    8     7     9    1
    9     7    10    1
   10    10    11    1
   11     1    12    1
   12    10    12    1
   13    12    13    1
   14    12    14    1
   15    10    15    1
   16    15    16    1
@<TRIPOS>SUBSTRUCTURE
       1 MOL1            1 RESIDUE      1      MOL     
@<SCITEGIC>MOL_PROPERTY
VConf Rank
SciTegic.value.IntegerValue
574

@<SCITEGIC>MOL_PROPERTY
Conf_Id
SciTegic.value.IntegerValue
59

@<SCITEGIC>MOL_PROPERTY
Delta U+W
SciTegic.value.DoubleValue
0.000

@<SCITEGIC>MOL_PROPERTY
U+W
SciTegic.value.DoubleValue
3.010

@<SCITEGIC>MOL_PROPERTY
Grad RMS
SciTegic.value.DoubleValue
0.000000

@<SCITEGIC>MOL_PROPERTY
U
SciTegic.value.DoubleValue
5.843

@<SCITEGIC>MOL_PROPERTY
W
SciTegic.value.DoubleValue
-2.833

@<SCITEGIC>MOL_PROPERTY
W(PB)
SciTegic.value.DoubleValue
-4.568

@<SCITEGIC>MOL_PROPERTY
W(SA)
SciTegic.value.DoubleValue
1.735

@<SCITEGIC>MOL_PROPERTY
Valence
SciTegic.value.DoubleValue
13.789

@<SCITEGIC>MOL_PROPERTY
Coulomb
SciTegic.value.DoubleValue
-8.574

@<SCITEGIC>MOL_PROPERTY
VdW
SciTegic.value.DoubleValue
0.628

@<SCITEGIC>MOL_PROPERTY
VdW6
SciTegic.value.DoubleValue
-3.284

@<SCITEGIC>MOL_PROPERTY
VdW12
SciTegic.value.DoubleValue
3.912

@<SCITEGIC>MOL_PROPERTY
Bond
SciTegic.value.DoubleValue
0.054

@<SCITEGIC>MOL_PROPERTY
Angle
SciTegic.value.DoubleValue
4.034

@<SCITEGIC>MOL_PROPERTY
Pdih
SciTegic.value.DoubleValue
9.702

@<SCITEGIC>MOL_PROPERTY
Idih
SciTegic.value.DoubleValue
0.000

@<SCITEGIC>MOL_PROPERTY
Tether
SciTegic.value.DoubleValue
0.000

@<TRIPOS>MOLECULE
guest-4_confgen4.mol2 : confsearch ligand conformer 575
          16          16           1
SMALL
USER_CHARGES
 
@<TRIPOS>ATOM
       1    C1      18.072301   18.562065   21.899510 C.3        1 MOL1        -0.1689
       2    H1      17.355867   19.139061   21.299047 H          1 MOL1         0.0830
       3    H2      17.595176   17.614836   22.187141 H          1 MOL1         0.0830
       4    C2      18.520965   19.317203   23.158158 C.3        1 MOL1        -0.1689
       5    H3      18.660771   20.380734   22.919339 H          1 MOL1         0.0830
       6    H4      17.791123   19.241107   23.975583 H          1 MOL1         0.0830
       7    C3      19.878342   18.687622   23.521794 C.3        1 MOL1        -0.1765
       8    H5      19.721050   17.839782   24.201140 H          1 MOL1         0.0830
       9    H6      20.533920   19.406416   24.031277 H          1 MOL1         0.0830
      10    C4      20.489975   18.169359   22.203801 C.3        1 MOL1         0.1214
      11    H7      20.789743   17.118863   22.330754 H          1 MOL1         0.0787
      12    C5      19.379415   18.276615   21.137551 C.3        1 MOL1        -0.1765
      13    H8      19.589249   19.108713   20.451719 H          1 MOL1         0.0830
      14    H9      19.303351   17.358668   20.540530 H          1 MOL1         0.0830
      15    O1      21.605815   18.970007   21.832637 O.3        1 MOL1        -0.5512
      16    H10     21.945553   18.604861   20.988377 H          1 MOL1         0.3776
@<TRIPOS>BOND
    1     1     2    1
    2     1     3    1
    3     1     4    1
    4     4     5    1
    5     4     6    1
    6     4     7    1
    7     7     8    1
    8     7     9    1
    9     7    10    1
   10    10    11    1
   11     1    12    1
   12    10    12    1
   13    12    13    1
   14    12    14    1
   15    10    15    1
   16    15    16    1
@<TRIPOS>SUBSTRUCTURE
       1 MOL1            1 RESIDUE      1      MOL     
@<SCITEGIC>MOL_PROPERTY
VConf Rank
SciTegic.value.IntegerValue
575

@<SCITEGIC>MOL_PROPERTY
Conf_Id
SciTegic.value.IntegerValue
33

@<SCITEGIC>MOL_PROPERTY
Delta U+W
SciTegic.value.DoubleValue
0.015

@<SCITEGIC>MOL_PROPERTY
U+W
SciTegic.value.DoubleValue
3.025

@<SCITEGIC>MOL_PROPERTY
Grad RMS
SciTegic.value.DoubleValue
0.000000

@<SCITEGIC>MOL_PROPERTY
U
SciTegic.value.DoubleValue
5.843

@<SCITEGIC>MOL_PROPERTY
W
SciTegic.value.DoubleValue
-2.819

@<SCITEGIC>MOL_PROPERTY
W(PB)
SciTegic.value.DoubleValue
-4.568

@<SCITEGIC>MOL_PROPERTY
W(SA)
SciTegic.value.DoubleValue
1.750

@<SCITEGIC>MOL_PROPERTY
Valence
SciTegic.value.DoubleValue
13.789

@<SCITEGIC>MOL_PROPERTY
Coulomb
SciTegic.value.DoubleValue
-8.574

@<SCITEGIC>MOL_PROPERTY
VdW
SciTegic.value.DoubleValue
0.628

@<SCITEGIC>MOL_PROPERTY
VdW6
SciTegic.value.DoubleValue
-3.284

@<SCITEGIC>MOL_PROPERTY
VdW12
SciTegic.value.DoubleValue
3.913

@<SCITEGIC>MOL_PROPERTY
Bond
SciTegic.value.DoubleValue
0.054

@<SCITEGIC>MOL_PROPERTY
Angle
SciTegic.value.DoubleValue
4.033

@<SCITEGIC>MOL_PROPERTY
Pdih
SciTegic.value.DoubleValue
9.702

@<SCITEGIC>MOL_PROPERTY
Idih
SciTegic.value.DoubleValue
0.000

@<SCITEGIC>MOL_PROPERTY
Tether
SciTegic.value.DoubleValue
0.000

@<TRIPOS>MOLECULE
guest-4_confgen4.mol2 : confsearch ligand conformer 576
          16          16           1
SMALL
USER_CHARGES
 
@<TRIPOS>ATOM
       1    C1      18.294639   18.241115   22.946976 C.3        1 MOL1        -0.1689
       2    H1      17.959406   18.976962   23.690868 H          1 MOL1         0.0830
       3    H2      17.598675   17.391729   22.981259 H          1 MOL1         0.0830
       4    C2      19.742249   17.802049   23.257890 C.3        1 MOL1        -0.1689
       5    H3      20.107239   18.324595   24.152851 H          1 MOL1         0.0830
       6    H4      19.803695   16.722773   23.453819 H          1 MOL1         0.0830
       7    C3      20.591322   18.192073   22.029317 C.3        1 MOL1        -0.1765
       8    H5      20.717802   17.317135   21.378081 H          1 MOL1         0.0830
       9    H6      21.591902   18.546750   22.310474 H          1 MOL1         0.0830
      10    C4      19.785865   19.260405   21.277719 C.3        1 MOL1         0.1214
      11    H7      20.016639   19.259280   20.202672 H          1 MOL1         0.0787
      12    C5      18.323095   18.878856   21.541688 C.3        1 MOL1        -0.1765
      13    H8      17.647445   19.740919   21.462020 H          1 MOL1         0.0830
      14    H9      18.007889   18.137268   20.795823 H          1 MOL1         0.0830
      15    O1      20.047989   20.533055   21.850833 O.3        1 MOL1        -0.5512
      16    H10     19.815900   20.438800   22.797624 H          1 MOL1         0.3776
@<TRIPOS>BOND
    1     1     2    1
    2     1     3    1
    3     1     4    1
    4     4     5    1
    5     4     6    1
    6     4     7    1
    7     7     8    1
    8     7     9    1
    9     7    10    1
   10    10    11    1
   11     1    12    1
   12    10    12    1
   13    12    13    1
   14    12    14    1
   15    10    15    1
   16    15    16    1
@<TRIPOS>SUBSTRUCTURE
       1 MOL1            1 RESIDUE      1      MOL     
@<SCITEGIC>MOL_PROPERTY
VConf Rank
SciTegic.value.IntegerValue
576

@<SCITEGIC>MOL_PROPERTY
Conf_Id
SciTegic.value.IntegerValue
20

@<SCITEGIC>MOL_PROPERTY
Delta U+W
SciTegic.value.DoubleValue
-0.483

@<SCITEGIC>MOL_PROPERTY
U+W
SciTegic.value.DoubleValue
2.527

@<SCITEGIC>MOL_PROPERTY
Grad RMS
SciTegic.value.DoubleValue
0.000000

@<SCITEGIC>MOL_PROPERTY
U
SciTegic.value.DoubleValue
4.508

@<SCITEGIC>MOL_PROPERTY
W
SciTegic.value.DoubleValue
-1.981

@<SCITEGIC>MOL_PROPERTY
W(PB)
SciTegic.value.DoubleValue
-3.712

@<SCITEGIC>MOL_PROPERTY
W(SA)
SciTegic.value.DoubleValue
1.732

@<SCITEGIC>MOL_PROPERTY
Valence
SciTegic.value.DoubleValue
14.705

@<SCITEGIC>MOL_PROPERTY
Coulomb
SciTegic.value.DoubleValue
-10.687

@<SCITEGIC>MOL_PROPERTY
VdW
SciTegic.value.DoubleValue
0.490

@<SCITEGIC>MOL_PROPERTY
VdW6
SciTegic.value.DoubleValue
-3.745

@<SCITEGIC>MOL_PROPERTY
VdW12
SciTegic.value.DoubleValue
4.235

@<SCITEGIC>MOL_PROPERTY
Bond
SciTegic.value.DoubleValue
0.068

@<SCITEGIC>MOL_PROPERTY
Angle
SciTegic.value.DoubleValue
3.901

@<SCITEGIC>MOL_PROPERTY
Pdih
SciTegic.value.DoubleValue
10.737

@<SCITEGIC>MOL_PROPERTY
Idih
SciTegic.value.DoubleValue
0.000

@<SCITEGIC>MOL_PROPERTY
Tether
SciTegic.value.DoubleValue
0.000

@<TRIPOS>MOLECULE
guest-4_confgen4.mol2 : confsearch ligand conformer 577
          16          16           1
SMALL
USER_CHARGES
 
@<TRIPOS>ATOM
       1    C1      20.750985   18.586631   21.898793 C.3        1 MOL1        -0.1689
       2    H1      20.755827   18.158893   20.886522 H          1 MOL1         0.0830
       3    H2      21.773628   18.904956   22.142751 H          1 MOL1         0.0830
       4    C2      20.206731   17.550935   22.892196 C.3        1 MOL1        -0.1689
       5    H3      20.563350   16.535032   22.674195 H          1 MOL1         0.0830
       6    H4      20.522450   17.814634   23.911220 H          1 MOL1         0.0830
       7    C3      18.676552   17.672943   22.772946 C.3        1 MOL1        -0.1765
       8    H5      18.178555   17.410037   23.715138 H          1 MOL1         0.0830
       9    H6      18.316530   16.983481   21.997181 H          1 MOL1         0.0830
      10    C4      18.387073   19.133336   22.366581 C.3        1 MOL1         0.1214
      11    H7      17.977067   19.688117   23.223104 H          1 MOL1         0.0787
      12    C5      19.742779   19.748771   21.962680 C.3        1 MOL1        -0.1765
      13    H8      19.687480   20.288923   21.008112 H          1 MOL1         0.0830
      14    H9      20.054631   20.465130   22.733822 H          1 MOL1         0.0830
      15    O1      17.485610   19.167343   21.266537 O.3        1 MOL1        -0.5512
      16    H10     16.650320   18.756370   21.574632 H          1 MOL1         0.3776
@<TRIPOS>BOND
    1     1     2    1
    2     1     3    1
    3     1     4    1
    4     4     5    1
    5     4     6    1
    6     4     7    1
    7     7     8    1
    8     7     9    1
    9     7    10    1
   10    10    11    1
   11     1    12    1
   12    10    12    1
   13    12    13    1
   14    12    14    1
   15    10    15    1
   16    15    16    1
@<TRIPOS>SUBSTRUCTURE
       1 MOL1            1 RESIDUE      1      MOL     
@<SCITEGIC>MOL_PROPERTY
VConf Rank
SciTegic.value.IntegerValue
577

@<SCITEGIC>MOL_PROPERTY
Conf_Id
SciTegic.value.IntegerValue
59

@<SCITEGIC>MOL_PROPERTY
Delta U+W
SciTegic.value.DoubleValue
0.000

@<SCITEGIC>MOL_PROPERTY
U+W
SciTegic.value.DoubleValue
3.010

@<SCITEGIC>MOL_PROPERTY
Grad RMS
SciTegic.value.DoubleValue
0.000000

@<SCITEGIC>MOL_PROPERTY
U
SciTegic.value.DoubleValue
5.843

@<SCITEGIC>MOL_PROPERTY
W
SciTegic.value.DoubleValue
-2.833

@<SCITEGIC>MOL_PROPERTY
W(PB)
SciTegic.value.DoubleValue
-4.568

@<SCITEGIC>MOL_PROPERTY
W(SA)
SciTegic.value.DoubleValue
1.735

@<SCITEGIC>MOL_PROPERTY
Valence
SciTegic.value.DoubleValue
13.789

@<SCITEGIC>MOL_PROPERTY
Coulomb
SciTegic.value.DoubleValue
-8.574

@<SCITEGIC>MOL_PROPERTY
VdW
SciTegic.value.DoubleValue
0.628

@<SCITEGIC>MOL_PROPERTY
VdW6
SciTegic.value.DoubleValue
-3.284

@<SCITEGIC>MOL_PROPERTY
VdW12
SciTegic.value.DoubleValue
3.912

@<SCITEGIC>MOL_PROPERTY
Bond
SciTegic.value.DoubleValue
0.054

@<SCITEGIC>MOL_PROPERTY
Angle
SciTegic.value.DoubleValue
4.034

@<SCITEGIC>MOL_PROPERTY
Pdih
SciTegic.value.DoubleValue
9.702

@<SCITEGIC>MOL_PROPERTY
Idih
SciTegic.value.DoubleValue
0.000

@<SCITEGIC>MOL_PROPERTY
Tether
SciTegic.value.DoubleValue
0.000

@<TRIPOS>MOLECULE
guest-4_confgen4.mol2 : confsearch ligand conformer 578
          16          16           1
SMALL
USER_CHARGES
 
@<TRIPOS>ATOM
       1    C1      19.606717   17.383278   21.566952 C.3        1 MOL1        -0.1689
       2    H1      18.986945   16.635748   21.053297 H          1 MOL1         0.0830
       3    H2      20.661665   17.156422   21.359002 H          1 MOL1         0.0830
       4    C2      19.370447   17.395286   23.083447 C.3        1 MOL1        -0.1689
       5    H3      18.299373   17.262375   23.290361 H          1 MOL1         0.0830
       6    H4      19.922271   16.598452   23.600350 H          1 MOL1         0.0830
       7    C3      19.811495   18.801100   23.530928 C.3        1 MOL1        -0.1765
       8    H5      20.877605   18.786993   23.792260 H          1 MOL1         0.0830
       9    H6      19.255197   19.136668   24.416335 H          1 MOL1         0.0830
      10    C4      19.602732   19.733778   22.320008 C.3        1 MOL1         0.1214
      11    H7      20.528653   20.296255   22.130774 H          1 MOL1         0.0787
      12    C5      19.284516   18.820232   21.117549 C.3        1 MOL1        -0.1765
      13    H8      18.219275   18.889527   20.858238 H          1 MOL1         0.0830
      14    H9      19.866410   19.103133   20.230863 H          1 MOL1         0.0830
      15    O1      18.516643   20.619506   22.564536 O.3        1 MOL1        -0.5512
      16    H10     18.422672   21.177155   21.763458 H          1 MOL1         0.3776
@<TRIPOS>BOND
    1     1     2    1
    2     1     3    1
    3     1     4    1
    4     4     5    1
    5     4     6    1
    6     4     7    1
    7     7     8    1
    8     7     9    1
    9     7    10    1
   10    10    11    1
   11     1    12    1
   12    10    12    1
   13    12    13    1
   14    12    14    1
   15    10    15    1
   16    15    16    1
@<TRIPOS>SUBSTRUCTURE
       1 MOL1            1 RESIDUE      1      MOL     
@<SCITEGIC>MOL_PROPERTY
VConf Rank
SciTegic.value.IntegerValue
578

@<SCITEGIC>MOL_PROPERTY
Conf_Id
SciTegic.value.IntegerValue
33

@<SCITEGIC>MOL_PROPERTY
Delta U+W
SciTegic.value.DoubleValue
0.015

@<SCITEGIC>MOL_PROPERTY
U+W
SciTegic.value.DoubleValue
3.025

@<SCITEGIC>MOL_PROPERTY
Grad RMS
SciTegic.value.DoubleValue
0.000000

@<SCITEGIC>MOL_PROPERTY
U
SciTegic.value.DoubleValue
5.843

@<SCITEGIC>MOL_PROPERTY
W
SciTegic.value.DoubleValue
-2.819

@<SCITEGIC>MOL_PROPERTY
W(PB)
SciTegic.value.DoubleValue
-4.568

@<SCITEGIC>MOL_PROPERTY
W(SA)
SciTegic.value.DoubleValue
1.750

@<SCITEGIC>MOL_PROPERTY
Valence
SciTegic.value.DoubleValue
13.789

@<SCITEGIC>MOL_PROPERTY
Coulomb
SciTegic.value.DoubleValue
-8.574

@<SCITEGIC>MOL_PROPERTY
VdW
SciTegic.value.DoubleValue
0.628

@<SCITEGIC>MOL_PROPERTY
VdW6
SciTegic.value.DoubleValue
-3.284

@<SCITEGIC>MOL_PROPERTY
VdW12
SciTegic.value.DoubleValue
3.913

@<SCITEGIC>MOL_PROPERTY
Bond
SciTegic.value.DoubleValue
0.054

@<SCITEGIC>MOL_PROPERTY
Angle
SciTegic.value.DoubleValue
4.033

@<SCITEGIC>MOL_PROPERTY
Pdih
SciTegic.value.DoubleValue
9.702

@<SCITEGIC>MOL_PROPERTY
Idih
SciTegic.value.DoubleValue
0.000

@<SCITEGIC>MOL_PROPERTY
Tether
SciTegic.value.DoubleValue
0.000

@<TRIPOS>MOLECULE
guest-4_confgen4.mol2 : confsearch ligand conformer 579
          16          16           1
SMALL
USER_CHARGES
 
@<TRIPOS>ATOM
       1    C1      20.539222   18.108833   22.688998 C.3        1 MOL1        -0.1689
       2    H1      20.515306   17.031048   22.901211 H          1 MOL1         0.0830
       3    H2      21.559515   18.464943   22.886948 H          1 MOL1         0.0830
       4    C2      19.501761   18.840453   23.568446 C.3        1 MOL1        -0.1689
       5    H3      18.976493   18.116903   24.207035 H          1 MOL1         0.0830
       6    H4      19.979266   19.580021   24.225733 H          1 MOL1         0.0830
       7    C3      18.507888   19.517806   22.601054 C.3        1 MOL1        -0.1765
       8    H5      18.786228   20.571529   22.467576 H          1 MOL1         0.0830
       9    H6      17.476425   19.489721   22.976955 H          1 MOL1         0.0830
      10    C4      18.657441   18.789043   21.258843 C.3        1 MOL1         0.1214
      11    H7      18.400854   19.442690   20.412740 H          1 MOL1         0.0787
      12    C5      20.134008   18.372585   21.223190 C.3        1 MOL1        -0.1765
      13    H8      20.304302   17.498533   20.580511 H          1 MOL1         0.0830
      14    H9      20.729200   19.203423   20.821848 H          1 MOL1         0.0830
      15    O1      17.843330   17.625433   21.265184 O.3        1 MOL1        -0.5512
      16    H10     18.140513   17.110799   22.043642 H          1 MOL1         0.3776
@<TRIPOS>BOND
    1     1     2    1
    2     1     3    1
    3     1     4    1
    4     4     5    1
    5     4     6    1
    6     4     7    1
    7     7     8    1
    8     7     9    1
    9     7    10    1
   10    10    11    1
   11     1    12    1
   12    10    12    1
   13    12    13    1
   14    12    14    1
   15    10    15    1
   16    15    16    1
@<TRIPOS>SUBSTRUCTURE
       1 MOL1            1 RESIDUE      1      MOL     
@<SCITEGIC>MOL_PROPERTY
VConf Rank
SciTegic.value.IntegerValue
579

@<SCITEGIC>MOL_PROPERTY
Conf_Id
SciTegic.value.IntegerValue
20

@<SCITEGIC>MOL_PROPERTY
Delta U+W
SciTegic.value.DoubleValue
-0.483

@<SCITEGIC>MOL_PROPERTY
U+W
SciTegic.value.DoubleValue
2.527

@<SCITEGIC>MOL_PROPERTY
Grad RMS
SciTegic.value.DoubleValue
0.000000

@<SCITEGIC>MOL_PROPERTY
U
SciTegic.value.DoubleValue
4.508

@<SCITEGIC>MOL_PROPERTY
W
SciTegic.value.DoubleValue
-1.981

@<SCITEGIC>MOL_PROPERTY
W(PB)
SciTegic.value.DoubleValue
-3.712

@<SCITEGIC>MOL_PROPERTY
W(SA)
SciTegic.value.DoubleValue
1.732

@<SCITEGIC>MOL_PROPERTY
Valence
SciTegic.value.DoubleValue
14.705

@<SCITEGIC>MOL_PROPERTY
Coulomb
SciTegic.value.DoubleValue
-10.687

@<SCITEGIC>MOL_PROPERTY
VdW
SciTegic.value.DoubleValue
0.490

@<SCITEGIC>MOL_PROPERTY
VdW6
SciTegic.value.DoubleValue
-3.745

@<SCITEGIC>MOL_PROPERTY
VdW12
SciTegic.value.DoubleValue
4.235

@<SCITEGIC>MOL_PROPERTY
Bond
SciTegic.value.DoubleValue
0.068

@<SCITEGIC>MOL_PROPERTY
Angle
SciTegic.value.DoubleValue
3.901

@<SCITEGIC>MOL_PROPERTY
Pdih
SciTegic.value.DoubleValue
10.737

@<SCITEGIC>MOL_PROPERTY
Idih
SciTegic.value.DoubleValue
0.000

@<SCITEGIC>MOL_PROPERTY
Tether
SciTegic.value.DoubleValue
0.000

@<TRIPOS>MOLECULE
guest-4_confgen4.mol2 : confsearch ligand conformer 580
          16          16           1
SMALL
USER_CHARGES
 
@<TRIPOS>ATOM
       1    C1      19.333596   18.384332   23.757859 C.3        1 MOL1        -0.1689
       2    H1      19.604866   19.368589   24.164465 H          1 MOL1         0.0830
       3    H2      19.106929   17.715131   24.598952 H          1 MOL1         0.0830
       4    C2      20.477627   17.856993   22.881027 C.3        1 MOL1        -0.1689
       5    H3      21.466078   18.075868   23.307429 H          1 MOL1         0.0830
       6    H4      20.385403   16.767721   22.768748 H          1 MOL1         0.0830
       7    C3      20.262708   18.541163   21.518574 C.3        1 MOL1        -0.1765
       8    H5      20.638275   17.920862   20.694546 H          1 MOL1         0.0830
       9    H6      20.809523   19.493759   21.500172 H          1 MOL1         0.0830
      10    C4      18.745330   18.793097   21.392982 C.3        1 MOL1         0.1214
      11    H7      18.305035   18.087827   20.673084 H          1 MOL1         0.0787
      12    C5      18.145073   18.535778   22.790591 C.3        1 MOL1        -0.1765
      13    H8      17.466178   19.338918   23.106962 H          1 MOL1         0.0830
      14    H9      17.568594   17.601885   22.766152 H          1 MOL1         0.0830
      15    O1      18.502133   20.136924   20.994395 O.3        1 MOL1        -0.5512
      16    H10     18.912215   20.246686   20.110474 H          1 MOL1         0.3776
@<TRIPOS>BOND
    1     1     2    1
    2     1     3    1
    3     1     4    1
    4     4     5    1
    5     4     6    1
    6     4     7    1
    7     7     8    1
    8     7     9    1
    9     7    10    1
   10    10    11    1
   11     1    12    1
   12    10    12    1
   13    12    13    1
   14    12    14    1
   15    10    15    1
   16    15    16    1
@<TRIPOS>SUBSTRUCTURE
       1 MOL1            1 RESIDUE      1      MOL     
@<SCITEGIC>MOL_PROPERTY
VConf Rank
SciTegic.value.IntegerValue
580

@<SCITEGIC>MOL_PROPERTY
Conf_Id
SciTegic.value.IntegerValue
59

@<SCITEGIC>MOL_PROPERTY
Delta U+W
SciTegic.value.DoubleValue
0.000

@<SCITEGIC>MOL_PROPERTY
U+W
SciTegic.value.DoubleValue
3.010

@<SCITEGIC>MOL_PROPERTY
Grad RMS
SciTegic.value.DoubleValue
0.000000

@<SCITEGIC>MOL_PROPERTY
U
SciTegic.value.DoubleValue
5.843

@<SCITEGIC>MOL_PROPERTY
W
SciTegic.value.DoubleValue
-2.833

@<SCITEGIC>MOL_PROPERTY
W(PB)
SciTegic.value.DoubleValue
-4.568

@<SCITEGIC>MOL_PROPERTY
W(SA)
SciTegic.value.DoubleValue
1.735

@<SCITEGIC>MOL_PROPERTY
Valence
SciTegic.value.DoubleValue
13.789

@<SCITEGIC>MOL_PROPERTY
Coulomb
SciTegic.value.DoubleValue
-8.574

@<SCITEGIC>MOL_PROPERTY
VdW
SciTegic.value.DoubleValue
0.628

@<SCITEGIC>MOL_PROPERTY
VdW6
SciTegic.value.DoubleValue
-3.284

@<SCITEGIC>MOL_PROPERTY
VdW12
SciTegic.value.DoubleValue
3.912

@<SCITEGIC>MOL_PROPERTY
Bond
SciTegic.value.DoubleValue
0.054

@<SCITEGIC>MOL_PROPERTY
Angle
SciTegic.value.DoubleValue
4.034

@<SCITEGIC>MOL_PROPERTY
Pdih
SciTegic.value.DoubleValue
9.702

@<SCITEGIC>MOL_PROPERTY
Idih
SciTegic.value.DoubleValue
0.000

@<SCITEGIC>MOL_PROPERTY
Tether
SciTegic.value.DoubleValue
0.000

@<TRIPOS>MOLECULE
guest-4_confgen4.mol2 : confsearch ligand conformer 581
          16          16           1
SMALL
USER_CHARGES
 
@<TRIPOS>ATOM
       1    C1      19.897734   18.684906   20.929815 C.3        1 MOL1        -0.1689
       2    H1      19.640394   18.269109   19.946124 H          1 MOL1         0.0830
       3    H2      20.656853   19.466124   20.784700 H          1 MOL1         0.0830
       4    C2      20.433581   17.616953   21.893180 C.3        1 MOL1        -0.1689
       5    H3      19.860790   16.687464   21.768128 H          1 MOL1         0.0830
       6    H4      21.495236   17.392572   21.722342 H          1 MOL1         0.0830
       7    C3      20.173979   18.197920   23.295378 C.3        1 MOL1        -0.1765
       8    H5      21.042288   18.787974   23.616252 H          1 MOL1         0.0830
       9    H6      20.016091   17.405063   24.038661 H          1 MOL1         0.0830
      10    C4      18.952131   19.130692   23.165675 C.3        1 MOL1         0.1214
      11    H7      19.196163   20.111494   23.599261 H          1 MOL1         0.0787
      12    C5      18.674380   19.275525   21.654512 C.3        1 MOL1        -0.1765
      13    H8      17.777244   18.705972   21.376056 H          1 MOL1         0.0830
      14    H9      18.509056   20.323601   21.373353 H          1 MOL1         0.0830
      15    O1      17.825875   18.557524   23.819068 O.3        1 MOL1        -0.5512
      16    H10     17.080822   19.183018   23.695854 H          1 MOL1         0.3776
@<TRIPOS>BOND
    1     1     2    1
    2     1     3    1
    3     1     4    1
    4     4     5    1
    5     4     6    1
    6     4     7    1
    7     7     8    1
    8     7     9    1
    9     7    10    1
   10    10    11    1
   11     1    12    1
   12    10    12    1
   13    12    13    1
   14    12    14    1
   15    10    15    1
   16    15    16    1
@<TRIPOS>SUBSTRUCTURE
       1 MOL1            1 RESIDUE      1      MOL     
@<SCITEGIC>MOL_PROPERTY
VConf Rank
SciTegic.value.IntegerValue
581

@<SCITEGIC>MOL_PROPERTY
Conf_Id
SciTegic.value.IntegerValue
33

@<SCITEGIC>MOL_PROPERTY
Delta U+W
SciTegic.value.DoubleValue
0.015

@<SCITEGIC>MOL_PROPERTY
U+W
SciTegic.value.DoubleValue
3.025

@<SCITEGIC>MOL_PROPERTY
Grad RMS
SciTegic.value.DoubleValue
0.000000

@<SCITEGIC>MOL_PROPERTY
U
SciTegic.value.DoubleValue
5.843

@<SCITEGIC>MOL_PROPERTY
W
SciTegic.value.DoubleValue
-2.819

@<SCITEGIC>MOL_PROPERTY
W(PB)
SciTegic.value.DoubleValue
-4.568

@<SCITEGIC>MOL_PROPERTY
W(SA)
SciTegic.value.DoubleValue
1.750

@<SCITEGIC>MOL_PROPERTY
Valence
SciTegic.value.DoubleValue
13.789

@<SCITEGIC>MOL_PROPERTY
Coulomb
SciTegic.value.DoubleValue
-8.574

@<SCITEGIC>MOL_PROPERTY
VdW
SciTegic.value.DoubleValue
0.628

@<SCITEGIC>MOL_PROPERTY
VdW6
SciTegic.value.DoubleValue
-3.284

@<SCITEGIC>MOL_PROPERTY
VdW12
SciTegic.value.DoubleValue
3.913

@<SCITEGIC>MOL_PROPERTY
Bond
SciTegic.value.DoubleValue
0.054

@<SCITEGIC>MOL_PROPERTY
Angle
SciTegic.value.DoubleValue
4.033

@<SCITEGIC>MOL_PROPERTY
Pdih
SciTegic.value.DoubleValue
9.702

@<SCITEGIC>MOL_PROPERTY
Idih
SciTegic.value.DoubleValue
0.000

@<SCITEGIC>MOL_PROPERTY
Tether
SciTegic.value.DoubleValue
0.000

@<TRIPOS>MOLECULE
guest-4_confgen4.mol2 : confsearch ligand conformer 582
          16          16           1
SMALL
USER_CHARGES
 
@<TRIPOS>ATOM
       1    C1      19.387549   18.120123   23.500961 C.3        1 MOL1        -0.1689
       2    H1      19.264203   17.029819   23.557970 H          1 MOL1         0.0830
       3    H2      19.503659   18.496487   24.526566 H          1 MOL1         0.0830
       4    C2      18.164871   18.751059   22.799535 C.3        1 MOL1        -0.1689
       5    H3      17.449309   17.966234   22.518025 H          1 MOL1         0.0830
       6    H4      17.641971   19.458257   23.457901 H          1 MOL1         0.0830
       7    C3      18.701737   19.460435   21.538188 C.3        1 MOL1        -0.1765
       8    H5      18.835190   20.529996   21.747594 H          1 MOL1         0.0830
       9    H6      18.015281   19.369972   20.685779 H          1 MOL1         0.0830
      10    C4      20.072733   18.834363   21.249404 C.3        1 MOL1         0.1214
      11    H7      20.736039   19.537091   20.724827 H          1 MOL1         0.0787
      12    C5      20.617496   18.472981   22.637781 C.3        1 MOL1        -0.1765
      13    H8      21.347095   17.653164   22.597911 H          1 MOL1         0.0830
      14    H9      21.123637   19.350354   23.061644 H          1 MOL1         0.0830
      15    O1      19.894128   17.645684   20.493132 O.3        1 MOL1        -0.5512
      16    H10     19.296856   17.087743   21.032697 H          1 MOL1         0.3776
@<TRIPOS>BOND
    1     1     2    1
    2     1     3    1
    3     1     4    1
    4     4     5    1
    5     4     6    1
    6     4     7    1
    7     7     8    1
    8     7     9    1
    9     7    10    1
   10    10    11    1
   11     1    12    1
   12    10    12    1
   13    12    13    1
   14    12    14    1
   15    10    15    1
   16    15    16    1
@<TRIPOS>SUBSTRUCTURE
       1 MOL1            1 RESIDUE      1      MOL     
@<SCITEGIC>MOL_PROPERTY
VConf Rank
SciTegic.value.IntegerValue
582

@<SCITEGIC>MOL_PROPERTY
Conf_Id
SciTegic.value.IntegerValue
20

@<SCITEGIC>MOL_PROPERTY
Delta U+W
SciTegic.value.DoubleValue
-0.483

@<SCITEGIC>MOL_PROPERTY
U+W
SciTegic.value.DoubleValue
2.527

@<SCITEGIC>MOL_PROPERTY
Grad RMS
SciTegic.value.DoubleValue
0.000000

@<SCITEGIC>MOL_PROPERTY
U
SciTegic.value.DoubleValue
4.508

@<SCITEGIC>MOL_PROPERTY
W
SciTegic.value.DoubleValue
-1.981

@<SCITEGIC>MOL_PROPERTY
W(PB)
SciTegic.value.DoubleValue
-3.712

@<SCITEGIC>MOL_PROPERTY
W(SA)
SciTegic.value.DoubleValue
1.732

@<SCITEGIC>MOL_PROPERTY
Valence
SciTegic.value.DoubleValue
14.705

@<SCITEGIC>MOL_PROPERTY
Coulomb
SciTegic.value.DoubleValue
-10.687

@<SCITEGIC>MOL_PROPERTY
VdW
SciTegic.value.DoubleValue
0.490

@<SCITEGIC>MOL_PROPERTY
VdW6
SciTegic.value.DoubleValue
-3.745

@<SCITEGIC>MOL_PROPERTY
VdW12
SciTegic.value.DoubleValue
4.235

@<SCITEGIC>MOL_PROPERTY
Bond
SciTegic.value.DoubleValue
0.068

@<SCITEGIC>MOL_PROPERTY
Angle
SciTegic.value.DoubleValue
3.901

@<SCITEGIC>MOL_PROPERTY
Pdih
SciTegic.value.DoubleValue
10.737

@<SCITEGIC>MOL_PROPERTY
Idih
SciTegic.value.DoubleValue
0.000

@<SCITEGIC>MOL_PROPERTY
Tether
SciTegic.value.DoubleValue
0.000

@<TRIPOS>MOLECULE
guest-4_confgen4.mol2 : confsearch ligand conformer 583
          16          16           1
SMALL
USER_CHARGES
 
@<TRIPOS>ATOM
       1    C1      19.305608   20.006830   22.291271 C.3        1 MOL1        -0.1689
       2    H1      18.322961   20.249066   21.863017 H          1 MOL1         0.0830
       3    H2      19.801156   20.947001   22.569039 H          1 MOL1         0.0830
       4    C2      20.121121   19.191291   21.278571 C.3        1 MOL1        -0.1689
       5    H3      19.990073   19.551848   20.249210 H          1 MOL1         0.0830
       6    H4      21.189163   19.251109   21.530234 H          1 MOL1         0.0830
       7    C3      19.623118   17.745855   21.460957 C.3        1 MOL1        -0.1765
       8    H5      20.407844   17.017635   21.218577 H          1 MOL1         0.0830
       9    H6      18.775483   17.565766   20.785776 H          1 MOL1         0.0830
      10    C4      19.170746   17.624007   22.931396 C.3        1 MOL1         0.1214
      11    H7      19.902212   17.033848   23.502525 H          1 MOL1         0.0787
      12    C5      19.125443   19.060327   23.492439 C.3        1 MOL1        -0.1765
      13    H8      18.192573   19.267147   24.033733 H          1 MOL1         0.0830
      14    H9      19.956773   19.196019   24.196398 H          1 MOL1         0.0830
      15    O1      17.880166   17.029417   23.000332 O.3        1 MOL1        -0.5512
      16    H10     17.965126   16.128370   22.622935 H          1 MOL1         0.3776
@<TRIPOS>BOND
    1     1     2    1
    2     1     3    1
    3     1     4    1
    4     4     5    1
    5     4     6    1
    6     4     7    1
    7     7     8    1
    8     7     9    1
    9     7    10    1
   10    10    11    1
   11     1    12    1
   12    10    12    1
   13    12    13    1
   14    12    14    1
   15    10    15    1
   16    15    16    1
@<TRIPOS>SUBSTRUCTURE
       1 MOL1            1 RESIDUE      1      MOL     
@<SCITEGIC>MOL_PROPERTY
VConf Rank
SciTegic.value.IntegerValue
583

@<SCITEGIC>MOL_PROPERTY
Conf_Id
SciTegic.value.IntegerValue
59

@<SCITEGIC>MOL_PROPERTY
Delta U+W
SciTegic.value.DoubleValue
0.000

@<SCITEGIC>MOL_PROPERTY
U+W
SciTegic.value.DoubleValue
3.010

@<SCITEGIC>MOL_PROPERTY
Grad RMS
SciTegic.value.DoubleValue
0.000000

@<SCITEGIC>MOL_PROPERTY
U
SciTegic.value.DoubleValue
5.843

@<SCITEGIC>MOL_PROPERTY
W
SciTegic.value.DoubleValue
-2.833

@<SCITEGIC>MOL_PROPERTY
W(PB)
SciTegic.value.DoubleValue
-4.568

@<SCITEGIC>MOL_PROPERTY
W(SA)
SciTegic.value.DoubleValue
1.735

@<SCITEGIC>MOL_PROPERTY
Valence
SciTegic.value.DoubleValue
13.789

@<SCITEGIC>MOL_PROPERTY
Coulomb
SciTegic.value.DoubleValue
-8.574

@<SCITEGIC>MOL_PROPERTY
VdW
SciTegic.value.DoubleValue
0.628

@<SCITEGIC>MOL_PROPERTY
VdW6
SciTegic.value.DoubleValue
-3.284

@<SCITEGIC>MOL_PROPERTY
VdW12
SciTegic.value.DoubleValue
3.912

@<SCITEGIC>MOL_PROPERTY
Bond
SciTegic.value.DoubleValue
0.054

@<SCITEGIC>MOL_PROPERTY
Angle
SciTegic.value.DoubleValue
4.034

@<SCITEGIC>MOL_PROPERTY
Pdih
SciTegic.value.DoubleValue
9.702

@<SCITEGIC>MOL_PROPERTY
Idih
SciTegic.value.DoubleValue
0.000

@<SCITEGIC>MOL_PROPERTY
Tether
SciTegic.value.DoubleValue
0.000

@<TRIPOS>MOLECULE
guest-4_confgen4.mol2 : confsearch ligand conformer 584
          16          16           1
SMALL
USER_CHARGES
 
@<TRIPOS>ATOM
       1    C1      19.952965   17.452933   21.610030 C.3        1 MOL1        -0.1689
       2    H1      20.479199   17.196230   20.680546 H          1 MOL1         0.0830
       3    H2      19.899254   16.550562   22.234901 H          1 MOL1         0.0830
       4    C2      18.537397   17.986759   21.351332 C.3        1 MOL1        -0.1689
       5    H3      18.546299   18.641545   20.468804 H          1 MOL1         0.0830
       6    H4      17.811093   17.181706   21.175224 H          1 MOL1         0.0830
       7    C3      18.203208   18.815813   22.605151 C.3        1 MOL1        -0.1765
       8    H5      17.722169   18.173424   23.354167 H          1 MOL1         0.0830
       9    H6      17.510471   19.636175   22.374628 H          1 MOL1         0.0830
      10    C4      19.546826   19.324450   23.167090 C.3        1 MOL1         0.1214
      11    H7      19.610407   19.076668   24.236707 H          1 MOL1         0.0787
      12    C5      20.652828   18.583352   22.386533 C.3        1 MOL1        -0.1765
      13    H8      21.139279   19.265223   21.675759 H          1 MOL1         0.0830
      14    H9      21.426008   18.189250   23.058636 H          1 MOL1         0.0830
      15    O1      19.661919   20.728350   22.967802 O.3        1 MOL1        -0.5512
      16    H10     20.533294   20.993469   23.331048 H          1 MOL1         0.3776
@<TRIPOS>BOND
    1     1     2    1
    2     1     3    1
    3     1     4    1
    4     4     5    1
    5     4     6    1
    6     4     7    1
    7     7     8    1
    8     7     9    1
    9     7    10    1
   10    10    11    1
   11     1    12    1
   12    10    12    1
   13    12    13    1
   14    12    14    1
   15    10    15    1
   16    15    16    1
@<TRIPOS>SUBSTRUCTURE
       1 MOL1            1 RESIDUE      1      MOL     
@<SCITEGIC>MOL_PROPERTY
VConf Rank
SciTegic.value.IntegerValue
584

@<SCITEGIC>MOL_PROPERTY
Conf_Id
SciTegic.value.IntegerValue
33

@<SCITEGIC>MOL_PROPERTY
Delta U+W
SciTegic.value.DoubleValue
0.015

@<SCITEGIC>MOL_PROPERTY
U+W
SciTegic.value.DoubleValue
3.025

@<SCITEGIC>MOL_PROPERTY
Grad RMS
SciTegic.value.DoubleValue
0.000000

@<SCITEGIC>MOL_PROPERTY
U
SciTegic.value.DoubleValue
5.843

@<SCITEGIC>MOL_PROPERTY
W
SciTegic.value.DoubleValue
-2.819

@<SCITEGIC>MOL_PROPERTY
W(PB)
SciTegic.value.DoubleValue
-4.568

@<SCITEGIC>MOL_PROPERTY
W(SA)
SciTegic.value.DoubleValue
1.750

@<SCITEGIC>MOL_PROPERTY
Valence
SciTegic.value.DoubleValue
13.789

@<SCITEGIC>MOL_PROPERTY
Coulomb
SciTegic.value.DoubleValue
-8.574

@<SCITEGIC>MOL_PROPERTY
VdW
SciTegic.value.DoubleValue
0.628

@<SCITEGIC>MOL_PROPERTY
VdW6
SciTegic.value.DoubleValue
-3.284

@<SCITEGIC>MOL_PROPERTY
VdW12
SciTegic.value.DoubleValue
3.913

@<SCITEGIC>MOL_PROPERTY
Bond
SciTegic.value.DoubleValue
0.054

@<SCITEGIC>MOL_PROPERTY
Angle
SciTegic.value.DoubleValue
4.033

@<SCITEGIC>MOL_PROPERTY
Pdih
SciTegic.value.DoubleValue
9.702

@<SCITEGIC>MOL_PROPERTY
Idih
SciTegic.value.DoubleValue
0.000

@<SCITEGIC>MOL_PROPERTY
Tether
SciTegic.value.DoubleValue
0.000

@<TRIPOS>MOLECULE
guest-4_confgen4.mol2 : confsearch ligand conformer 585
          16          16           1
SMALL
USER_CHARGES
 
@<TRIPOS>ATOM
       1    C1      19.324116   19.387058   23.343739 C.3        1 MOL1        -0.1689
       2    H1      18.818920   20.349931   23.185998 H          1 MOL1         0.0830
       3    H2      19.632628   19.341178   24.397168 H          1 MOL1         0.0830
       4    C2      20.534253   19.266706   22.391843 C.3        1 MOL1        -0.1689
       5    H3      20.615357   20.171760   21.774166 H          1 MOL1         0.0830
       6    H4      21.475713   19.156843   22.947344 H          1 MOL1         0.0830
       7    C3      20.269086   18.034832   21.500435 C.3        1 MOL1        -0.1765
       8    H5      20.803713   17.166090   21.906737 H          1 MOL1         0.0830
       9    H6      20.612857   18.186044   20.468465 H          1 MOL1         0.0830
      10    C4      18.759219   17.771459   21.577427 C.3        1 MOL1         0.1214
      11    H7      18.524794   16.709814   21.413300 H          1 MOL1         0.0787
      12    C5      18.373718   18.222663   22.992616 C.3        1 MOL1        -0.1765
      13    H8      17.316766   18.512206   23.063471 H          1 MOL1         0.0830
      14    H9      18.539674   17.390703   23.689698 H          1 MOL1         0.0830
      15    O1      18.092607   18.590207   20.627644 O.3        1 MOL1        -0.5512
      16    H10     18.358331   19.506270   20.849865 H          1 MOL1         0.3776
@<TRIPOS>BOND
    1     1     2    1
    2     1     3    1
    3     1     4    1
    4     4     5    1
    5     4     6    1
    6     4     7    1
    7     7     8    1
    8     7     9    1
    9     7    10    1
   10    10    11    1
   11     1    12    1
   12    10    12    1
   13    12    13    1
   14    12    14    1
   15    10    15    1
   16    15    16    1
@<TRIPOS>SUBSTRUCTURE
       1 MOL1            1 RESIDUE      1      MOL     
@<SCITEGIC>MOL_PROPERTY
VConf Rank
SciTegic.value.IntegerValue
585

@<SCITEGIC>MOL_PROPERTY
Conf_Id
SciTegic.value.IntegerValue
20

@<SCITEGIC>MOL_PROPERTY
Delta U+W
SciTegic.value.DoubleValue
-0.483

@<SCITEGIC>MOL_PROPERTY
U+W
SciTegic.value.DoubleValue
2.527

@<SCITEGIC>MOL_PROPERTY
Grad RMS
SciTegic.value.DoubleValue
0.000000

@<SCITEGIC>MOL_PROPERTY
U
SciTegic.value.DoubleValue
4.508

@<SCITEGIC>MOL_PROPERTY
W
SciTegic.value.DoubleValue
-1.981

@<SCITEGIC>MOL_PROPERTY
W(PB)
SciTegic.value.DoubleValue
-3.712

@<SCITEGIC>MOL_PROPERTY
W(SA)
SciTegic.value.DoubleValue
1.732

@<SCITEGIC>MOL_PROPERTY
Valence
SciTegic.value.DoubleValue
14.705

@<SCITEGIC>MOL_PROPERTY
Coulomb
SciTegic.value.DoubleValue
-10.687

@<SCITEGIC>MOL_PROPERTY
VdW
SciTegic.value.DoubleValue
0.490

@<SCITEGIC>MOL_PROPERTY
VdW6
SciTegic.value.DoubleValue
-3.745

@<SCITEGIC>MOL_PROPERTY
VdW12
SciTegic.value.DoubleValue
4.235

@<SCITEGIC>MOL_PROPERTY
Bond
SciTegic.value.DoubleValue
0.068

@<SCITEGIC>MOL_PROPERTY
Angle
SciTegic.value.DoubleValue
3.901

@<SCITEGIC>MOL_PROPERTY
Pdih
SciTegic.value.DoubleValue
10.737

@<SCITEGIC>MOL_PROPERTY
Idih
SciTegic.value.DoubleValue
0.000

@<SCITEGIC>MOL_PROPERTY
Tether
SciTegic.value.DoubleValue
0.000

@<TRIPOS>MOLECULE
guest-4_confgen4.mol2 : confsearch ligand conformer 586
          16          16           1
SMALL
USER_CHARGES
 
@<TRIPOS>ATOM
       1    C1      19.923196   18.649777   23.650273 C.3        1 MOL1        -0.1689
       2    H1      19.253295   19.330271   24.194184 H          1 MOL1         0.0830
       3    H2      20.690670   18.290797   24.349387 H          1 MOL1         0.0830
       4    C2      20.526136   19.378764   22.441651 C.3        1 MOL1        -0.1689
       5    H3      20.789425   20.420429   22.670501 H          1 MOL1         0.0830
       6    H4      21.436517   18.858589   22.112637 H          1 MOL1         0.0830
       7    C3      19.443574   19.273914   21.351870 C.3        1 MOL1        -0.1765
       8    H5      19.884973   19.271870   20.346878 H          1 MOL1         0.0830
       9    H6      18.771170   20.139682   21.423311 H          1 MOL1         0.0830
      10    C4      18.667929   17.969773   21.633422 C.3        1 MOL1         0.1214
      11    H7      18.939581   17.203042   20.893255 H          1 MOL1         0.0787
      12    C5      19.103001   17.499910   23.036908 C.3        1 MOL1        -0.1765
      13    H8      18.247150   17.231110   23.670380 H          1 MOL1         0.0830
      14    H9      19.736125   16.608840   22.935768 H          1 MOL1         0.0830
      15    O1      17.267144   18.217150   21.611188 O.3        1 MOL1        -0.5512
      16    H10     17.049680   18.521613   20.704798 H          1 MOL1         0.3776
@<TRIPOS>BOND
    1     1     2    1
    2     1     3    1
    3     1     4    1
    4     4     5    1
    5     4     6    1
    6     4     7    1
    7     7     8    1
    8     7     9    1
    9     7    10    1
   10    10    11    1
   11     1    12    1
   12    10    12    1
   13    12    13    1
   14    12    14    1
   15    10    15    1
   16    15    16    1
@<TRIPOS>SUBSTRUCTURE
       1 MOL1            1 RESIDUE      1      MOL     
@<SCITEGIC>MOL_PROPERTY
VConf Rank
SciTegic.value.IntegerValue
586

@<SCITEGIC>MOL_PROPERTY
Conf_Id
SciTegic.value.IntegerValue
59

@<SCITEGIC>MOL_PROPERTY
Delta U+W
SciTegic.value.DoubleValue
0.000

@<SCITEGIC>MOL_PROPERTY
U+W
SciTegic.value.DoubleValue
3.010

@<SCITEGIC>MOL_PROPERTY
Grad RMS
SciTegic.value.DoubleValue
0.000000

@<SCITEGIC>MOL_PROPERTY
U
SciTegic.value.DoubleValue
5.843

@<SCITEGIC>MOL_PROPERTY
W
SciTegic.value.DoubleValue
-2.833

@<SCITEGIC>MOL_PROPERTY
W(PB)
SciTegic.value.DoubleValue
-4.568

@<SCITEGIC>MOL_PROPERTY
W(SA)
SciTegic.value.DoubleValue
1.735

@<SCITEGIC>MOL_PROPERTY
Valence
SciTegic.value.DoubleValue
13.789

@<SCITEGIC>MOL_PROPERTY
Coulomb
SciTegic.value.DoubleValue
-8.574

@<SCITEGIC>MOL_PROPERTY
VdW
SciTegic.value.DoubleValue
0.628

@<SCITEGIC>MOL_PROPERTY
VdW6
SciTegic.value.DoubleValue
-3.284

@<SCITEGIC>MOL_PROPERTY
VdW12
SciTegic.value.DoubleValue
3.912

@<SCITEGIC>MOL_PROPERTY
Bond
SciTegic.value.DoubleValue
0.054

@<SCITEGIC>MOL_PROPERTY
Angle
SciTegic.value.DoubleValue
4.034

@<SCITEGIC>MOL_PROPERTY
Pdih
SciTegic.value.DoubleValue
9.702

@<SCITEGIC>MOL_PROPERTY
Idih
SciTegic.value.DoubleValue
0.000

@<SCITEGIC>MOL_PROPERTY
Tether
SciTegic.value.DoubleValue
0.000

@<TRIPOS>MOLECULE
guest-4_confgen4.mol2 : confsearch ligand conformer 587
          16          16           1
SMALL
USER_CHARGES
 
@<TRIPOS>ATOM
       1    C1      18.410407   19.407503   22.878164 C.3        1 MOL1        -0.1689
       2    H1      17.400028   19.764931   22.637048 H          1 MOL1         0.0830
       3    H2      18.622221   19.657839   23.927015 H          1 MOL1         0.0830
       4    C2      19.481701   20.030019   21.972332 C.3        1 MOL1        -0.1689
       5    H3      19.100700   20.096951   20.943723 H          1 MOL1         0.0830
       6    H4      19.772335   21.038064   22.297938 H          1 MOL1         0.0830
       7    C3      20.655451   19.034655   22.023693 C.3        1 MOL1        -0.1765
       8    H5      21.330281   19.302948   22.846923 H          1 MOL1         0.0830
       9    H6      21.240057   19.050575   21.094177 H          1 MOL1         0.0830
      10    C4      20.043440   17.647182   22.306821 C.3        1 MOL1         0.1214
      11    H7      20.565269   17.186851   23.158472 H          1 MOL1         0.0787
      12    C5      18.561857   17.890344   22.663917 C.3        1 MOL1        -0.1765
      13    H8      17.913698   17.573985   21.835310 H          1 MOL1         0.0830
      14    H9      18.264776   17.327390   23.558161 H          1 MOL1         0.0830
      15    O1      20.141009   16.822964   21.151380 O.3        1 MOL1        -0.5512
      16    H10     19.729386   15.963711   21.383284 H          1 MOL1         0.3776
@<TRIPOS>BOND
    1     1     2    1
    2     1     3    1
    3     1     4    1
    4     4     5    1
    5     4     6    1
    6     4     7    1
    7     7     8    1
    8     7     9    1
    9     7    10    1
   10    10    11    1
   11     1    12    1
   12    10    12    1
   13    12    13    1
   14    12    14    1
   15    10    15    1
   16    15    16    1
@<TRIPOS>SUBSTRUCTURE
       1 MOL1            1 RESIDUE      1      MOL     
@<SCITEGIC>MOL_PROPERTY
VConf Rank
SciTegic.value.IntegerValue
587

@<SCITEGIC>MOL_PROPERTY
Conf_Id
SciTegic.value.IntegerValue
33

@<SCITEGIC>MOL_PROPERTY
Delta U+W
SciTegic.value.DoubleValue
0.015

@<SCITEGIC>MOL_PROPERTY
U+W
SciTegic.value.DoubleValue
3.025

@<SCITEGIC>MOL_PROPERTY
Grad RMS
SciTegic.value.DoubleValue
0.000000

@<SCITEGIC>MOL_PROPERTY
U
SciTegic.value.DoubleValue
5.843

@<SCITEGIC>MOL_PROPERTY
W
SciTegic.value.DoubleValue
-2.819

@<SCITEGIC>MOL_PROPERTY
W(PB)
SciTegic.value.DoubleValue
-4.568

@<SCITEGIC>MOL_PROPERTY
W(SA)
SciTegic.value.DoubleValue
1.750

@<SCITEGIC>MOL_PROPERTY
Valence
SciTegic.value.DoubleValue
13.789

@<SCITEGIC>MOL_PROPERTY
Coulomb
SciTegic.value.DoubleValue
-8.574

@<SCITEGIC>MOL_PROPERTY
VdW
SciTegic.value.DoubleValue
0.628

@<SCITEGIC>MOL_PROPERTY
VdW6
SciTegic.value.DoubleValue
-3.284

@<SCITEGIC>MOL_PROPERTY
VdW12
SciTegic.value.DoubleValue
3.913

@<SCITEGIC>MOL_PROPERTY
Bond
SciTegic.value.DoubleValue
0.054

@<SCITEGIC>MOL_PROPERTY
Angle
SciTegic.value.DoubleValue
4.033

@<SCITEGIC>MOL_PROPERTY
Pdih
SciTegic.value.DoubleValue
9.702

@<SCITEGIC>MOL_PROPERTY
Idih
SciTegic.value.DoubleValue
0.000

@<SCITEGIC>MOL_PROPERTY
Tether
SciTegic.value.DoubleValue
0.000

@<TRIPOS>MOLECULE
guest-4_confgen4.mol2 : confsearch ligand conformer 588
          16          16           1
SMALL
USER_CHARGES
 
@<TRIPOS>ATOM
       1    C1      19.718556   17.773039   23.242109 C.3        1 MOL1        -0.1689
       2    H1      20.754415   17.883233   23.591509 H          1 MOL1         0.0830
       3    H2      19.245993   16.984514   23.843699 H          1 MOL1         0.0830
       4    C2      19.705995   17.424061   21.737756 C.3        1 MOL1        -0.1689
       5    H3      20.735780   17.364319   21.359339 H          1 MOL1         0.0830
       6    H4      19.225933   16.453417   21.552309 H          1 MOL1         0.0830
       7    C3      18.943308   18.564351   21.030306 C.3        1 MOL1        -0.1765
       8    H5      17.900524   18.261942   20.866689 H          1 MOL1         0.0830
       9    H6      19.377091   18.810991   20.052039 H          1 MOL1         0.0830
      10    C4      18.970659   19.756992   21.995631 C.3        1 MOL1         0.1214
      11    H7      18.102242   20.415477   21.849917 H          1 MOL1         0.0787
      12    C5      18.961918   19.110483   23.387359 C.3        1 MOL1        -0.1765
      13    H8      19.408989   19.760872   24.150986 H          1 MOL1         0.0830
      14    H9      17.922792   18.913923   23.682661 H          1 MOL1         0.0830
      15    O1      20.184483   20.472986   21.820156 O.3        1 MOL1        -0.5512
      16    H10     20.893074   19.813163   21.967449 H          1 MOL1         0.3776
@<TRIPOS>BOND
    1     1     2    1
    2     1     3    1
    3     1     4    1
    4     4     5    1
    5     4     6    1
    6     4     7    1
    7     7     8    1
    8     7     9    1
    9     7    10    1
   10    10    11    1
   11     1    12    1
   12    10    12    1
   13    12    13    1
   14    12    14    1
   15    10    15    1
   16    15    16    1
@<TRIPOS>SUBSTRUCTURE
       1 MOL1            1 RESIDUE      1      MOL     
@<SCITEGIC>MOL_PROPERTY
VConf Rank
SciTegic.value.IntegerValue
588

@<SCITEGIC>MOL_PROPERTY
Conf_Id
SciTegic.value.IntegerValue
20

@<SCITEGIC>MOL_PROPERTY
Delta U+W
SciTegic.value.DoubleValue
-0.483

@<SCITEGIC>MOL_PROPERTY
U+W
SciTegic.value.DoubleValue
2.527

@<SCITEGIC>MOL_PROPERTY
Grad RMS
SciTegic.value.DoubleValue
0.000000

@<SCITEGIC>MOL_PROPERTY
U
SciTegic.value.DoubleValue
4.508

@<SCITEGIC>MOL_PROPERTY
W
SciTegic.value.DoubleValue
-1.981

@<SCITEGIC>MOL_PROPERTY
W(PB)
SciTegic.value.DoubleValue
-3.712

@<SCITEGIC>MOL_PROPERTY
W(SA)
SciTegic.value.DoubleValue
1.732

@<SCITEGIC>MOL_PROPERTY
Valence
SciTegic.value.DoubleValue
14.705

@<SCITEGIC>MOL_PROPERTY
Coulomb
SciTegic.value.DoubleValue
-10.687

@<SCITEGIC>MOL_PROPERTY
VdW
SciTegic.value.DoubleValue
0.490

@<SCITEGIC>MOL_PROPERTY
VdW6
SciTegic.value.DoubleValue
-3.745

@<SCITEGIC>MOL_PROPERTY
VdW12
SciTegic.value.DoubleValue
4.235

@<SCITEGIC>MOL_PROPERTY
Bond
SciTegic.value.DoubleValue
0.068

@<SCITEGIC>MOL_PROPERTY
Angle
SciTegic.value.DoubleValue
3.901

@<SCITEGIC>MOL_PROPERTY
Pdih
SciTegic.value.DoubleValue
10.737

@<SCITEGIC>MOL_PROPERTY
Idih
SciTegic.value.DoubleValue
0.000

@<SCITEGIC>MOL_PROPERTY
Tether
SciTegic.value.DoubleValue
0.000

@<TRIPOS>MOLECULE
guest-4_confgen4.mol2 : confsearch ligand conformer 589
          16          16           1
SMALL
USER_CHARGES
 
@<TRIPOS>ATOM
       1    C1      18.252145   17.867391   21.666834 C.3        1 MOL1        -0.1689
       2    H1      18.676033   16.917771   21.311562 H          1 MOL1         0.0830
       3    H2      17.177914   17.871948   21.437375 H          1 MOL1         0.0830
       4    C2      18.996289   19.039537   21.012579 C.3        1 MOL1        -0.1689
       5    H3      19.232031   18.847924   19.956895 H          1 MOL1         0.0830
       6    H4      18.378290   19.946558   21.067485 H          1 MOL1         0.0830
       7    C3      20.261033   19.218095   21.872287 C.3        1 MOL1        -0.1765
       8    H5      20.604081   20.260763   21.869434 H          1 MOL1         0.0830
       9    H6      21.068916   18.595964   21.463555 H          1 MOL1         0.0830
      10    C4      19.890391   18.746752   23.294307 C.3        1 MOL1         0.1214
      11    H7      19.782819   19.613896   23.962145 H          1 MOL1         0.0787
      12    C5      18.532056   18.025655   23.172734 C.3        1 MOL1        -0.1765
      13    H8      18.527050   17.056347   23.688909 H          1 MOL1         0.0830
      14    H9      17.753045   18.650463   23.628629 H          1 MOL1         0.0830
      15    O1      20.879091   17.850750   23.787806 O.3        1 MOL1        -0.5512
      16    H10     21.718385   18.355721   23.833874 H          1 MOL1         0.3776
@<TRIPOS>BOND
    1     1     2    1
    2     1     3    1
    3     1     4    1
    4     4     5    1
    5     4     6    1
    6     4     7    1
    7     7     8    1
    8     7     9    1
    9     7    10    1
   10    10    11    1
   11     1    12    1
   12    10    12    1
   13    12    13    1
   14    12    14    1
   15    10    15    1
   16    15    16    1
@<TRIPOS>SUBSTRUCTURE
       1 MOL1            1 RESIDUE      1      MOL     
@<SCITEGIC>MOL_PROPERTY
VConf Rank
SciTegic.value.IntegerValue
589

@<SCITEGIC>MOL_PROPERTY
Conf_Id
SciTegic.value.IntegerValue
59

@<SCITEGIC>MOL_PROPERTY
Delta U+W
SciTegic.value.DoubleValue
0.000

@<SCITEGIC>MOL_PROPERTY
U+W
SciTegic.value.DoubleValue
3.010

@<SCITEGIC>MOL_PROPERTY
Grad RMS
SciTegic.value.DoubleValue
0.000000

@<SCITEGIC>MOL_PROPERTY
U
SciTegic.value.DoubleValue
5.843

@<SCITEGIC>MOL_PROPERTY
W
SciTegic.value.DoubleValue
-2.833

@<SCITEGIC>MOL_PROPERTY
W(PB)
SciTegic.value.DoubleValue
-4.568

@<SCITEGIC>MOL_PROPERTY
W(SA)
SciTegic.value.DoubleValue
1.735

@<SCITEGIC>MOL_PROPERTY
Valence
SciTegic.value.DoubleValue
13.789

@<SCITEGIC>MOL_PROPERTY
Coulomb
SciTegic.value.DoubleValue
-8.574

@<SCITEGIC>MOL_PROPERTY
VdW
SciTegic.value.DoubleValue
0.628

@<SCITEGIC>MOL_PROPERTY
VdW6
SciTegic.value.DoubleValue
-3.284

@<SCITEGIC>MOL_PROPERTY
VdW12
SciTegic.value.DoubleValue
3.912

@<SCITEGIC>MOL_PROPERTY
Bond
SciTegic.value.DoubleValue
0.054

@<SCITEGIC>MOL_PROPERTY
Angle
SciTegic.value.DoubleValue
4.034

@<SCITEGIC>MOL_PROPERTY
Pdih
SciTegic.value.DoubleValue
9.702

@<SCITEGIC>MOL_PROPERTY
Idih
SciTegic.value.DoubleValue
0.000

@<SCITEGIC>MOL_PROPERTY
Tether
SciTegic.value.DoubleValue
0.000

@<TRIPOS>MOLECULE
guest-4_confgen4.mol2 : confsearch ligand conformer 590
          16          16           1
SMALL
USER_CHARGES
 
@<TRIPOS>ATOM
       1    C1      20.658807   19.014732   22.957430 C.3        1 MOL1        -0.1689
       2    H1      21.302064   18.687687   23.785694 H          1 MOL1         0.0830
       3    H2      21.167333   19.833961   22.430281 H          1 MOL1         0.0830
       4    C2      19.280843   19.488089   23.440001 C.3        1 MOL1        -0.1689
       5    H3      18.928157   18.831903   24.247906 H          1 MOL1         0.0830
       6    H4      19.300129   20.519333   23.817900 H          1 MOL1         0.0830
       7    C3      18.366880   19.329620   22.210921 C.3        1 MOL1        -0.1765
       8    H5      18.375118   20.257047   21.623643 H          1 MOL1         0.0830
       9    H6      17.327509   19.128804   22.503152 H          1 MOL1         0.0830
      10    C4      18.966618   18.190583   21.360798 C.3        1 MOL1         0.1214
      11    H7      19.083458   18.534760   20.322814 H          1 MOL1         0.0787
      12    C5      20.348324   17.874005   21.971046 C.3        1 MOL1        -0.1765
      13    H8      20.314212   16.921161   22.516670 H          1 MOL1         0.0830
      14    H9      21.122001   17.791598   21.196785 H          1 MOL1         0.0830
      15    O1      18.129380   17.041875   21.419106 O.3        1 MOL1        -0.5512
      16    H10     18.561784   16.350754   20.874212 H          1 MOL1         0.3776
@<TRIPOS>BOND
    1     1     2    1
    2     1     3    1
    3     1     4    1
    4     4     5    1
    5     4     6    1
    6     4     7    1
    7     7     8    1
    8     7     9    1
    9     7    10    1
   10    10    11    1
   11     1    12    1
   12    10    12    1
   13    12    13    1
   14    12    14    1
   15    10    15    1
   16    15    16    1
@<TRIPOS>SUBSTRUCTURE
       1 MOL1            1 RESIDUE      1      MOL     
@<SCITEGIC>MOL_PROPERTY
VConf Rank
SciTegic.value.IntegerValue
590

@<SCITEGIC>MOL_PROPERTY
Conf_Id
SciTegic.value.IntegerValue
33

@<SCITEGIC>MOL_PROPERTY
Delta U+W
SciTegic.value.DoubleValue
0.015

@<SCITEGIC>MOL_PROPERTY
U+W
SciTegic.value.DoubleValue
3.025

@<SCITEGIC>MOL_PROPERTY
Grad RMS
SciTegic.value.DoubleValue
0.000000

@<SCITEGIC>MOL_PROPERTY
U
SciTegic.value.DoubleValue
5.843

@<SCITEGIC>MOL_PROPERTY
W
SciTegic.value.DoubleValue
-2.819

@<SCITEGIC>MOL_PROPERTY
W(PB)
SciTegic.value.DoubleValue
-4.568

@<SCITEGIC>MOL_PROPERTY
W(SA)
SciTegic.value.DoubleValue
1.750

@<SCITEGIC>MOL_PROPERTY
Valence
SciTegic.value.DoubleValue
13.789

@<SCITEGIC>MOL_PROPERTY
Coulomb
SciTegic.value.DoubleValue
-8.574

@<SCITEGIC>MOL_PROPERTY
VdW
SciTegic.value.DoubleValue
0.628

@<SCITEGIC>MOL_PROPERTY
VdW6
SciTegic.value.DoubleValue
-3.284

@<SCITEGIC>MOL_PROPERTY
VdW12
SciTegic.value.DoubleValue
3.913

@<SCITEGIC>MOL_PROPERTY
Bond
SciTegic.value.DoubleValue
0.054

@<SCITEGIC>MOL_PROPERTY
Angle
SciTegic.value.DoubleValue
4.033

@<SCITEGIC>MOL_PROPERTY
Pdih
SciTegic.value.DoubleValue
9.702

@<SCITEGIC>MOL_PROPERTY
Idih
SciTegic.value.DoubleValue
0.000

@<SCITEGIC>MOL_PROPERTY
Tether
SciTegic.value.DoubleValue
0.000

@<TRIPOS>MOLECULE
guest-4_confgen4.mol2 : confsearch ligand conformer 591
          16          16           1
SMALL
USER_CHARGES
 
@<TRIPOS>ATOM
       1    C1      20.692980   18.844311   22.218070 C.3        1 MOL1        -0.1689
       2    H1      21.025485   19.668038   22.864709 H          1 MOL1         0.0830
       3    H2      21.581712   18.429868   21.722702 H          1 MOL1         0.0830
       4    C2      19.662147   19.364808   21.192649 C.3        1 MOL1        -0.1689
       5    H3      19.496552   20.440634   21.342323 H          1 MOL1         0.0830
       6    H4      20.011219   19.221705   20.160821 H          1 MOL1         0.0830
       7    C3      18.356090   18.583465   21.449853 C.3        1 MOL1        -0.1765
       8    H5      18.283659   17.746939   20.742323 H          1 MOL1         0.0830
       9    H6      17.463643   19.209915   21.319067 H          1 MOL1         0.0830
      10    C4      18.469338   18.023164   22.874012 C.3        1 MOL1         0.1214
      11    H7      17.884191   17.099934   22.993312 H          1 MOL1         0.0787
      12    C5      19.971478   17.767117   23.055593 C.3        1 MOL1        -0.1765
      13    H8      20.272691   17.789810   24.111415 H          1 MOL1         0.0830
      14    H9      20.213842   16.771801   22.660336 H          1 MOL1         0.0830
      15    O1      18.048247   19.013224   23.800981 O.3        1 MOL1        -0.5512
      16    H10     18.618478   19.789029   23.621747 H          1 MOL1         0.3776
@<TRIPOS>BOND
    1     1     2    1
    2     1     3    1
    3     1     4    1
    4     4     5    1
    5     4     6    1
    6     4     7    1
    7     7     8    1
    8     7     9    1
    9     7    10    1
   10    10    11    1
   11     1    12    1
   12    10    12    1
   13    12    13    1
   14    12    14    1
   15    10    15    1
   16    15    16    1
@<TRIPOS>SUBSTRUCTURE
       1 MOL1            1 RESIDUE      1      MOL     
@<SCITEGIC>MOL_PROPERTY
VConf Rank
SciTegic.value.IntegerValue
591

@<SCITEGIC>MOL_PROPERTY
Conf_Id
SciTegic.value.IntegerValue
20

@<SCITEGIC>MOL_PROPERTY
Delta U+W
SciTegic.value.DoubleValue
-0.483

@<SCITEGIC>MOL_PROPERTY
U+W
SciTegic.value.DoubleValue
2.527

@<SCITEGIC>MOL_PROPERTY
Grad RMS
SciTegic.value.DoubleValue
0.000000

@<SCITEGIC>MOL_PROPERTY
U
SciTegic.value.DoubleValue
4.508

@<SCITEGIC>MOL_PROPERTY
W
SciTegic.value.DoubleValue
-1.981

@<SCITEGIC>MOL_PROPERTY
W(PB)
SciTegic.value.DoubleValue
-3.712

@<SCITEGIC>MOL_PROPERTY
W(SA)
SciTegic.value.DoubleValue
1.732

@<SCITEGIC>MOL_PROPERTY
Valence
SciTegic.value.DoubleValue
14.705

@<SCITEGIC>MOL_PROPERTY
Coulomb
SciTegic.value.DoubleValue
-10.687

@<SCITEGIC>MOL_PROPERTY
VdW
SciTegic.value.DoubleValue
0.490

@<SCITEGIC>MOL_PROPERTY
VdW6
SciTegic.value.DoubleValue
-3.745

@<SCITEGIC>MOL_PROPERTY
VdW12
SciTegic.value.DoubleValue
4.235

@<SCITEGIC>MOL_PROPERTY
Bond
SciTegic.value.DoubleValue
0.068

@<SCITEGIC>MOL_PROPERTY
Angle
SciTegic.value.DoubleValue
3.901

@<SCITEGIC>MOL_PROPERTY
Pdih
SciTegic.value.DoubleValue
10.737

@<SCITEGIC>MOL_PROPERTY
Idih
SciTegic.value.DoubleValue
0.000

@<SCITEGIC>MOL_PROPERTY
Tether
SciTegic.value.DoubleValue
0.000

@<TRIPOS>MOLECULE
guest-4_confgen4.mol2 : confsearch ligand conformer 592
          16          16           1
SMALL
USER_CHARGES
 
@<TRIPOS>ATOM
       1    C1      19.665258   18.369611   20.905132 C.3        1 MOL1        -0.1689
       2    H1      18.749015   17.949776   20.467053 H          1 MOL1         0.0830
       3    H2      20.393800   18.523134   20.097481 H          1 MOL1         0.0830
       4    C2      20.190959   17.428545   21.997726 C.3        1 MOL1        -0.1689
       5    H3      20.091170   16.370081   21.721219 H          1 MOL1         0.0830
       6    H4      21.253812   17.636167   22.184439 H          1 MOL1         0.0830
       7    C3      19.362897   17.788946   23.244716 C.3        1 MOL1        -0.1765
       8    H5      19.926997   17.604073   24.168003 H          1 MOL1         0.0830
       9    H6      18.457835   17.166931   23.271994 H          1 MOL1         0.0830
      10    C4      18.984202   19.278000   23.099849 C.3        1 MOL1         0.1214
      11    H7      19.580129   19.887247   23.794982 H          1 MOL1         0.0787
      12    C5      19.329557   19.675008   21.649695 C.3        1 MOL1        -0.1765
      13    H8      18.511311   20.220349   21.160718 H          1 MOL1         0.0830
      14    H9      20.209612   20.331143   21.658132 H          1 MOL1         0.0830
      15    O1      17.593263   19.456363   23.339357 O.3        1 MOL1        -0.5512
      16    H10     17.429751   19.180162   24.265915 H          1 MOL1         0.3776
@<TRIPOS>BOND
    1     1     2    1
    2     1     3    1
    3     1     4    1
    4     4     5    1
    5     4     6    1
    6     4     7    1
    7     7     8    1
    8     7     9    1
    9     7    10    1
   10    10    11    1
   11     1    12    1
   12    10    12    1
   13    12    13    1
   14    12    14    1
   15    10    15    1
   16    15    16    1
@<TRIPOS>SUBSTRUCTURE
       1 MOL1            1 RESIDUE      1      MOL     
@<SCITEGIC>MOL_PROPERTY
VConf Rank
SciTegic.value.IntegerValue
592

@<SCITEGIC>MOL_PROPERTY
Conf_Id
SciTegic.value.IntegerValue
59

@<SCITEGIC>MOL_PROPERTY
Delta U+W
SciTegic.value.DoubleValue
0.000

@<SCITEGIC>MOL_PROPERTY
U+W
SciTegic.value.DoubleValue
3.010

@<SCITEGIC>MOL_PROPERTY
Grad RMS
SciTegic.value.DoubleValue
0.000000

@<SCITEGIC>MOL_PROPERTY
U
SciTegic.value.DoubleValue
5.843

@<SCITEGIC>MOL_PROPERTY
W
SciTegic.value.DoubleValue
-2.833

@<SCITEGIC>MOL_PROPERTY
W(PB)
SciTegic.value.DoubleValue
-4.568

@<SCITEGIC>MOL_PROPERTY
W(SA)
SciTegic.value.DoubleValue
1.735

@<SCITEGIC>MOL_PROPERTY
Valence
SciTegic.value.DoubleValue
13.789

@<SCITEGIC>MOL_PROPERTY
Coulomb
SciTegic.value.DoubleValue
-8.574

@<SCITEGIC>MOL_PROPERTY
VdW
SciTegic.value.DoubleValue
0.628

@<SCITEGIC>MOL_PROPERTY
VdW6
SciTegic.value.DoubleValue
-3.284

@<SCITEGIC>MOL_PROPERTY
VdW12
SciTegic.value.DoubleValue
3.912

@<SCITEGIC>MOL_PROPERTY
Bond
SciTegic.value.DoubleValue
0.054

@<SCITEGIC>MOL_PROPERTY
Angle
SciTegic.value.DoubleValue
4.034

@<SCITEGIC>MOL_PROPERTY
Pdih
SciTegic.value.DoubleValue
9.702

@<SCITEGIC>MOL_PROPERTY
Idih
SciTegic.value.DoubleValue
0.000

@<SCITEGIC>MOL_PROPERTY
Tether
SciTegic.value.DoubleValue
0.000

@<TRIPOS>MOLECULE
guest-4_confgen4.mol2 : confsearch ligand conformer 593
          16          16           1
SMALL
USER_CHARGES
 
@<TRIPOS>ATOM
       1    C1      18.394210   18.292217   21.376353 C.3        1 MOL1        -0.1689
       2    H1      17.669501   17.488166   21.189117 H          1 MOL1         0.0830
       3    H2      18.145899   19.138189   20.720385 H          1 MOL1         0.0830
       4    C2      19.840241   17.846602   21.119156 C.3        1 MOL1        -0.1689
       5    H3      19.979406   16.819286   21.483756 H          1 MOL1         0.0830
       6    H4      20.103781   17.872070   20.053069 H          1 MOL1         0.0830
       7    C3      20.696169   18.812313   21.959314 C.3        1 MOL1        -0.1765
       8    H5      20.959458   19.691028   21.356300 H          1 MOL1         0.0830
       9    H6      21.631795   18.341089   22.288814 H          1 MOL1         0.0830
      10    C4      19.817265   19.260989   23.145069 C.3        1 MOL1         0.1214
      11    H7      19.821291   20.359119   23.205192 H          1 MOL1         0.0787
      12    C5      18.390936   18.753600   22.845273 C.3        1 MOL1        -0.1765
      13    H8      18.146139   17.901007   23.493301 H          1 MOL1         0.0830
      14    H9      17.639987   19.535214   23.018480 H          1 MOL1         0.0830
      15    O1      20.297507   18.688717   24.355758 O.3        1 MOL1        -0.5512
      16    H10     19.699029   18.996305   25.069020 H          1 MOL1         0.3776
@<TRIPOS>BOND
    1     1     2    1
    2     1     3    1
    3     1     4    1
    4     4     5    1
    5     4     6    1
    6     4     7    1
    7     7     8    1
    8     7     9    1
    9     7    10    1
   10    10    11    1
   11     1    12    1
   12    10    12    1
   13    12    13    1
   14    12    14    1
   15    10    15    1
   16    15    16    1
@<TRIPOS>SUBSTRUCTURE
       1 MOL1            1 RESIDUE      1      MOL     
@<SCITEGIC>MOL_PROPERTY
VConf Rank
SciTegic.value.IntegerValue
593

@<SCITEGIC>MOL_PROPERTY
Conf_Id
SciTegic.value.IntegerValue
33

@<SCITEGIC>MOL_PROPERTY
Delta U+W
SciTegic.value.DoubleValue
0.015

@<SCITEGIC>MOL_PROPERTY
U+W
SciTegic.value.DoubleValue
3.025

@<SCITEGIC>MOL_PROPERTY
Grad RMS
SciTegic.value.DoubleValue
0.000000

@<SCITEGIC>MOL_PROPERTY
U
SciTegic.value.DoubleValue
5.843

@<SCITEGIC>MOL_PROPERTY
W
SciTegic.value.DoubleValue
-2.819

@<SCITEGIC>MOL_PROPERTY
W(PB)
SciTegic.value.DoubleValue
-4.568

@<SCITEGIC>MOL_PROPERTY
W(SA)
SciTegic.value.DoubleValue
1.750

@<SCITEGIC>MOL_PROPERTY
Valence
SciTegic.value.DoubleValue
13.789

@<SCITEGIC>MOL_PROPERTY
Coulomb
SciTegic.value.DoubleValue
-8.574

@<SCITEGIC>MOL_PROPERTY
VdW
SciTegic.value.DoubleValue
0.628

@<SCITEGIC>MOL_PROPERTY
VdW6
SciTegic.value.DoubleValue
-3.284

@<SCITEGIC>MOL_PROPERTY
VdW12
SciTegic.value.DoubleValue
3.913

@<SCITEGIC>MOL_PROPERTY
Bond
SciTegic.value.DoubleValue
0.054

@<SCITEGIC>MOL_PROPERTY
Angle
SciTegic.value.DoubleValue
4.033

@<SCITEGIC>MOL_PROPERTY
Pdih
SciTegic.value.DoubleValue
9.702

@<SCITEGIC>MOL_PROPERTY
Idih
SciTegic.value.DoubleValue
0.000

@<SCITEGIC>MOL_PROPERTY
Tether
SciTegic.value.DoubleValue
0.000

@<TRIPOS>MOLECULE
guest-4_confgen4.mol2 : confsearch ligand conformer 594
          16          16           1
SMALL
USER_CHARGES
 
@<TRIPOS>ATOM
       1    C1      19.216136   19.874535   21.857842 C.3        1 MOL1        -0.1689
       2    H1      18.509955   19.998183   21.025228 H          1 MOL1         0.0830
       3    H2      19.581435   20.872608   22.136059 H          1 MOL1         0.0830
       4    C2      20.373213   18.944791   21.431498 C.3        1 MOL1        -0.1689
       5    H3      20.227584   18.619323   20.392224 H          1 MOL1         0.0830
       6    H4      21.343925   19.456222   21.487670 H          1 MOL1         0.0830
       7    C3      20.330778   17.729237   22.381795 C.3        1 MOL1        -0.1765
       8    H5      21.058487   17.871163   23.191682 H          1 MOL1         0.0830
       9    H6      20.580570   16.790918   21.868797 H          1 MOL1         0.0830
      10    C4      18.917724   17.706349   22.979916 C.3        1 MOL1         0.1214
      11    H7      18.906659   17.236428   23.973915 H          1 MOL1         0.0787
      12    C5      18.518724   19.186473   23.050547 C.3        1 MOL1        -0.1765
      13    H8      17.429469   19.325010   23.032241 H          1 MOL1         0.0830
      14    H9      18.893943   19.612429   23.990438 H          1 MOL1         0.0830
      15    O1      18.043764   17.028352   22.089230 O.3        1 MOL1        -0.5512
      16    H10     18.119385   17.511741   21.240832 H          1 MOL1         0.3776
@<TRIPOS>BOND
    1     1     2    1
    2     1     3    1
    3     1     4    1
    4     4     5    1
    5     4     6    1
    6     4     7    1
    7     7     8    1
    8     7     9    1
    9     7    10    1
   10    10    11    1
   11     1    12    1
   12    10    12    1
   13    12    13    1
   14    12    14    1
   15    10    15    1
   16    15    16    1
@<TRIPOS>SUBSTRUCTURE
       1 MOL1            1 RESIDUE      1      MOL     
@<SCITEGIC>MOL_PROPERTY
VConf Rank
SciTegic.value.IntegerValue
594

@<SCITEGIC>MOL_PROPERTY
Conf_Id
SciTegic.value.IntegerValue
20

@<SCITEGIC>MOL_PROPERTY
Delta U+W
SciTegic.value.DoubleValue
-0.483

@<SCITEGIC>MOL_PROPERTY
U+W
SciTegic.value.DoubleValue
2.527

@<SCITEGIC>MOL_PROPERTY
Grad RMS
SciTegic.value.DoubleValue
0.000000

@<SCITEGIC>MOL_PROPERTY
U
SciTegic.value.DoubleValue
4.508

@<SCITEGIC>MOL_PROPERTY
W
SciTegic.value.DoubleValue
-1.981

@<SCITEGIC>MOL_PROPERTY
W(PB)
SciTegic.value.DoubleValue
-3.712

@<SCITEGIC>MOL_PROPERTY
W(SA)
SciTegic.value.DoubleValue
1.732

@<SCITEGIC>MOL_PROPERTY
Valence
SciTegic.value.DoubleValue
14.705

@<SCITEGIC>MOL_PROPERTY
Coulomb
SciTegic.value.DoubleValue
-10.687

@<SCITEGIC>MOL_PROPERTY
VdW
SciTegic.value.DoubleValue
0.490

@<SCITEGIC>MOL_PROPERTY
VdW6
SciTegic.value.DoubleValue
-3.745

@<SCITEGIC>MOL_PROPERTY
VdW12
SciTegic.value.DoubleValue
4.235

@<SCITEGIC>MOL_PROPERTY
Bond
SciTegic.value.DoubleValue
0.068

@<SCITEGIC>MOL_PROPERTY
Angle
SciTegic.value.DoubleValue
3.901

@<SCITEGIC>MOL_PROPERTY
Pdih
SciTegic.value.DoubleValue
10.737

@<SCITEGIC>MOL_PROPERTY
Idih
SciTegic.value.DoubleValue
0.000

@<SCITEGIC>MOL_PROPERTY
Tether
SciTegic.value.DoubleValue
0.000

@<TRIPOS>MOLECULE
guest-4_confgen4.mol2 : confsearch ligand conformer 595
          16          16           1
SMALL
USER_CHARGES
 
@<TRIPOS>ATOM
       1    C1      19.636798   18.603450   20.888105 C.3        1 MOL1        -0.1689
       2    H1      19.339419   17.616908   20.506034 H          1 MOL1         0.0830
       3    H2      19.959777   19.218854   20.037455 H          1 MOL1         0.0830
       4    C2      20.739551   18.435665   21.942388 C.3        1 MOL1        -0.1689
       5    H3      21.464683   17.657244   21.668520 H          1 MOL1         0.0830
       6    H4      21.282297   19.383474   22.063675 H          1 MOL1         0.0830
       7    C3      19.981381   18.099837   23.239675 C.3        1 MOL1        -0.1765
       8    H5      20.528764   18.446986   24.125511 H          1 MOL1         0.0830
       9    H6      19.864664   17.010518   23.320592 H          1 MOL1         0.0830
      10    C4      18.600165   18.778517   23.124293 C.3        1 MOL1         0.1214
      11    H7      18.556607   19.657759   23.783500 H          1 MOL1         0.0787
      12    C5      18.461302   19.234356   21.657063 C.3        1 MOL1        -0.1765
      13    H8      17.494124   18.949457   21.221839 H          1 MOL1         0.0830
      14    H9      18.537431   20.328607   21.613474 H          1 MOL1         0.0830
      15    O1      17.569797   17.853314   23.450223 O.3        1 MOL1        -0.5512
      16    H10     17.712807   17.590588   24.384062 H          1 MOL1         0.3776
@<TRIPOS>BOND
    1     1     2    1
    2     1     3    1
    3     1     4    1
    4     4     5    1
    5     4     6    1
    6     4     7    1
    7     7     8    1
    8     7     9    1
    9     7    10    1
   10    10    11    1
   11     1    12    1
   12    10    12    1
   13    12    13    1
   14    12    14    1
   15    10    15    1
   16    15    16    1
@<TRIPOS>SUBSTRUCTURE
       1 MOL1            1 RESIDUE      1      MOL     
@<SCITEGIC>MOL_PROPERTY
VConf Rank
SciTegic.value.IntegerValue
595

@<SCITEGIC>MOL_PROPERTY
Conf_Id
SciTegic.value.IntegerValue
59

@<SCITEGIC>MOL_PROPERTY
Delta U+W
SciTegic.value.DoubleValue
0.000

@<SCITEGIC>MOL_PROPERTY
U+W
SciTegic.value.DoubleValue
3.010

@<SCITEGIC>MOL_PROPERTY
Grad RMS
SciTegic.value.DoubleValue
0.000000

@<SCITEGIC>MOL_PROPERTY
U
SciTegic.value.DoubleValue
5.843

@<SCITEGIC>MOL_PROPERTY
W
SciTegic.value.DoubleValue
-2.833

@<SCITEGIC>MOL_PROPERTY
W(PB)
SciTegic.value.DoubleValue
-4.568

@<SCITEGIC>MOL_PROPERTY
W(SA)
SciTegic.value.DoubleValue
1.735

@<SCITEGIC>MOL_PROPERTY
Valence
SciTegic.value.DoubleValue
13.789

@<SCITEGIC>MOL_PROPERTY
Coulomb
SciTegic.value.DoubleValue
-8.574

@<SCITEGIC>MOL_PROPERTY
VdW
SciTegic.value.DoubleValue
0.628

@<SCITEGIC>MOL_PROPERTY
VdW6
SciTegic.value.DoubleValue
-3.284

@<SCITEGIC>MOL_PROPERTY
VdW12
SciTegic.value.DoubleValue
3.912

@<SCITEGIC>MOL_PROPERTY
Bond
SciTegic.value.DoubleValue
0.054

@<SCITEGIC>MOL_PROPERTY
Angle
SciTegic.value.DoubleValue
4.034

@<SCITEGIC>MOL_PROPERTY
Pdih
SciTegic.value.DoubleValue
9.702

@<SCITEGIC>MOL_PROPERTY
Idih
SciTegic.value.DoubleValue
0.000

@<SCITEGIC>MOL_PROPERTY
Tether
SciTegic.value.DoubleValue
0.000

@<TRIPOS>MOLECULE
guest-4_confgen4.mol2 : confsearch ligand conformer 596
          16          16           1
SMALL
USER_CHARGES
 
@<TRIPOS>ATOM
       1    C1      18.691071   17.493823   22.772622 C.3        1 MOL1        -0.1689
       2    H1      18.734717   16.736356   23.567039 H          1 MOL1         0.0830
       3    H2      17.712686   17.417134   22.278150 H          1 MOL1         0.0830
       4    C2      19.808826   17.317582   21.735660 C.3        1 MOL1        -0.1689
       5    H3      20.741932   17.037268   22.244006 H          1 MOL1         0.0830
       6    H4      19.574559   16.541893   20.993994 H          1 MOL1         0.0830
       7    C3      19.966878   18.710717   21.099051 C.3        1 MOL1        -0.1765
       8    H5      19.302496   18.795880   20.229322 H          1 MOL1         0.0830
       9    H6      20.994573   18.882495   20.752128 H          1 MOL1         0.0830
      10    C4      19.530678   19.734519   22.167394 C.3        1 MOL1         0.1214
      11    H7      18.788676   20.419828   21.732304 H          1 MOL1         0.0787
      12    C5      18.891205   18.921657   23.312849 C.3        1 MOL1        -0.1765
      13    H8      19.564918   18.890870   24.179996 H          1 MOL1         0.0830
      14    H9      17.941109   19.363666   23.639638 H          1 MOL1         0.0830
      15    O1      20.660175   20.454147   22.647258 O.3        1 MOL1        -0.5512
      16    H10     20.328118   21.078077   23.326949 H          1 MOL1         0.3776
@<TRIPOS>BOND
    1     1     2    1
    2     1     3    1
    3     1     4    1
    4     4     5    1
    5     4     6    1
    6     4     7    1
    7     7     8    1
    8     7     9    1
    9     7    10    1
   10    10    11    1
   11     1    12    1
   12    10    12    1
   13    12    13    1
   14    12    14    1
   15    10    15    1
   16    15    16    1
@<TRIPOS>SUBSTRUCTURE
       1 MOL1            1 RESIDUE      1      MOL     
@<SCITEGIC>MOL_PROPERTY
VConf Rank
SciTegic.value.IntegerValue
596

@<SCITEGIC>MOL_PROPERTY
Conf_Id
SciTegic.value.IntegerValue
33

@<SCITEGIC>MOL_PROPERTY
Delta U+W
SciTegic.value.DoubleValue
0.015

@<SCITEGIC>MOL_PROPERTY
U+W
SciTegic.value.DoubleValue
3.025

@<SCITEGIC>MOL_PROPERTY
Grad RMS
SciTegic.value.DoubleValue
0.000000

@<SCITEGIC>MOL_PROPERTY
U
SciTegic.value.DoubleValue
5.843

@<SCITEGIC>MOL_PROPERTY
W
SciTegic.value.DoubleValue
-2.819

@<SCITEGIC>MOL_PROPERTY
W(PB)
SciTegic.value.DoubleValue
-4.568

@<SCITEGIC>MOL_PROPERTY
W(SA)
SciTegic.value.DoubleValue
1.750

@<SCITEGIC>MOL_PROPERTY
Valence
SciTegic.value.DoubleValue
13.789

@<SCITEGIC>MOL_PROPERTY
Coulomb
SciTegic.value.DoubleValue
-8.574

@<SCITEGIC>MOL_PROPERTY
VdW
SciTegic.value.DoubleValue
0.628

@<SCITEGIC>MOL_PROPERTY
VdW6
SciTegic.value.DoubleValue
-3.284

@<SCITEGIC>MOL_PROPERTY
VdW12
SciTegic.value.DoubleValue
3.913

@<SCITEGIC>MOL_PROPERTY
Bond
SciTegic.value.DoubleValue
0.054

@<SCITEGIC>MOL_PROPERTY
Angle
SciTegic.value.DoubleValue
4.033

@<SCITEGIC>MOL_PROPERTY
Pdih
SciTegic.value.DoubleValue
9.702

@<SCITEGIC>MOL_PROPERTY
Idih
SciTegic.value.DoubleValue
0.000

@<SCITEGIC>MOL_PROPERTY
Tether
SciTegic.value.DoubleValue
0.000

@<TRIPOS>MOLECULE
guest-4_confgen4.mol2 : confsearch ligand conformer 597
          16          16           1
SMALL
USER_CHARGES
 
@<TRIPOS>ATOM
       1    C1      20.584607   18.282716   21.786580 C.3        1 MOL1        -0.1689
       2    H1      21.421791   18.752552   22.320999 H          1 MOL1         0.0830
       3    H2      21.008177   17.642753   21.000429 H          1 MOL1         0.0830
       4    C2      19.661094   19.370940   21.196737 C.3        1 MOL1        -0.1689
       5    H3      20.051890   20.367424   21.444780 H          1 MOL1         0.0830
       6    H4      19.600769   19.299589   20.102082 H          1 MOL1         0.0830
       7    C3      18.274608   19.165862   21.843295 C.3        1 MOL1        -0.1765
       8    H5      17.634308   18.588940   21.163003 H          1 MOL1         0.0830
       9    H6      17.767973   20.117495   22.052391 H          1 MOL1         0.0830
      10    C4      18.516646   18.344177   23.116576 C.3        1 MOL1         0.1214
      11    H7      17.636273   17.741606   23.382724 H          1 MOL1         0.0787
      12    C5      19.721175   17.460148   22.766490 C.3        1 MOL1        -0.1765
      13    H8      20.283232   17.150887   23.657812 H          1 MOL1         0.0830
      14    H9      19.362723   16.551215   22.265515 H          1 MOL1         0.0830
      15    O1      18.871276   19.219121   24.177479 O.3        1 MOL1        -0.5512
      16    H10     19.655212   19.708339   23.853023 H          1 MOL1         0.3776
@<TRIPOS>BOND
    1     1     2    1
    2     1     3    1
    3     1     4    1
    4     4     5    1
    5     4     6    1
    6     4     7    1
    7     7     8    1
    8     7     9    1
    9     7    10    1
   10    10    11    1
   11     1    12    1
   12    10    12    1
   13    12    13    1
   14    12    14    1
   15    10    15    1
   16    15    16    1
@<TRIPOS>SUBSTRUCTURE
       1 MOL1            1 RESIDUE      1      MOL     
@<SCITEGIC>MOL_PROPERTY
VConf Rank
SciTegic.value.IntegerValue
597

@<SCITEGIC>MOL_PROPERTY
Conf_Id
SciTegic.value.IntegerValue
20

@<SCITEGIC>MOL_PROPERTY
Delta U+W
SciTegic.value.DoubleValue
-0.483

@<SCITEGIC>MOL_PROPERTY
U+W
SciTegic.value.DoubleValue
2.527

@<SCITEGIC>MOL_PROPERTY
Grad RMS
SciTegic.value.DoubleValue
0.000000

@<SCITEGIC>MOL_PROPERTY
U
SciTegic.value.DoubleValue
4.508

@<SCITEGIC>MOL_PROPERTY
W
SciTegic.value.DoubleValue
-1.981

@<SCITEGIC>MOL_PROPERTY
W(PB)
SciTegic.value.DoubleValue
-3.712

@<SCITEGIC>MOL_PROPERTY
W(SA)
SciTegic.value.DoubleValue
1.732

@<SCITEGIC>MOL_PROPERTY
Valence
SciTegic.value.DoubleValue
14.705

@<SCITEGIC>MOL_PROPERTY
Coulomb
SciTegic.value.DoubleValue
-10.687

@<SCITEGIC>MOL_PROPERTY
VdW
SciTegic.value.DoubleValue
0.490

@<SCITEGIC>MOL_PROPERTY
VdW6
SciTegic.value.DoubleValue
-3.745

@<SCITEGIC>MOL_PROPERTY
VdW12
SciTegic.value.DoubleValue
4.235

@<SCITEGIC>MOL_PROPERTY
Bond
SciTegic.value.DoubleValue
0.068

@<SCITEGIC>MOL_PROPERTY
Angle
SciTegic.value.DoubleValue
3.901

@<SCITEGIC>MOL_PROPERTY
Pdih
SciTegic.value.DoubleValue
10.737

@<SCITEGIC>MOL_PROPERTY
Idih
SciTegic.value.DoubleValue
0.000

@<SCITEGIC>MOL_PROPERTY
Tether
SciTegic.value.DoubleValue
0.000

@<TRIPOS>MOLECULE
guest-4_confgen4.mol2 : confsearch ligand conformer 598
          16          16           1
SMALL
USER_CHARGES
 
@<TRIPOS>ATOM
       1    C1      20.102307   17.573195   21.541040 C.3        1 MOL1        -0.1689
       2    H1      19.724555   16.598360   21.879682 H          1 MOL1         0.0830
       3    H2      20.828602   17.399804   20.735387 H          1 MOL1         0.0830
       4    C2      20.713761   18.328714   22.728912 C.3        1 MOL1        -0.1689
       5    H3      21.281233   17.667206   23.397598 H          1 MOL1         0.0830
       6    H4      21.393425   19.109510   22.360075 H          1 MOL1         0.0830
       7    C3      19.507527   18.977694   23.432035 C.3        1 MOL1        -0.1765
       8    H5      19.791900   19.908985   23.938666 H          1 MOL1         0.0830
       9    H6      19.114639   18.287218   24.190761 H          1 MOL1         0.0830
      10    C4      18.448907   19.227885   22.337317 C.3        1 MOL1         0.1214
      11    H7      18.397383   20.300917   22.101805 H          1 MOL1         0.0787
      12    C5      18.923123   18.454564   21.089549 C.3        1 MOL1        -0.1765
      13    H8      18.119767   17.855764   20.640017 H          1 MOL1         0.0830
      14    H9      19.267667   19.171901   20.333375 H          1 MOL1         0.0830
      15    O1      17.180139   18.744030   22.761582 O.3        1 MOL1        -0.5512
      16    H10     16.934632   19.259787   23.558609 H          1 MOL1         0.3776
@<TRIPOS>BOND
    1     1     2    1
    2     1     3    1
    3     1     4    1
    4     4     5    1
    5     4     6    1
    6     4     7    1
    7     7     8    1
    8     7     9    1
    9     7    10    1
   10    10    11    1
   11     1    12    1
   12    10    12    1
   13    12    13    1
   14    12    14    1
   15    10    15    1
   16    15    16    1
@<TRIPOS>SUBSTRUCTURE
       1 MOL1            1 RESIDUE      1      MOL     
@<SCITEGIC>MOL_PROPERTY
VConf Rank
SciTegic.value.IntegerValue
598

@<SCITEGIC>MOL_PROPERTY
Conf_Id
SciTegic.value.IntegerValue
59

@<SCITEGIC>MOL_PROPERTY
Delta U+W
SciTegic.value.DoubleValue
0.000

@<SCITEGIC>MOL_PROPERTY
U+W
SciTegic.value.DoubleValue
3.010

@<SCITEGIC>MOL_PROPERTY
Grad RMS
SciTegic.value.DoubleValue
0.000000

@<SCITEGIC>MOL_PROPERTY
U
SciTegic.value.DoubleValue
5.843

@<SCITEGIC>MOL_PROPERTY
W
SciTegic.value.DoubleValue
-2.833

@<SCITEGIC>MOL_PROPERTY
W(PB)
SciTegic.value.DoubleValue
-4.568

@<SCITEGIC>MOL_PROPERTY
W(SA)
SciTegic.value.DoubleValue
1.735

@<SCITEGIC>MOL_PROPERTY
Valence
SciTegic.value.DoubleValue
13.789

@<SCITEGIC>MOL_PROPERTY
Coulomb
SciTegic.value.DoubleValue
-8.574

@<SCITEGIC>MOL_PROPERTY
VdW
SciTegic.value.DoubleValue
0.628

@<SCITEGIC>MOL_PROPERTY
VdW6
SciTegic.value.DoubleValue
-3.284

@<SCITEGIC>MOL_PROPERTY
VdW12
SciTegic.value.DoubleValue
3.912

@<SCITEGIC>MOL_PROPERTY
Bond
SciTegic.value.DoubleValue
0.054

@<SCITEGIC>MOL_PROPERTY
Angle
SciTegic.value.DoubleValue
4.034

@<SCITEGIC>MOL_PROPERTY
Pdih
SciTegic.value.DoubleValue
9.702

@<SCITEGIC>MOL_PROPERTY
Idih
SciTegic.value.DoubleValue
0.000

@<SCITEGIC>MOL_PROPERTY
Tether
SciTegic.value.DoubleValue
0.000

@<TRIPOS>MOLECULE
guest-4_confgen4.mol2 : confsearch ligand conformer 599
          16          16           1
SMALL
USER_CHARGES
 
@<TRIPOS>ATOM
       1    C1      19.608466   19.028801   20.927639 C.3        1 MOL1        -0.1689
       2    H1      18.990888   19.222581   20.040055 H          1 MOL1         0.0830
       3    H2      20.633555   19.361034   20.712153 H          1 MOL1         0.0830
       4    C2      19.618346   17.544871   21.319535 C.3        1 MOL1        -0.1689
       5    H3      18.612617   17.122248   21.186958 H          1 MOL1         0.0830
       6    H4      20.321521   16.955977   20.715059 H          1 MOL1         0.0830
       7    C3      19.985071   17.543817   22.815057 C.3        1 MOL1        -0.1765
       8    H5      21.075443   17.483428   22.926981 H          1 MOL1         0.0830
       9    H6      19.547654   16.682889   23.338017 H          1 MOL1         0.0830
      10    C4      19.494223   18.888888   23.389210 C.3        1 MOL1         0.1214
      11    H7      20.317997   19.374172   23.932731 H          1 MOL1         0.0787
      12    C5      19.078715   19.752172   22.179322 C.3        1 MOL1        -0.1765
      13    H8      17.984096   19.824365   22.121187 H          1 MOL1         0.0830
      14    H9      19.480270   20.771020   22.253803 H          1 MOL1         0.0830
      15    O1      18.379645   18.678237   24.247837 O.3        1 MOL1        -0.5512
      16    H10     18.104110   19.561412   24.572816 H          1 MOL1         0.3776
@<TRIPOS>BOND
    1     1     2    1
    2     1     3    1
    3     1     4    1
    4     4     5    1
    5     4     6    1
    6     4     7    1
    7     7     8    1
    8     7     9    1
    9     7    10    1
   10    10    11    1
   11     1    12    1
   12    10    12    1
   13    12    13    1
   14    12    14    1
   15    10    15    1
   16    15    16    1
@<TRIPOS>SUBSTRUCTURE
       1 MOL1            1 RESIDUE      1      MOL     
@<SCITEGIC>MOL_PROPERTY
VConf Rank
SciTegic.value.IntegerValue
599

@<SCITEGIC>MOL_PROPERTY
Conf_Id
SciTegic.value.IntegerValue
33

@<SCITEGIC>MOL_PROPERTY
Delta U+W
SciTegic.value.DoubleValue
0.015

@<SCITEGIC>MOL_PROPERTY
U+W
SciTegic.value.DoubleValue
3.025

@<SCITEGIC>MOL_PROPERTY
Grad RMS
SciTegic.value.DoubleValue
0.000000

@<SCITEGIC>MOL_PROPERTY
U
SciTegic.value.DoubleValue
5.843

@<SCITEGIC>MOL_PROPERTY
W
SciTegic.value.DoubleValue
-2.819

@<SCITEGIC>MOL_PROPERTY
W(PB)
SciTegic.value.DoubleValue
-4.568

@<SCITEGIC>MOL_PROPERTY
W(SA)
SciTegic.value.DoubleValue
1.750

@<SCITEGIC>MOL_PROPERTY
Valence
SciTegic.value.DoubleValue
13.789

@<SCITEGIC>MOL_PROPERTY
Coulomb
SciTegic.value.DoubleValue
-8.574

@<SCITEGIC>MOL_PROPERTY
VdW
SciTegic.value.DoubleValue
0.628

@<SCITEGIC>MOL_PROPERTY
VdW6
SciTegic.value.DoubleValue
-3.284

@<SCITEGIC>MOL_PROPERTY
VdW12
SciTegic.value.DoubleValue
3.913

@<SCITEGIC>MOL_PROPERTY
Bond
SciTegic.value.DoubleValue
0.054

@<SCITEGIC>MOL_PROPERTY
Angle
SciTegic.value.DoubleValue
4.033

@<SCITEGIC>MOL_PROPERTY
Pdih
SciTegic.value.DoubleValue
9.702

@<SCITEGIC>MOL_PROPERTY
Idih
SciTegic.value.DoubleValue
0.000

@<SCITEGIC>MOL_PROPERTY
Tether
SciTegic.value.DoubleValue
0.000

@<TRIPOS>MOLECULE
guest-4_confgen4.mol2 : confsearch ligand conformer 600
          16          16           1
SMALL
USER_CHARGES
 
@<TRIPOS>ATOM
       1    C1      19.682744   19.521439   23.186523 C.3        1 MOL1        -0.1689
       2    H1      18.862274   20.210469   23.430027 H          1 MOL1         0.0830
       3    H2      20.540748   19.788226   23.818703 H          1 MOL1         0.0830
       4    C2      20.029025   19.626815   21.685188 C.3        1 MOL1        -0.1689
       5    H3      19.376872   20.367597   21.202315 H          1 MOL1         0.0830
       6    H4      21.068513   19.947754   21.532014 H          1 MOL1         0.0830
       7    C3      19.785602   18.227637   21.080639 C.3        1 MOL1        -0.1765
       8    H5      20.737554   17.683928   21.019079 H          1 MOL1         0.0830
       9    H6      19.364272   18.279372   20.067816 H          1 MOL1         0.0830
      10    C4      18.856944   17.497118   22.059888 C.3        1 MOL1         0.1214
      11    H7      18.999012   16.407682   22.015979 H          1 MOL1         0.0787
      12    C5      19.244254   18.062226   23.433060 C.3        1 MOL1        -0.1765
      13    H8      18.423077   17.991287   24.158759 H          1 MOL1         0.0830
      14    H9      20.091127   17.486674   23.829505 H          1 MOL1         0.0830
      15    O1      17.509829   17.844291   21.774302 O.3        1 MOL1        -0.5512
      16    H10     17.479906   18.821248   21.836117 H          1 MOL1         0.3776
@<TRIPOS>BOND
    1     1     2    1
    2     1     3    1
    3     1     4    1
    4     4     5    1
    5     4     6    1
    6     4     7    1
    7     7     8    1
    8     7     9    1
    9     7    10    1
   10    10    11    1
   11     1    12    1
   12    10    12    1
   13    12    13    1
   14    12    14    1
   15    10    15    1
   16    15    16    1
@<TRIPOS>SUBSTRUCTURE
       1 MOL1            1 RESIDUE      1      MOL     
@<SCITEGIC>MOL_PROPERTY
VConf Rank
SciTegic.value.IntegerValue
600

@<SCITEGIC>MOL_PROPERTY
Conf_Id
SciTegic.value.IntegerValue
20

@<SCITEGIC>MOL_PROPERTY
Delta U+W
SciTegic.value.DoubleValue
-0.483

@<SCITEGIC>MOL_PROPERTY
U+W
SciTegic.value.DoubleValue
2.527

@<SCITEGIC>MOL_PROPERTY
Grad RMS
SciTegic.value.DoubleValue
0.000000

@<SCITEGIC>MOL_PROPERTY
U
SciTegic.value.DoubleValue
4.508

@<SCITEGIC>MOL_PROPERTY
W
SciTegic.value.DoubleValue
-1.981

@<SCITEGIC>MOL_PROPERTY
W(PB)
SciTegic.value.DoubleValue
-3.712

@<SCITEGIC>MOL_PROPERTY
W(SA)
SciTegic.value.DoubleValue
1.732

@<SCITEGIC>MOL_PROPERTY
Valence
SciTegic.value.DoubleValue
14.705

@<SCITEGIC>MOL_PROPERTY
Coulomb
SciTegic.value.DoubleValue
-10.687

@<SCITEGIC>MOL_PROPERTY
VdW
SciTegic.value.DoubleValue
0.490

@<SCITEGIC>MOL_PROPERTY
VdW6
SciTegic.value.DoubleValue
-3.745

@<SCITEGIC>MOL_PROPERTY
VdW12
SciTegic.value.DoubleValue
4.235

@<SCITEGIC>MOL_PROPERTY
Bond
SciTegic.value.DoubleValue
0.068

@<SCITEGIC>MOL_PROPERTY
Angle
SciTegic.value.DoubleValue
3.901

@<SCITEGIC>MOL_PROPERTY
Pdih
SciTegic.value.DoubleValue
10.737

@<SCITEGIC>MOL_PROPERTY
Idih
SciTegic.value.DoubleValue
0.000

@<SCITEGIC>MOL_PROPERTY
Tether
SciTegic.value.DoubleValue
0.000

@<TRIPOS>MOLECULE
guest-4_confgen4.mol2 : confsearch ligand conformer 601
          16          16           1
SMALL
USER_CHARGES
 
@<TRIPOS>ATOM
       1    C1      18.304797   17.657492   21.866520 C.3        1 MOL1        -0.1689
       2    H1      18.539615   17.446187   20.813957 H          1 MOL1         0.0830
       3    H2      17.421593   17.067716   22.147159 H          1 MOL1         0.0830
       4    C2      18.085945   19.165282   22.051997 C.3        1 MOL1        -0.1689
       5    H3      17.533952   19.613625   21.214709 H          1 MOL1         0.0830
       6    H4      17.516695   19.345454   22.974558 H          1 MOL1         0.0830
       7    C3      19.505657   19.743779   22.194525 C.3        1 MOL1        -0.1765
       8    H5      19.509468   20.649087   22.815209 H          1 MOL1         0.0830
       9    H6      19.889185   20.014067   21.201229 H          1 MOL1         0.0830
      10    C4      20.370210   18.626472   22.815697 C.3        1 MOL1         0.1214
      11    H7      20.587138   18.859706   23.868342 H          1 MOL1         0.0787
      12    C5      19.529323   17.335186   22.742753 C.3        1 MOL1        -0.1765
      13    H8      20.101153   16.487472   22.342238 H          1 MOL1         0.0830
      14    H9      19.198093   17.066124   23.754175 H          1 MOL1         0.0830
      15    O1      21.575293   18.469646   22.076055 O.3        1 MOL1        -0.5512
      16    H10     22.061449   19.318239   22.147288 H          1 MOL1         0.3776
@<TRIPOS>BOND
    1     1     2    1
    2     1     3    1
    3     1     4    1
    4     4     5    1
    5     4     6    1
    6     4     7    1
    7     7     8    1
    8     7     9    1
    9     7    10    1
   10    10    11    1
   11     1    12    1
   12    10    12    1
   13    12    13    1
   14    12    14    1
   15    10    15    1
   16    15    16    1
@<TRIPOS>SUBSTRUCTURE
       1 MOL1            1 RESIDUE      1      MOL     
@<SCITEGIC>MOL_PROPERTY
VConf Rank
SciTegic.value.IntegerValue
601

@<SCITEGIC>MOL_PROPERTY
Conf_Id
SciTegic.value.IntegerValue
59

@<SCITEGIC>MOL_PROPERTY
Delta U+W
SciTegic.value.DoubleValue
0.000

@<SCITEGIC>MOL_PROPERTY
U+W
SciTegic.value.DoubleValue
3.010

@<SCITEGIC>MOL_PROPERTY
Grad RMS
SciTegic.value.DoubleValue
0.000000

@<SCITEGIC>MOL_PROPERTY
U
SciTegic.value.DoubleValue
5.843

@<SCITEGIC>MOL_PROPERTY
W
SciTegic.value.DoubleValue
-2.833

@<SCITEGIC>MOL_PROPERTY
W(PB)
SciTegic.value.DoubleValue
-4.568

@<SCITEGIC>MOL_PROPERTY
W(SA)
SciTegic.value.DoubleValue
1.735

@<SCITEGIC>MOL_PROPERTY
Valence
SciTegic.value.DoubleValue
13.789

@<SCITEGIC>MOL_PROPERTY
Coulomb
SciTegic.value.DoubleValue
-8.574

@<SCITEGIC>MOL_PROPERTY
VdW
SciTegic.value.DoubleValue
0.628

@<SCITEGIC>MOL_PROPERTY
VdW6
SciTegic.value.DoubleValue
-3.284

@<SCITEGIC>MOL_PROPERTY
VdW12
SciTegic.value.DoubleValue
3.912

@<SCITEGIC>MOL_PROPERTY
Bond
SciTegic.value.DoubleValue
0.054

@<SCITEGIC>MOL_PROPERTY
Angle
SciTegic.value.DoubleValue
4.034

@<SCITEGIC>MOL_PROPERTY
Pdih
SciTegic.value.DoubleValue
9.702

@<SCITEGIC>MOL_PROPERTY
Idih
SciTegic.value.DoubleValue
0.000

@<SCITEGIC>MOL_PROPERTY
Tether
SciTegic.value.DoubleValue
0.000

@<TRIPOS>MOLECULE
guest-4_confgen4.mol2 : confsearch ligand conformer 602
          16          16           1
SMALL
USER_CHARGES
 
@<TRIPOS>ATOM
       1    C1      20.467673   18.091732   23.163091 C.3        1 MOL1        -0.1689
       2    H1      21.174843   18.448307   23.924355 H          1 MOL1         0.0830
       3    H2      20.489660   16.993035   23.161501 H          1 MOL1         0.0830
       4    C2      20.805157   18.616882   21.760933 C.3        1 MOL1        -0.1689
       5    H3      21.133300   19.663495   21.828772 H          1 MOL1         0.0830
       6    H4      21.602394   18.036992   21.276389 H          1 MOL1         0.0830
       7    C3      19.473673   18.542828   20.991034 C.3        1 MOL1        -0.1765
       8    H5      19.385579   17.564666   20.500603 H          1 MOL1         0.0830
       9    H6      19.414108   19.313779   20.211223 H          1 MOL1         0.0830
      10    C4      18.350912   18.682679   22.039675 C.3        1 MOL1         0.1214
      11    H7      17.632167   17.859747   21.914338 H          1 MOL1         0.0787
      12    C5      19.031689   18.583633   23.421148 C.3        1 MOL1        -0.1765
      13    H8      19.066693   19.571692   23.899996 H          1 MOL1         0.0830
      14    H9      18.489026   17.903671   24.090489 H          1 MOL1         0.0830
      15    O1      17.703769   19.941936   21.900480 O.3        1 MOL1        -0.5512
      16    H10     17.011972   19.980839   22.594333 H          1 MOL1         0.3776
@<TRIPOS>BOND
    1     1     2    1
    2     1     3    1
    3     1     4    1
    4     4     5    1
    5     4     6    1
    6     4     7    1
    7     7     8    1
    8     7     9    1
    9     7    10    1
   10    10    11    1
   11     1    12    1
   12    10    12    1
   13    12    13    1
   14    12    14    1
   15    10    15    1
   16    15    16    1
@<TRIPOS>SUBSTRUCTURE
       1 MOL1            1 RESIDUE      1      MOL     
@<SCITEGIC>MOL_PROPERTY
VConf Rank
SciTegic.value.IntegerValue
602

@<SCITEGIC>MOL_PROPERTY
Conf_Id
SciTegic.value.IntegerValue
33

@<SCITEGIC>MOL_PROPERTY
Delta U+W
SciTegic.value.DoubleValue
0.015

@<SCITEGIC>MOL_PROPERTY
U+W
SciTegic.value.DoubleValue
3.025

@<SCITEGIC>MOL_PROPERTY
Grad RMS
SciTegic.value.DoubleValue
0.000000

@<SCITEGIC>MOL_PROPERTY
U
SciTegic.value.DoubleValue
5.843

@<SCITEGIC>MOL_PROPERTY
W
SciTegic.value.DoubleValue
-2.819

@<SCITEGIC>MOL_PROPERTY
W(PB)
SciTegic.value.DoubleValue
-4.568

@<SCITEGIC>MOL_PROPERTY
W(SA)
SciTegic.value.DoubleValue
1.750

@<SCITEGIC>MOL_PROPERTY
Valence
SciTegic.value.DoubleValue
13.789

@<SCITEGIC>MOL_PROPERTY
Coulomb
SciTegic.value.DoubleValue
-8.574

@<SCITEGIC>MOL_PROPERTY
VdW
SciTegic.value.DoubleValue
0.628

@<SCITEGIC>MOL_PROPERTY
VdW6
SciTegic.value.DoubleValue
-3.284

@<SCITEGIC>MOL_PROPERTY
VdW12
SciTegic.value.DoubleValue
3.913

@<SCITEGIC>MOL_PROPERTY
Bond
SciTegic.value.DoubleValue
0.054

@<SCITEGIC>MOL_PROPERTY
Angle
SciTegic.value.DoubleValue
4.033

@<SCITEGIC>MOL_PROPERTY
Pdih
SciTegic.value.DoubleValue
9.702

@<SCITEGIC>MOL_PROPERTY
Idih
SciTegic.value.DoubleValue
0.000

@<SCITEGIC>MOL_PROPERTY
Tether
SciTegic.value.DoubleValue
0.000

@<TRIPOS>MOLECULE
guest-4_confgen4.mol2 : confsearch ligand conformer 603
          16          16           1
SMALL
USER_CHARGES
 
@<TRIPOS>ATOM
       1    C1      19.745542   19.353226   23.305975 C.3        1 MOL1        -0.1689
       2    H1      19.618138   18.857833   24.278385 H          1 MOL1         0.0830
       3    H2      20.171227   20.348749   23.492321 H          1 MOL1         0.0830
       4    C2      18.385208   19.444000   22.580529 C.3        1 MOL1        -0.1689
       5    H3      17.599274   18.993498   23.202288 H          1 MOL1         0.0830
       6    H4      18.099772   20.487010   22.386479 H          1 MOL1         0.0830
       7    C3      18.538939   18.656410   21.262006 C.3        1 MOL1        -0.1765
       8    H5      18.754883   19.353321   20.441454 H          1 MOL1         0.0830
       9    H6      17.627629   18.102861   20.999133 H          1 MOL1         0.0830
      10    C4      19.745799   17.729203   21.458903 C.3        1 MOL1         0.1214
      11    H7      20.239611   17.499447   20.503735 H          1 MOL1         0.0787
      12    C5      20.670580   18.515229   22.397998 C.3        1 MOL1        -0.1765
      13    H8      21.334838   17.857413   22.974232 H          1 MOL1         0.0830
      14    H9      21.301370   19.185065   21.798794 H          1 MOL1         0.0830
      15    O1      19.320865   16.539968   22.108486 O.3        1 MOL1        -0.5512
      16    H10     18.898078   16.840531   22.939194 H          1 MOL1         0.3776
@<TRIPOS>BOND
    1     1     2    1
    2     1     3    1
    3     1     4    1
    4     4     5    1
    5     4     6    1
    6     4     7    1
    7     7     8    1
    8     7     9    1
    9     7    10    1
   10    10    11    1
   11     1    12    1
   12    10    12    1
   13    12    13    1
   14    12    14    1
   15    10    15    1
   16    15    16    1
@<TRIPOS>SUBSTRUCTURE
       1 MOL1            1 RESIDUE      1      MOL     
@<SCITEGIC>MOL_PROPERTY
VConf Rank
SciTegic.value.IntegerValue
603

@<SCITEGIC>MOL_PROPERTY
Conf_Id
SciTegic.value.IntegerValue
20

@<SCITEGIC>MOL_PROPERTY
Delta U+W
SciTegic.value.DoubleValue
-0.483

@<SCITEGIC>MOL_PROPERTY
U+W
SciTegic.value.DoubleValue
2.527

@<SCITEGIC>MOL_PROPERTY
Grad RMS
SciTegic.value.DoubleValue
0.000000

@<SCITEGIC>MOL_PROPERTY
U
SciTegic.value.DoubleValue
4.508

@<SCITEGIC>MOL_PROPERTY
W
SciTegic.value.DoubleValue
-1.981

@<SCITEGIC>MOL_PROPERTY
W(PB)
SciTegic.value.DoubleValue
-3.712

@<SCITEGIC>MOL_PROPERTY
W(SA)
SciTegic.value.DoubleValue
1.732

@<SCITEGIC>MOL_PROPERTY
Valence
SciTegic.value.DoubleValue
14.705

@<SCITEGIC>MOL_PROPERTY
Coulomb
SciTegic.value.DoubleValue
-10.687

@<SCITEGIC>MOL_PROPERTY
VdW
SciTegic.value.DoubleValue
0.490

@<SCITEGIC>MOL_PROPERTY
VdW6
SciTegic.value.DoubleValue
-3.745

@<SCITEGIC>MOL_PROPERTY
VdW12
SciTegic.value.DoubleValue
4.235

@<SCITEGIC>MOL_PROPERTY
Bond
SciTegic.value.DoubleValue
0.068

@<SCITEGIC>MOL_PROPERTY
Angle
SciTegic.value.DoubleValue
3.901

@<SCITEGIC>MOL_PROPERTY
Pdih
SciTegic.value.DoubleValue
10.737

@<SCITEGIC>MOL_PROPERTY
Idih
SciTegic.value.DoubleValue
0.000

@<SCITEGIC>MOL_PROPERTY
Tether
SciTegic.value.DoubleValue
0.000

@<TRIPOS>MOLECULE
guest-4_confgen4.mol2 : confsearch ligand conformer 604
          16          16           1
SMALL
USER_CHARGES
 
@<TRIPOS>ATOM
       1    C1      18.726732   17.246696   22.390291 C.3        1 MOL1        -0.1689
       2    H1      17.647098   17.451775   22.387120 H          1 MOL1         0.0830
       3    H2      18.870122   16.157623   22.391995 H          1 MOL1         0.0830
       4    C2      19.375593   17.925278   23.604472 C.3        1 MOL1        -0.1689
       5    H3      18.751182   17.855382   24.505573 H          1 MOL1         0.0830
       6    H4      20.343418   17.451236   23.819473 H          1 MOL1         0.0830
       7    C3      19.596935   19.381613   23.156529 C.3        1 MOL1        -0.1765
       8    H5      20.462046   19.829715   23.662132 H          1 MOL1         0.0830
       9    H6      18.710698   19.978687   23.411228 H          1 MOL1         0.0830
      10    C4      19.792590   19.340970   21.626253 C.3        1 MOL1         0.1214
      11    H7      20.850301   19.510816   21.377420 H          1 MOL1         0.0787
      12    C5      19.383815   17.924021   21.173491 C.3        1 MOL1        -0.1765
      13    H8      18.708957   17.941685   20.307306 H          1 MOL1         0.0830
      14    H9      20.284335   17.367178   20.883541 H          1 MOL1         0.0830
      15    O1      18.965374   20.314028   20.999547 O.3        1 MOL1        -0.5512
      16    H10     19.260369   21.188833   21.330040 H          1 MOL1         0.3776
@<TRIPOS>BOND
    1     1     2    1
    2     1     3    1
    3     1     4    1
    4     4     5    1
    5     4     6    1
    6     4     7    1
    7     7     8    1
    8     7     9    1
    9     7    10    1
   10    10    11    1
   11     1    12    1
   12    10    12    1
   13    12    13    1
   14    12    14    1
   15    10    15    1
   16    15    16    1
@<TRIPOS>SUBSTRUCTURE
       1 MOL1            1 RESIDUE      1      MOL     
@<SCITEGIC>MOL_PROPERTY
VConf Rank
SciTegic.value.IntegerValue
604

@<SCITEGIC>MOL_PROPERTY
Conf_Id
SciTegic.value.IntegerValue
59

@<SCITEGIC>MOL_PROPERTY
Delta U+W
SciTegic.value.DoubleValue
0.000

@<SCITEGIC>MOL_PROPERTY
U+W
SciTegic.value.DoubleValue
3.010

@<SCITEGIC>MOL_PROPERTY
Grad RMS
SciTegic.value.DoubleValue
0.000000

@<SCITEGIC>MOL_PROPERTY
U
SciTegic.value.DoubleValue
5.843

@<SCITEGIC>MOL_PROPERTY
W
SciTegic.value.DoubleValue
-2.833

@<SCITEGIC>MOL_PROPERTY
W(PB)
SciTegic.value.DoubleValue
-4.568

@<SCITEGIC>MOL_PROPERTY
W(SA)
SciTegic.value.DoubleValue
1.735

@<SCITEGIC>MOL_PROPERTY
Valence
SciTegic.value.DoubleValue
13.789

@<SCITEGIC>MOL_PROPERTY
Coulomb
SciTegic.value.DoubleValue
-8.574

@<SCITEGIC>MOL_PROPERTY
VdW
SciTegic.value.DoubleValue
0.628

@<SCITEGIC>MOL_PROPERTY
VdW6
SciTegic.value.DoubleValue
-3.284

@<SCITEGIC>MOL_PROPERTY
VdW12
SciTegic.value.DoubleValue
3.912

@<SCITEGIC>MOL_PROPERTY
Bond
SciTegic.value.DoubleValue
0.054

@<SCITEGIC>MOL_PROPERTY
Angle
SciTegic.value.DoubleValue
4.034

@<SCITEGIC>MOL_PROPERTY
Pdih
SciTegic.value.DoubleValue
9.702

@<SCITEGIC>MOL_PROPERTY
Idih
SciTegic.value.DoubleValue
0.000

@<SCITEGIC>MOL_PROPERTY
Tether
SciTegic.value.DoubleValue
0.000

@<TRIPOS>MOLECULE
guest-4_confgen4.mol2 : confsearch ligand conformer 605
          16          16           1
SMALL
USER_CHARGES
 
@<TRIPOS>ATOM
       1    C1      18.691246   17.465377   22.700374 C.3        1 MOL1        -0.1689
       2    H1      18.041885   16.696887   22.259338 H          1 MOL1         0.0830
       3    H2      18.885782   17.191632   23.746720 H          1 MOL1         0.0830
       4    C2      18.063454   18.864690   22.640979 C.3        1 MOL1        -0.1689
       5    H3      17.548723   18.996879   21.679076 H          1 MOL1         0.0830
       6    H4      17.335825   19.032617   23.446584 H          1 MOL1         0.0830
       7    C3      19.261833   19.828289   22.721223 C.3        1 MOL1        -0.1765
       8    H5      19.470788   20.069702   23.771529 H          1 MOL1         0.0830
       9    H6      19.058422   20.771104   22.196111 H          1 MOL1         0.0830
      10    C4      20.471146   19.076572   22.127690 C.3        1 MOL1         0.1214
      11    H7      21.312821   19.127560   22.833737 H          1 MOL1         0.0787
      12    C5      20.024160   17.610953   21.943566 C.3        1 MOL1        -0.1765
      13    H8      19.863146   17.392959   20.878984 H          1 MOL1         0.0830
      14    H9      20.778521   16.908655   22.321141 H          1 MOL1         0.0830
      15    O1      20.831865   19.641125   20.872677 O.3        1 MOL1        -0.5512
      16    H10     21.592995   19.120911   20.538629 H          1 MOL1         0.3776
@<TRIPOS>BOND
    1     1     2    1
    2     1     3    1
    3     1     4    1
    4     4     5    1
    5     4     6    1
    6     4     7    1
    7     7     8    1
    8     7     9    1
    9     7    10    1
   10    10    11    1
   11     1    12    1
   12    10    12    1
   13    12    13    1
   14    12    14    1
   15    10    15    1
   16    15    16    1
@<TRIPOS>SUBSTRUCTURE
       1 MOL1            1 RESIDUE      1      MOL     
@<SCITEGIC>MOL_PROPERTY
VConf Rank
SciTegic.value.IntegerValue
605

@<SCITEGIC>MOL_PROPERTY
Conf_Id
SciTegic.value.IntegerValue
33

@<SCITEGIC>MOL_PROPERTY
Delta U+W
SciTegic.value.DoubleValue
0.015

@<SCITEGIC>MOL_PROPERTY
U+W
SciTegic.value.DoubleValue
3.025

@<SCITEGIC>MOL_PROPERTY
Grad RMS
SciTegic.value.DoubleValue
0.000000

@<SCITEGIC>MOL_PROPERTY
U
SciTegic.value.DoubleValue
5.843

@<SCITEGIC>MOL_PROPERTY
W
SciTegic.value.DoubleValue
-2.819

@<SCITEGIC>MOL_PROPERTY
W(PB)
SciTegic.value.DoubleValue
-4.568

@<SCITEGIC>MOL_PROPERTY
W(SA)
SciTegic.value.DoubleValue
1.750

@<SCITEGIC>MOL_PROPERTY
Valence
SciTegic.value.DoubleValue
13.789

@<SCITEGIC>MOL_PROPERTY
Coulomb
SciTegic.value.DoubleValue
-8.574

@<SCITEGIC>MOL_PROPERTY
VdW
SciTegic.value.DoubleValue
0.628

@<SCITEGIC>MOL_PROPERTY
VdW6
SciTegic.value.DoubleValue
-3.284

@<SCITEGIC>MOL_PROPERTY
VdW12
SciTegic.value.DoubleValue
3.913

@<SCITEGIC>MOL_PROPERTY
Bond
SciTegic.value.DoubleValue
0.054

@<SCITEGIC>MOL_PROPERTY
Angle
SciTegic.value.DoubleValue
4.033

@<SCITEGIC>MOL_PROPERTY
Pdih
SciTegic.value.DoubleValue
9.702

@<SCITEGIC>MOL_PROPERTY
Idih
SciTegic.value.DoubleValue
0.000

@<SCITEGIC>MOL_PROPERTY
Tether
SciTegic.value.DoubleValue
0.000

@<TRIPOS>MOLECULE
guest-4_confgen4.mol2 : confsearch ligand conformer 606
          16          16           1
SMALL
USER_CHARGES
 
@<TRIPOS>ATOM
       1    C1      19.145290   19.811638   21.722097 C.3        1 MOL1        -0.1689
       2    H1      18.630529   19.781754   20.751863 H          1 MOL1         0.0830
       3    H2      19.306916   20.866957   21.981281 H          1 MOL1         0.0830
       4    C2      20.478955   19.038045   21.633134 C.3        1 MOL1        -0.1689
       5    H3      20.610150   18.634672   20.619574 H          1 MOL1         0.0830
       6    H4      21.338185   19.688488   21.846789 H          1 MOL1         0.0830
       7    C3      20.386364   17.886932   22.657245 C.3        1 MOL1        -0.1765
       8    H5      20.892361   18.180896   23.586315 H          1 MOL1         0.0830
       9    H6      20.863338   16.966976   22.293677 H          1 MOL1         0.0830
      10    C4      18.891424   17.692347   22.944097 C.3        1 MOL1         0.1214
      11    H7      18.722378   17.284690   23.951183 H          1 MOL1         0.0787
      12    C5      18.297370   19.099673   22.797501 C.3        1 MOL1        -0.1765
      13    H8      17.230535   19.075928   22.538071 H          1 MOL1         0.0830
      14    H9      18.396951   19.630094   23.753722 H          1 MOL1         0.0830
      15    O1      18.331739   16.842884   21.953152 O.3        1 MOL1        -0.5512
      16    H10     18.529267   17.281790   21.100212 H          1 MOL1         0.3776
@<TRIPOS>BOND
    1     1     2    1
    2     1     3    1
    3     1     4    1
    4     4     5    1
    5     4     6    1
    6     4     7    1
    7     7     8    1
    8     7     9    1
    9     7    10    1
   10    10    11    1
   11     1    12    1
   12    10    12    1
   13    12    13    1
   14    12    14    1
   15    10    15    1
   16    15    16    1
@<TRIPOS>SUBSTRUCTURE
       1 MOL1            1 RESIDUE      1      MOL     
@<SCITEGIC>MOL_PROPERTY
VConf Rank
SciTegic.value.IntegerValue
606

@<SCITEGIC>MOL_PROPERTY
Conf_Id
SciTegic.value.IntegerValue
20

@<SCITEGIC>MOL_PROPERTY
Delta U+W
SciTegic.value.DoubleValue
-0.483

@<SCITEGIC>MOL_PROPERTY
U+W
SciTegic.value.DoubleValue
2.527

@<SCITEGIC>MOL_PROPERTY
Grad RMS
SciTegic.value.DoubleValue
0.000000

@<SCITEGIC>MOL_PROPERTY
U
SciTegic.value.DoubleValue
4.508

@<SCITEGIC>MOL_PROPERTY
W
SciTegic.value.DoubleValue
-1.981

@<SCITEGIC>MOL_PROPERTY
W(PB)
SciTegic.value.DoubleValue
-3.712

@<SCITEGIC>MOL_PROPERTY
W(SA)
SciTegic.value.DoubleValue
1.732

@<SCITEGIC>MOL_PROPERTY
Valence
SciTegic.value.DoubleValue
14.705

@<SCITEGIC>MOL_PROPERTY
Coulomb
SciTegic.value.DoubleValue
-10.687

@<SCITEGIC>MOL_PROPERTY
VdW
SciTegic.value.DoubleValue
0.490

@<SCITEGIC>MOL_PROPERTY
VdW6
SciTegic.value.DoubleValue
-3.745

@<SCITEGIC>MOL_PROPERTY
VdW12
SciTegic.value.DoubleValue
4.235

@<SCITEGIC>MOL_PROPERTY
Bond
SciTegic.value.DoubleValue
0.068

@<SCITEGIC>MOL_PROPERTY
Angle
SciTegic.value.DoubleValue
3.901

@<SCITEGIC>MOL_PROPERTY
Pdih
SciTegic.value.DoubleValue
10.737

@<SCITEGIC>MOL_PROPERTY
Idih
SciTegic.value.DoubleValue
0.000

@<SCITEGIC>MOL_PROPERTY
Tether
SciTegic.value.DoubleValue
0.000

@<TRIPOS>MOLECULE
guest-4_confgen4.mol2 : confsearch ligand conformer 607
          16          16           1
SMALL
USER_CHARGES
 
@<TRIPOS>ATOM
       1    C1      18.492592   17.691138   21.526802 C.3        1 MOL1        -0.1689
       2    H1      17.614311   17.512818   22.162807 H          1 MOL1         0.0830
       3    H2      18.323279   17.197764   20.560076 H          1 MOL1         0.0830
       4    C2      19.753345   17.176370   22.234786 C.3        1 MOL1        -0.1689
       5    H3      19.579269   16.228184   22.761473 H          1 MOL1         0.0830
       6    H4      20.552768   17.018169   21.497547 H          1 MOL1         0.0830
       7    C3      20.146557   18.315376   23.193227 C.3        1 MOL1        -0.1765
       8    H5      21.229926   18.336090   23.368518 H          1 MOL1         0.0830
       9    H6      19.650922   18.162630   24.161628 H          1 MOL1         0.0830
      10    C4      19.652483   19.623418   22.540083 C.3        1 MOL1         0.1214
      11    H7      20.505617   20.188514   22.137160 H          1 MOL1         0.0787
      12    C5      18.724258   19.206424   21.380623 C.3        1 MOL1        -0.1765
      13    H8      17.777200   19.762383   21.384280 H          1 MOL1         0.0830
      14    H9      19.228060   19.411847   20.427173 H          1 MOL1         0.0830
      15    O1      18.933693   20.404205   23.487502 O.3        1 MOL1        -0.5512
      16    H10     19.565287   20.630203   24.202726 H          1 MOL1         0.3776
@<TRIPOS>BOND
    1     1     2    1
    2     1     3    1
    3     1     4    1
    4     4     5    1
    5     4     6    1
    6     4     7    1
    7     7     8    1
    8     7     9    1
    9     7    10    1
   10    10    11    1
   11     1    12    1
   12    10    12    1
   13    12    13    1
   14    12    14    1
   15    10    15    1
   16    15    16    1
@<TRIPOS>SUBSTRUCTURE
       1 MOL1            1 RESIDUE      1      MOL     
@<SCITEGIC>MOL_PROPERTY
VConf Rank
SciTegic.value.IntegerValue
607

@<SCITEGIC>MOL_PROPERTY
Conf_Id
SciTegic.value.IntegerValue
59

@<SCITEGIC>MOL_PROPERTY
Delta U+W
SciTegic.value.DoubleValue
0.000

@<SCITEGIC>MOL_PROPERTY
U+W
SciTegic.value.DoubleValue
3.010

@<SCITEGIC>MOL_PROPERTY
Grad RMS
SciTegic.value.DoubleValue
0.000000

@<SCITEGIC>MOL_PROPERTY
U
SciTegic.value.DoubleValue
5.843

@<SCITEGIC>MOL_PROPERTY
W
SciTegic.value.DoubleValue
-2.833

@<SCITEGIC>MOL_PROPERTY
W(PB)
SciTegic.value.DoubleValue
-4.568

@<SCITEGIC>MOL_PROPERTY
W(SA)
SciTegic.value.DoubleValue
1.735

@<SCITEGIC>MOL_PROPERTY
Valence
SciTegic.value.DoubleValue
13.789

@<SCITEGIC>MOL_PROPERTY
Coulomb
SciTegic.value.DoubleValue
-8.574

@<SCITEGIC>MOL_PROPERTY
VdW
SciTegic.value.DoubleValue
0.628

@<SCITEGIC>MOL_PROPERTY
VdW6
SciTegic.value.DoubleValue
-3.284

@<SCITEGIC>MOL_PROPERTY
VdW12
SciTegic.value.DoubleValue
3.912

@<SCITEGIC>MOL_PROPERTY
Bond
SciTegic.value.DoubleValue
0.054

@<SCITEGIC>MOL_PROPERTY
Angle
SciTegic.value.DoubleValue
4.034

@<SCITEGIC>MOL_PROPERTY
Pdih
SciTegic.value.DoubleValue
9.702

@<SCITEGIC>MOL_PROPERTY
Idih
SciTegic.value.DoubleValue
0.000

@<SCITEGIC>MOL_PROPERTY
Tether
SciTegic.value.DoubleValue
0.000

@<TRIPOS>MOLECULE
guest-4_confgen4.mol2 : confsearch ligand conformer 608
          16          16           1
SMALL
USER_CHARGES
 
@<TRIPOS>ATOM
       1    C1      18.608061   17.470429   22.081410 C.3        1 MOL1        -0.1689
       2    H1      17.825191   16.905303   22.605342 H          1 MOL1         0.0830
       3    H2      18.671384   17.094900   21.050590 H          1 MOL1         0.0830
       4    C2      19.977124   17.340954   22.763047 C.3        1 MOL1        -0.1689
       5    H3      19.849225   17.367367   23.854204 H          1 MOL1         0.0830
       6    H4      20.490420   16.406299   22.499249 H          1 MOL1         0.0830
       7    C3      20.755152   18.588232   22.304738 C.3        1 MOL1        -0.1765
       8    H5      21.300184   18.362884   21.378864 H          1 MOL1         0.0830
       9    H6      21.490575   18.904834   23.056360 H          1 MOL1         0.0830
      10    C4      19.704686   19.680680   22.016854 C.3        1 MOL1         0.1214
      11    H7      19.878928   20.096960   21.013923 H          1 MOL1         0.0787
      12    C5      18.328332   18.984425   22.067994 C.3        1 MOL1        -0.1765
      13    H8      17.794515   19.263377   22.986693 H          1 MOL1         0.0830
      14    H9      17.700431   19.268709   21.213729 H          1 MOL1         0.0830
      15    O1      19.775326   20.701696   23.005000 O.3        1 MOL1        -0.5512
      16    H10     19.083083   21.358861   22.780360 H          1 MOL1         0.3776
@<TRIPOS>BOND
    1     1     2    1
    2     1     3    1
    3     1     4    1
    4     4     5    1
    5     4     6    1
    6     4     7    1
    7     7     8    1
    8     7     9    1
    9     7    10    1
   10    10    11    1
   11     1    12    1
   12    10    12    1
   13    12    13    1
   14    12    14    1
   15    10    15    1
   16    15    16    1
@<TRIPOS>SUBSTRUCTURE
       1 MOL1            1 RESIDUE      1      MOL     
@<SCITEGIC>MOL_PROPERTY
VConf Rank
SciTegic.value.IntegerValue
608

@<SCITEGIC>MOL_PROPERTY
Conf_Id
SciTegic.value.IntegerValue
33

@<SCITEGIC>MOL_PROPERTY
Delta U+W
SciTegic.value.DoubleValue
0.015

@<SCITEGIC>MOL_PROPERTY
U+W
SciTegic.value.DoubleValue
3.025

@<SCITEGIC>MOL_PROPERTY
Grad RMS
SciTegic.value.DoubleValue
0.000000

@<SCITEGIC>MOL_PROPERTY
U
SciTegic.value.DoubleValue
5.843

@<SCITEGIC>MOL_PROPERTY
W
SciTegic.value.DoubleValue
-2.819

@<SCITEGIC>MOL_PROPERTY
W(PB)
SciTegic.value.DoubleValue
-4.568

@<SCITEGIC>MOL_PROPERTY
W(SA)
SciTegic.value.DoubleValue
1.750

@<SCITEGIC>MOL_PROPERTY
Valence
SciTegic.value.DoubleValue
13.789

@<SCITEGIC>MOL_PROPERTY
Coulomb
SciTegic.value.DoubleValue
-8.574

@<SCITEGIC>MOL_PROPERTY
VdW
SciTegic.value.DoubleValue
0.628

@<SCITEGIC>MOL_PROPERTY
VdW6
SciTegic.value.DoubleValue
-3.284

@<SCITEGIC>MOL_PROPERTY
VdW12
SciTegic.value.DoubleValue
3.913

@<SCITEGIC>MOL_PROPERTY
Bond
SciTegic.value.DoubleValue
0.054

@<SCITEGIC>MOL_PROPERTY
Angle
SciTegic.value.DoubleValue
4.033

@<SCITEGIC>MOL_PROPERTY
Pdih
SciTegic.value.DoubleValue
9.702

@<SCITEGIC>MOL_PROPERTY
Idih
SciTegic.value.DoubleValue
0.000

@<SCITEGIC>MOL_PROPERTY
Tether
SciTegic.value.DoubleValue
0.000

@<TRIPOS>MOLECULE
guest-4_confgen4.mol2 : confsearch ligand conformer 609
          16          16           1
SMALL
USER_CHARGES
 
@<TRIPOS>ATOM
       1    C1      19.662214   19.261201   21.126505 C.3        1 MOL1        -0.1689
       2    H1      20.194866   20.211004   21.272735 H          1 MOL1         0.0830
       3    H2      19.531181   19.115558   20.045480 H          1 MOL1         0.0830
       4    C2      18.305229   19.301271   21.862717 C.3        1 MOL1        -0.1689
       5    H3      18.180675   20.270840   22.364363 H          1 MOL1         0.0830
       6    H4      17.464366   19.175565   21.166910 H          1 MOL1         0.0830
       7    C3      18.338527   18.162520   22.904146 C.3        1 MOL1        -0.1765
       8    H5      17.824364   17.280560   22.499914 H          1 MOL1         0.0830
       9    H6      17.838095   18.440717   23.841259 H          1 MOL1         0.0830
      10    C4      19.820046   17.822513   23.115071 C.3        1 MOL1         0.1214
      11    H7      19.955173   16.775239   23.421568 H          1 MOL1         0.0787
      12    C5      20.464064   18.098957   21.749869 C.3        1 MOL1        -0.1765
      13    H8      21.534437   18.329694   21.833926 H          1 MOL1         0.0830
      14    H9      20.363448   17.204819   21.120571 H          1 MOL1         0.0830
      15    O1      20.370333   18.707726   24.079637 O.3        1 MOL1        -0.5512
      16    H10     20.204735   19.605581   23.725242 H          1 MOL1         0.3776
@<TRIPOS>BOND
    1     1     2    1
    2     1     3    1
    3     1     4    1
    4     4     5    1
    5     4     6    1
    6     4     7    1
    7     7     8    1
    8     7     9    1
    9     7    10    1
   10    10    11    1
   11     1    12    1
   12    10    12    1
   13    12    13    1
   14    12    14    1
   15    10    15    1
   16    15    16    1
@<TRIPOS>SUBSTRUCTURE
       1 MOL1            1 RESIDUE      1      MOL     
@<SCITEGIC>MOL_PROPERTY
VConf Rank
SciTegic.value.IntegerValue
609

@<SCITEGIC>MOL_PROPERTY
Conf_Id
SciTegic.value.IntegerValue
20

@<SCITEGIC>MOL_PROPERTY
Delta U+W
SciTegic.value.DoubleValue
-0.483

@<SCITEGIC>MOL_PROPERTY
U+W
SciTegic.value.DoubleValue
2.527

@<SCITEGIC>MOL_PROPERTY
Grad RMS
SciTegic.value.DoubleValue
0.000000

@<SCITEGIC>MOL_PROPERTY
U
SciTegic.value.DoubleValue
4.508

@<SCITEGIC>MOL_PROPERTY
W
SciTegic.value.DoubleValue
-1.981

@<SCITEGIC>MOL_PROPERTY
W(PB)
SciTegic.value.DoubleValue
-3.712

@<SCITEGIC>MOL_PROPERTY
W(SA)
SciTegic.value.DoubleValue
1.732

@<SCITEGIC>MOL_PROPERTY
Valence
SciTegic.value.DoubleValue
14.705

@<SCITEGIC>MOL_PROPERTY
Coulomb
SciTegic.value.DoubleValue
-10.687

@<SCITEGIC>MOL_PROPERTY
VdW
SciTegic.value.DoubleValue
0.490

@<SCITEGIC>MOL_PROPERTY
VdW6
SciTegic.value.DoubleValue
-3.745

@<SCITEGIC>MOL_PROPERTY
VdW12
SciTegic.value.DoubleValue
4.235

@<SCITEGIC>MOL_PROPERTY
Bond
SciTegic.value.DoubleValue
0.068

@<SCITEGIC>MOL_PROPERTY
Angle
SciTegic.value.DoubleValue
3.901

@<SCITEGIC>MOL_PROPERTY
Pdih
SciTegic.value.DoubleValue
10.737

@<SCITEGIC>MOL_PROPERTY
Idih
SciTegic.value.DoubleValue
0.000

@<SCITEGIC>MOL_PROPERTY
Tether
SciTegic.value.DoubleValue
0.000

@<TRIPOS>MOLECULE
guest-4_confgen4.mol2 : confsearch ligand conformer 610
          16          16           1
SMALL
USER_CHARGES
 
@<TRIPOS>ATOM
       1    C1      20.517584   17.992143   21.640714 C.3        1 MOL1        -0.1689
       2    H1      21.362987   18.616760   21.961378 H          1 MOL1         0.0830
       3    H2      20.907109   17.186662   21.003444 H          1 MOL1         0.0830
       4    C2      19.480477   18.862231   20.917468 C.3        1 MOL1        -0.1689
       5    H3      19.946834   19.615954   20.268490 H          1 MOL1         0.0830
       6    H4      18.833569   18.227019   20.296469 H          1 MOL1         0.0830
       7    C3      18.654316   19.496012   22.051636 C.3        1 MOL1        -0.1765
       8    H5      17.625146   19.702860   21.730903 H          1 MOL1         0.0830
       9    H6      19.113776   20.449196   22.346800 H          1 MOL1         0.0830
      10    C4      18.692128   18.497355   23.227617 C.3        1 MOL1         0.1214
      11    H7      17.719786   17.992629   23.324170 H          1 MOL1         0.0787
      12    C5      19.774623   17.455323   22.878035 C.3        1 MOL1        -0.1765
      13    H8      20.462224   17.271947   23.714456 H          1 MOL1         0.0830
      14    H9      19.288044   16.502768   22.631134 H          1 MOL1         0.0830
      15    O1      19.031387   19.171578   24.433526 O.3        1 MOL1        -0.5512
      16    H10     18.319577   19.825097   24.600172 H          1 MOL1         0.3776
@<TRIPOS>BOND
    1     1     2    1
    2     1     3    1
    3     1     4    1
    4     4     5    1
    5     4     6    1
    6     4     7    1
    7     7     8    1
    8     7     9    1
    9     7    10    1
   10    10    11    1
   11     1    12    1
   12    10    12    1
   13    12    13    1
   14    12    14    1
   15    10    15    1
   16    15    16    1
@<TRIPOS>SUBSTRUCTURE
       1 MOL1            1 RESIDUE      1      MOL     
@<SCITEGIC>MOL_PROPERTY
VConf Rank
SciTegic.value.IntegerValue
610

@<SCITEGIC>MOL_PROPERTY
Conf_Id
SciTegic.value.IntegerValue
59

@<SCITEGIC>MOL_PROPERTY
Delta U+W
SciTegic.value.DoubleValue
0.000

@<SCITEGIC>MOL_PROPERTY
U+W
SciTegic.value.DoubleValue
3.010

@<SCITEGIC>MOL_PROPERTY
Grad RMS
SciTegic.value.DoubleValue
0.000000

@<SCITEGIC>MOL_PROPERTY
U
SciTegic.value.DoubleValue
5.843

@<SCITEGIC>MOL_PROPERTY
W
SciTegic.value.DoubleValue
-2.833

@<SCITEGIC>MOL_PROPERTY
W(PB)
SciTegic.value.DoubleValue
-4.568

@<SCITEGIC>MOL_PROPERTY
W(SA)
SciTegic.value.DoubleValue
1.735

@<SCITEGIC>MOL_PROPERTY
Valence
SciTegic.value.DoubleValue
13.789

@<SCITEGIC>MOL_PROPERTY
Coulomb
SciTegic.value.DoubleValue
-8.574

@<SCITEGIC>MOL_PROPERTY
VdW
SciTegic.value.DoubleValue
0.628

@<SCITEGIC>MOL_PROPERTY
VdW6
SciTegic.value.DoubleValue
-3.284

@<SCITEGIC>MOL_PROPERTY
VdW12
SciTegic.value.DoubleValue
3.912

@<SCITEGIC>MOL_PROPERTY
Bond
SciTegic.value.DoubleValue
0.054

@<SCITEGIC>MOL_PROPERTY
Angle
SciTegic.value.DoubleValue
4.034

@<SCITEGIC>MOL_PROPERTY
Pdih
SciTegic.value.DoubleValue
9.702

@<SCITEGIC>MOL_PROPERTY
Idih
SciTegic.value.DoubleValue
0.000

@<SCITEGIC>MOL_PROPERTY
Tether
SciTegic.value.DoubleValue
0.000

@<TRIPOS>MOLECULE
guest-4_confgen4.mol2 : confsearch ligand conformer 611
          16          16           1
SMALL
USER_CHARGES
 
@<TRIPOS>ATOM
       1    C1      18.577502   19.584798   22.883904 C.3        1 MOL1        -0.1689
       2    H1      17.638155   20.107245   22.657113 H          1 MOL1         0.0830
       3    H2      18.854823   19.811928   23.922714 H          1 MOL1         0.0830
       4    C2      19.717505   19.998205   21.943045 C.3        1 MOL1        -0.1689
       5    H3      19.328689   20.113068   20.921621 H          1 MOL1         0.0830
       6    H4      20.185213   20.946151   22.241858 H          1 MOL1         0.0830
       7    C3      20.703271   18.816185   21.989646 C.3        1 MOL1        -0.1765
       8    H5      21.434132   18.977407   22.792725 H          1 MOL1         0.0830
       9    H6      21.258993   18.715785   21.047780 H          1 MOL1         0.0830
      10    C4      19.868641   17.559965   22.313842 C.3        1 MOL1         0.1214
      11    H7      20.324088   17.030464   23.163380 H          1 MOL1         0.0787
      12    C5      18.460218   18.060971   22.697343 C.3        1 MOL1        -0.1765
      13    H8      17.747217   17.847720   21.889299 H          1 MOL1         0.0830
      14    H9      18.092604   17.572422   23.608950 H          1 MOL1         0.0830
      15    O1      19.794587   16.712507   21.173567 O.3        1 MOL1        -0.5512
      16    H10     19.246976   15.941089   21.431572 H          1 MOL1         0.3776
@<TRIPOS>BOND
    1     1     2    1
    2     1     3    1
    3     1     4    1
    4     4     5    1
    5     4     6    1
    6     4     7    1
    7     7     8    1
    8     7     9    1
    9     7    10    1
   10    10    11    1
   11     1    12    1
   12    10    12    1
   13    12    13    1
   14    12    14    1
   15    10    15    1
   16    15    16    1
@<TRIPOS>SUBSTRUCTURE
       1 MOL1            1 RESIDUE      1      MOL     
@<SCITEGIC>MOL_PROPERTY
VConf Rank
SciTegic.value.IntegerValue
611

@<SCITEGIC>MOL_PROPERTY
Conf_Id
SciTegic.value.IntegerValue
33

@<SCITEGIC>MOL_PROPERTY
Delta U+W
SciTegic.value.DoubleValue
0.015

@<SCITEGIC>MOL_PROPERTY
U+W
SciTegic.value.DoubleValue
3.025

@<SCITEGIC>MOL_PROPERTY
Grad RMS
SciTegic.value.DoubleValue
0.000000

@<SCITEGIC>MOL_PROPERTY
U
SciTegic.value.DoubleValue
5.843

@<SCITEGIC>MOL_PROPERTY
W
SciTegic.value.DoubleValue
-2.819

@<SCITEGIC>MOL_PROPERTY
W(PB)
SciTegic.value.DoubleValue
-4.568

@<SCITEGIC>MOL_PROPERTY
W(SA)
SciTegic.value.DoubleValue
1.750

@<SCITEGIC>MOL_PROPERTY
Valence
SciTegic.value.DoubleValue
13.789

@<SCITEGIC>MOL_PROPERTY
Coulomb
SciTegic.value.DoubleValue
-8.574

@<SCITEGIC>MOL_PROPERTY
VdW
SciTegic.value.DoubleValue
0.628

@<SCITEGIC>MOL_PROPERTY
VdW6
SciTegic.value.DoubleValue
-3.284

@<SCITEGIC>MOL_PROPERTY
VdW12
SciTegic.value.DoubleValue
3.913

@<SCITEGIC>MOL_PROPERTY
Bond
SciTegic.value.DoubleValue
0.054

@<SCITEGIC>MOL_PROPERTY
Angle
SciTegic.value.DoubleValue
4.033

@<SCITEGIC>MOL_PROPERTY
Pdih
SciTegic.value.DoubleValue
9.702

@<SCITEGIC>MOL_PROPERTY
Idih
SciTegic.value.DoubleValue
0.000

@<SCITEGIC>MOL_PROPERTY
Tether
SciTegic.value.DoubleValue
0.000

@<TRIPOS>MOLECULE
guest-4_confgen4.mol2 : confsearch ligand conformer 612
          16          16           1
SMALL
USER_CHARGES
 
@<TRIPOS>ATOM
       1    C1      19.193203   17.601789   21.401526 C.3        1 MOL1        -0.1689
       2    H1      18.406604   17.780739   20.655559 H          1 MOL1         0.0830
       3    H2      19.623131   16.610783   21.201362 H          1 MOL1         0.0830
       4    C2      18.597134   17.685487   22.823749 C.3        1 MOL1        -0.1689
       5    H3      17.521866   17.903890   22.766074 H          1 MOL1         0.0830
       6    H4      18.716170   16.738548   23.367933 H          1 MOL1         0.0830
       7    C3      19.336836   18.834518   23.541387 C.3        1 MOL1        -0.1765
       8    H5      20.143946   18.421074   24.160465 H          1 MOL1         0.0830
       9    H6      18.672484   19.410335   24.199473 H          1 MOL1         0.0830
      10    C4      19.952014   19.701023   22.434265 C.3        1 MOL1         0.1214
      11    H7      20.855945   20.221086   22.782730 H          1 MOL1         0.0787
      12    C5      20.271568   18.702584   21.313569 C.3        1 MOL1        -0.1765
      13    H8      20.298453   19.180964   20.325422 H          1 MOL1         0.0830
      14    H9      21.260514   18.263000   21.498969 H          1 MOL1         0.0830
      15    O1      18.980661   20.628068   21.971806 O.3        1 MOL1        -0.5512
      16    H10     18.221223   20.079874   21.685625 H          1 MOL1         0.3776
@<TRIPOS>BOND
    1     1     2    1
    2     1     3    1
    3     1     4    1
    4     4     5    1
    5     4     6    1
    6     4     7    1
    7     7     8    1
    8     7     9    1
    9     7    10    1
   10    10    11    1
   11     1    12    1
   12    10    12    1
   13    12    13    1
   14    12    14    1
   15    10    15    1
   16    15    16    1
@<TRIPOS>SUBSTRUCTURE
       1 MOL1            1 RESIDUE      1      MOL     
@<SCITEGIC>MOL_PROPERTY
VConf Rank
SciTegic.value.IntegerValue
612

@<SCITEGIC>MOL_PROPERTY
Conf_Id
SciTegic.value.IntegerValue
20

@<SCITEGIC>MOL_PROPERTY
Delta U+W
SciTegic.value.DoubleValue
-0.483

@<SCITEGIC>MOL_PROPERTY
U+W
SciTegic.value.DoubleValue
2.527

@<SCITEGIC>MOL_PROPERTY
Grad RMS
SciTegic.value.DoubleValue
0.000000

@<SCITEGIC>MOL_PROPERTY
U
SciTegic.value.DoubleValue
4.508

@<SCITEGIC>MOL_PROPERTY
W
SciTegic.value.DoubleValue
-1.981

@<SCITEGIC>MOL_PROPERTY
W(PB)
SciTegic.value.DoubleValue
-3.712

@<SCITEGIC>MOL_PROPERTY
W(SA)
SciTegic.value.DoubleValue
1.732

@<SCITEGIC>MOL_PROPERTY
Valence
SciTegic.value.DoubleValue
14.705

@<SCITEGIC>MOL_PROPERTY
Coulomb
SciTegic.value.DoubleValue
-10.687

@<SCITEGIC>MOL_PROPERTY
VdW
SciTegic.value.DoubleValue
0.490

@<SCITEGIC>MOL_PROPERTY
VdW6
SciTegic.value.DoubleValue
-3.745

@<SCITEGIC>MOL_PROPERTY
VdW12
SciTegic.value.DoubleValue
4.235

@<SCITEGIC>MOL_PROPERTY
Bond
SciTegic.value.DoubleValue
0.068

@<SCITEGIC>MOL_PROPERTY
Angle
SciTegic.value.DoubleValue
3.901

@<SCITEGIC>MOL_PROPERTY
Pdih
SciTegic.value.DoubleValue
10.737

@<SCITEGIC>MOL_PROPERTY
Idih
SciTegic.value.DoubleValue
0.000

@<SCITEGIC>MOL_PROPERTY
Tether
SciTegic.value.DoubleValue
0.000

@<TRIPOS>MOLECULE
guest-4_confgen4.mol2 : confsearch ligand conformer 613
          16          16           1
SMALL
USER_CHARGES
 
@<TRIPOS>ATOM
       1    C1      20.170032   19.750302   22.160627 C.3        1 MOL1        -0.1689
       2    H1      20.112664   19.997505   21.091386 H          1 MOL1         0.0830
       3    H2      20.759217   20.529580   22.662853 H          1 MOL1         0.0830
       4    C2      20.779188   18.352148   22.333316 C.3        1 MOL1        -0.1689
       5    H3      21.603597   18.165832   21.631608 H          1 MOL1         0.0830
       6    H4      21.166553   18.241406   23.355720 H          1 MOL1         0.0830
       7    C3      19.596936   17.389812   22.117100 C.3        1 MOL1        -0.1765
       8    H5      19.728476   16.459093   22.683939 H          1 MOL1         0.0830
       9    H6      19.530477   17.129610   21.051895 H          1 MOL1         0.0830
      10    C4      18.329984   18.150585   22.561775 C.3        1 MOL1         0.1214
      11    H7      17.972963   17.756740   23.524553 H          1 MOL1         0.0787
      12    C5      18.747998   19.625058   22.737917 C.3        1 MOL1        -0.1765
      13    H8      18.050395   20.317445   22.248046 H          1 MOL1         0.0830
      14    H9      18.762247   19.867629   23.808448 H          1 MOL1         0.0830
      15    O1      17.318297   18.042865   21.567403 O.3        1 MOL1        -0.5512
      16    H10     17.100543   17.089924   21.489827 H          1 MOL1         0.3776
@<TRIPOS>BOND
    1     1     2    1
    2     1     3    1
    3     1     4    1
    4     4     5    1
    5     4     6    1
    6     4     7    1
    7     7     8    1
    8     7     9    1
    9     7    10    1
   10    10    11    1
   11     1    12    1
   12    10    12    1
   13    12    13    1
   14    12    14    1
   15    10    15    1
   16    15    16    1
@<TRIPOS>SUBSTRUCTURE
       1 MOL1            1 RESIDUE      1      MOL     
@<SCITEGIC>MOL_PROPERTY
VConf Rank
SciTegic.value.IntegerValue
613

@<SCITEGIC>MOL_PROPERTY
Conf_Id
SciTegic.value.IntegerValue
59

@<SCITEGIC>MOL_PROPERTY
Delta U+W
SciTegic.value.DoubleValue
0.000

@<SCITEGIC>MOL_PROPERTY
U+W
SciTegic.value.DoubleValue
3.010

@<SCITEGIC>MOL_PROPERTY
Grad RMS
SciTegic.value.DoubleValue
0.000000

@<SCITEGIC>MOL_PROPERTY
U
SciTegic.value.DoubleValue
5.843

@<SCITEGIC>MOL_PROPERTY
W
SciTegic.value.DoubleValue
-2.833

@<SCITEGIC>MOL_PROPERTY
W(PB)
SciTegic.value.DoubleValue
-4.568

@<SCITEGIC>MOL_PROPERTY
W(SA)
SciTegic.value.DoubleValue
1.735

@<SCITEGIC>MOL_PROPERTY
Valence
SciTegic.value.DoubleValue
13.789

@<SCITEGIC>MOL_PROPERTY
Coulomb
SciTegic.value.DoubleValue
-8.574

@<SCITEGIC>MOL_PROPERTY
VdW
SciTegic.value.DoubleValue
0.628

@<SCITEGIC>MOL_PROPERTY
VdW6
SciTegic.value.DoubleValue
-3.284

@<SCITEGIC>MOL_PROPERTY
VdW12
SciTegic.value.DoubleValue
3.912

@<SCITEGIC>MOL_PROPERTY
Bond
SciTegic.value.DoubleValue
0.054

@<SCITEGIC>MOL_PROPERTY
Angle
SciTegic.value.DoubleValue
4.034

@<SCITEGIC>MOL_PROPERTY
Pdih
SciTegic.value.DoubleValue
9.702

@<SCITEGIC>MOL_PROPERTY
Idih
SciTegic.value.DoubleValue
0.000

@<SCITEGIC>MOL_PROPERTY
Tether
SciTegic.value.DoubleValue
0.000

@<TRIPOS>MOLECULE
guest-4_confgen4.mol2 : confsearch ligand conformer 614
          16          16           1
SMALL
USER_CHARGES
 
@<TRIPOS>ATOM
       1    C1      18.047029   18.441882   22.052650 C.3        1 MOL1        -0.1689
       2    H1      17.284493   17.652322   22.096150 H          1 MOL1         0.0830
       3    H2      17.539802   19.399808   21.871758 H          1 MOL1         0.0830
       4    C2      19.085072   18.191107   20.950241 C.3        1 MOL1        -0.1689
       5    H3      19.329968   17.120493   20.911640 H          1 MOL1         0.0830
       6    H4      18.726245   18.498027   19.958432 H          1 MOL1         0.0830
       7    C3      20.324026   18.987596   21.399323 C.3        1 MOL1        -0.1765
       8    H5      20.275466   20.005514   20.991194 H          1 MOL1         0.0830
       9    H6      21.253383   18.527199   21.038283 H          1 MOL1         0.0830
      10    C4      20.266079   19.059784   22.939202 C.3        1 MOL1         0.1214
      11    H7      20.377086   20.106392   23.258277 H          1 MOL1         0.0787
      12    C5      18.876052   18.527743   23.347238 C.3        1 MOL1        -0.1765
      13    H8      18.966372   17.525535   23.787922 H          1 MOL1         0.0830
      14    H9      18.396094   19.179867   24.088333 H          1 MOL1         0.0830
      15    O1      21.288035   18.249218   23.507080 O.3        1 MOL1        -0.5512
      16    H10     21.197415   18.323426   24.480635 H          1 MOL1         0.3776
@<TRIPOS>BOND
    1     1     2    1
    2     1     3    1
    3     1     4    1
    4     4     5    1
    5     4     6    1
    6     4     7    1
    7     7     8    1
    8     7     9    1
    9     7    10    1
   10    10    11    1
   11     1    12    1
   12    10    12    1
   13    12    13    1
   14    12    14    1
   15    10    15    1
   16    15    16    1
@<TRIPOS>SUBSTRUCTURE
       1 MOL1            1 RESIDUE      1      MOL     
@<SCITEGIC>MOL_PROPERTY
VConf Rank
SciTegic.value.IntegerValue
614

@<SCITEGIC>MOL_PROPERTY
Conf_Id
SciTegic.value.IntegerValue
33

@<SCITEGIC>MOL_PROPERTY
Delta U+W
SciTegic.value.DoubleValue
0.015

@<SCITEGIC>MOL_PROPERTY
U+W
SciTegic.value.DoubleValue
3.025

@<SCITEGIC>MOL_PROPERTY
Grad RMS
SciTegic.value.DoubleValue
0.000000

@<SCITEGIC>MOL_PROPERTY
U
SciTegic.value.DoubleValue
5.843

@<SCITEGIC>MOL_PROPERTY
W
SciTegic.value.DoubleValue
-2.819

@<SCITEGIC>MOL_PROPERTY
W(PB)
SciTegic.value.DoubleValue
-4.568

@<SCITEGIC>MOL_PROPERTY
W(SA)
SciTegic.value.DoubleValue
1.750

@<SCITEGIC>MOL_PROPERTY
Valence
SciTegic.value.DoubleValue
13.789

@<SCITEGIC>MOL_PROPERTY
Coulomb
SciTegic.value.DoubleValue
-8.574

@<SCITEGIC>MOL_PROPERTY
VdW
SciTegic.value.DoubleValue
0.628

@<SCITEGIC>MOL_PROPERTY
VdW6
SciTegic.value.DoubleValue
-3.284

@<SCITEGIC>MOL_PROPERTY
VdW12
SciTegic.value.DoubleValue
3.913

@<SCITEGIC>MOL_PROPERTY
Bond
SciTegic.value.DoubleValue
0.054

@<SCITEGIC>MOL_PROPERTY
Angle
SciTegic.value.DoubleValue
4.033

@<SCITEGIC>MOL_PROPERTY
Pdih
SciTegic.value.DoubleValue
9.702

@<SCITEGIC>MOL_PROPERTY
Idih
SciTegic.value.DoubleValue
0.000

@<SCITEGIC>MOL_PROPERTY
Tether
SciTegic.value.DoubleValue
0.000

@<TRIPOS>MOLECULE
guest-4_confgen4.mol2 : confsearch ligand conformer 615
          16          16           1
SMALL
USER_CHARGES
 
@<TRIPOS>ATOM
       1    C1      20.000287   17.628893   22.917643 C.3        1 MOL1        -0.1689
       2    H1      19.326953   16.951723   23.461049 H          1 MOL1         0.0830
       3    H2      21.027732   17.271620   23.071623 H          1 MOL1         0.0830
       4    C2      19.818575   19.073949   23.431271 C.3        1 MOL1        -0.1689
       5    H3      19.058075   19.095982   24.223976 H          1 MOL1         0.0830
       6    H4      20.751266   19.472964   23.853021 H          1 MOL1         0.0830
       7    C3      19.352926   19.912872   22.222215 C.3        1 MOL1        -0.1765
       8    H5      20.214939   20.430498   21.781059 H          1 MOL1         0.0830
       9    H6      18.614044   20.674842   22.504102 H          1 MOL1         0.0830
      10    C4      18.795683   18.912858   21.200234 C.3        1 MOL1         0.1214
      11    H7      18.889838   19.290440   20.171861 H          1 MOL1         0.0787
      12    C5      19.638803   17.649123   21.417217 C.3        1 MOL1        -0.1765
      13    H8      19.111399   16.738295   21.103784 H          1 MOL1         0.0830
      14    H9      20.556782   17.726018   20.819703 H          1 MOL1         0.0830
      15    O1      17.439803   18.630064   21.513957 O.3        1 MOL1        -0.5512
      16    H10     17.454648   18.303623   22.437201 H          1 MOL1         0.3776
@<TRIPOS>BOND
    1     1     2    1
    2     1     3    1
    3     1     4    1
    4     4     5    1
    5     4     6    1
    6     4     7    1
    7     7     8    1
    8     7     9    1
    9     7    10    1
   10    10    11    1
   11     1    12    1
   12    10    12    1
   13    12    13    1
   14    12    14    1
   15    10    15    1
   16    15    16    1
@<TRIPOS>SUBSTRUCTURE
       1 MOL1            1 RESIDUE      1      MOL     
@<SCITEGIC>MOL_PROPERTY
VConf Rank
SciTegic.value.IntegerValue
615

@<SCITEGIC>MOL_PROPERTY
Conf_Id
SciTegic.value.IntegerValue
20

@<SCITEGIC>MOL_PROPERTY
Delta U+W
SciTegic.value.DoubleValue
-0.483

@<SCITEGIC>MOL_PROPERTY
U+W
SciTegic.value.DoubleValue
2.527

@<SCITEGIC>MOL_PROPERTY
Grad RMS
SciTegic.value.DoubleValue
0.000000

@<SCITEGIC>MOL_PROPERTY
U
SciTegic.value.DoubleValue
4.508

@<SCITEGIC>MOL_PROPERTY
W
SciTegic.value.DoubleValue
-1.981

@<SCITEGIC>MOL_PROPERTY
W(PB)
SciTegic.value.DoubleValue
-3.712

@<SCITEGIC>MOL_PROPERTY
W(SA)
SciTegic.value.DoubleValue
1.732

@<SCITEGIC>MOL_PROPERTY
Valence
SciTegic.value.DoubleValue
14.705

@<SCITEGIC>MOL_PROPERTY
Coulomb
SciTegic.value.DoubleValue
-10.687

@<SCITEGIC>MOL_PROPERTY
VdW
SciTegic.value.DoubleValue
0.490

@<SCITEGIC>MOL_PROPERTY
VdW6
SciTegic.value.DoubleValue
-3.745

@<SCITEGIC>MOL_PROPERTY
VdW12
SciTegic.value.DoubleValue
4.235

@<SCITEGIC>MOL_PROPERTY
Bond
SciTegic.value.DoubleValue
0.068

@<SCITEGIC>MOL_PROPERTY
Angle
SciTegic.value.DoubleValue
3.901

@<SCITEGIC>MOL_PROPERTY
Pdih
SciTegic.value.DoubleValue
10.737

@<SCITEGIC>MOL_PROPERTY
Idih
SciTegic.value.DoubleValue
0.000

@<SCITEGIC>MOL_PROPERTY
Tether
SciTegic.value.DoubleValue
0.000

@<TRIPOS>MOLECULE
guest-4_confgen4.mol2 : confsearch ligand conformer 616
          16          16           1
SMALL
USER_CHARGES
 
@<TRIPOS>ATOM
       1    C1      18.831169   18.480848   20.961119 C.3        1 MOL1        -0.1689
       2    H1      18.062302   17.696505   20.997562 H          1 MOL1         0.0830
       3    H2      18.837196   18.910097   19.950004 H          1 MOL1         0.0830
       4    C2      20.190825   17.886898   21.353911 C.3        1 MOL1        -0.1689
       5    H3      20.342932   16.880966   20.939516 H          1 MOL1         0.0830
       6    H4      20.997834   18.535726   20.985965 H          1 MOL1         0.0830
       7    C3      20.180235   17.890893   22.893531 C.3        1 MOL1        -0.1765
       8    H5      21.194334   17.991444   23.301378 H          1 MOL1         0.0830
       9    H6      19.763212   16.941573   23.256390 H          1 MOL1         0.0830
      10    C4      19.278274   19.068590   23.319179 C.3        1 MOL1         0.1214
      11    H7      19.894065   19.893446   23.706390 H          1 MOL1         0.0787
      12    C5      18.543622   19.535552   22.045575 C.3        1 MOL1        -0.1765
      13    H8      17.465268   19.663196   22.209526 H          1 MOL1         0.0830
      14    H9      18.950739   20.505917   21.732957 H          1 MOL1         0.0830
      15    O1      18.339165   18.639027   24.297667 O.3        1 MOL1        -0.5512
      16    H10     18.858393   18.344855   25.075741 H          1 MOL1         0.3776
@<TRIPOS>BOND
    1     1     2    1
    2     1     3    1
    3     1     4    1
    4     4     5    1
    5     4     6    1
    6     4     7    1
    7     7     8    1
    8     7     9    1
    9     7    10    1
   10    10    11    1
   11     1    12    1
   12    10    12    1
   13    12    13    1
   14    12    14    1
   15    10    15    1
   16    15    16    1
@<TRIPOS>SUBSTRUCTURE
       1 MOL1            1 RESIDUE      1      MOL     
@<SCITEGIC>MOL_PROPERTY
VConf Rank
SciTegic.value.IntegerValue
616

@<SCITEGIC>MOL_PROPERTY
Conf_Id
SciTegic.value.IntegerValue
59

@<SCITEGIC>MOL_PROPERTY
Delta U+W
SciTegic.value.DoubleValue
0.000

@<SCITEGIC>MOL_PROPERTY
U+W
SciTegic.value.DoubleValue
3.010

@<SCITEGIC>MOL_PROPERTY
Grad RMS
SciTegic.value.DoubleValue
0.000000

@<SCITEGIC>MOL_PROPERTY
U
SciTegic.value.DoubleValue
5.843

@<SCITEGIC>MOL_PROPERTY
W
SciTegic.value.DoubleValue
-2.833

@<SCITEGIC>MOL_PROPERTY
W(PB)
SciTegic.value.DoubleValue
-4.568

@<SCITEGIC>MOL_PROPERTY
W(SA)
SciTegic.value.DoubleValue
1.735

@<SCITEGIC>MOL_PROPERTY
Valence
SciTegic.value.DoubleValue
13.789

@<SCITEGIC>MOL_PROPERTY
Coulomb
SciTegic.value.DoubleValue
-8.574

@<SCITEGIC>MOL_PROPERTY
VdW
SciTegic.value.DoubleValue
0.628

@<SCITEGIC>MOL_PROPERTY
VdW6
SciTegic.value.DoubleValue
-3.284

@<SCITEGIC>MOL_PROPERTY
VdW12
SciTegic.value.DoubleValue
3.912

@<SCITEGIC>MOL_PROPERTY
Bond
SciTegic.value.DoubleValue
0.054

@<SCITEGIC>MOL_PROPERTY
Angle
SciTegic.value.DoubleValue
4.034

@<SCITEGIC>MOL_PROPERTY
Pdih
SciTegic.value.DoubleValue
9.702

@<SCITEGIC>MOL_PROPERTY
Idih
SciTegic.value.DoubleValue
0.000

@<SCITEGIC>MOL_PROPERTY
Tether
SciTegic.value.DoubleValue
0.000

@<TRIPOS>MOLECULE
guest-4_confgen4.mol2 : confsearch ligand conformer 617
          16          16           1
SMALL
USER_CHARGES
 
@<TRIPOS>ATOM
       1    C1      19.149570   17.290406   21.821430 C.3        1 MOL1        -0.1689
       2    H1      18.953752   16.287319   22.224209 H          1 MOL1         0.0830
       3    H2      18.942644   17.273757   20.742298 H          1 MOL1         0.0830
       4    C2      20.595658   17.744574   22.062860 C.3        1 MOL1        -0.1689
       5    H3      20.918350   17.429047   23.064854 H          1 MOL1         0.0830
       6    H4      21.295582   17.324590   21.327767 H          1 MOL1         0.0830
       7    C3      20.531888   19.281877   22.001968 C.3        1 MOL1        -0.1765
       8    H5      20.698698   19.616952   20.969988 H          1 MOL1         0.0830
       9    H6      21.303841   19.743838   22.631810 H          1 MOL1         0.0830
      10    C4      19.106217   19.680464   22.436003 C.3        1 MOL1         0.1214
      11    H7      18.673828   20.357712   21.685074 H          1 MOL1         0.0787
      12    C5      18.289737   18.372416   22.500070 C.3        1 MOL1        -0.1765
      13    H8      18.107053   18.088518   23.545446 H          1 MOL1         0.0830
      14    H9      17.316054   18.479961   22.004870 H          1 MOL1         0.0830
      15    O1      19.138665   20.302033   23.715259 O.3        1 MOL1        -0.5512
      16    H10     18.211078   20.522447   23.944452 H          1 MOL1         0.3776
@<TRIPOS>BOND
    1     1     2    1
    2     1     3    1
    3     1     4    1
    4     4     5    1
    5     4     6    1
    6     4     7    1
    7     7     8    1
    8     7     9    1
    9     7    10    1
   10    10    11    1
   11     1    12    1
   12    10    12    1
   13    12    13    1
   14    12    14    1
   15    10    15    1
   16    15    16    1
@<TRIPOS>SUBSTRUCTURE
       1 MOL1            1 RESIDUE      1      MOL     
@<SCITEGIC>MOL_PROPERTY
VConf Rank
SciTegic.value.IntegerValue
617

@<SCITEGIC>MOL_PROPERTY
Conf_Id
SciTegic.value.IntegerValue
33

@<SCITEGIC>MOL_PROPERTY
Delta U+W
SciTegic.value.DoubleValue
0.015

@<SCITEGIC>MOL_PROPERTY
U+W
SciTegic.value.DoubleValue
3.025

@<SCITEGIC>MOL_PROPERTY
Grad RMS
SciTegic.value.DoubleValue
0.000000

@<SCITEGIC>MOL_PROPERTY
U
SciTegic.value.DoubleValue
5.843

@<SCITEGIC>MOL_PROPERTY
W
SciTegic.value.DoubleValue
-2.819

@<SCITEGIC>MOL_PROPERTY
W(PB)
SciTegic.value.DoubleValue
-4.568

@<SCITEGIC>MOL_PROPERTY
W(SA)
SciTegic.value.DoubleValue
1.750

@<SCITEGIC>MOL_PROPERTY
Valence
SciTegic.value.DoubleValue
13.789

@<SCITEGIC>MOL_PROPERTY
Coulomb
SciTegic.value.DoubleValue
-8.574

@<SCITEGIC>MOL_PROPERTY
VdW
SciTegic.value.DoubleValue
0.628

@<SCITEGIC>MOL_PROPERTY
VdW6
SciTegic.value.DoubleValue
-3.284

@<SCITEGIC>MOL_PROPERTY
VdW12
SciTegic.value.DoubleValue
3.913

@<SCITEGIC>MOL_PROPERTY
Bond
SciTegic.value.DoubleValue
0.054

@<SCITEGIC>MOL_PROPERTY
Angle
SciTegic.value.DoubleValue
4.033

@<SCITEGIC>MOL_PROPERTY
Pdih
SciTegic.value.DoubleValue
9.702

@<SCITEGIC>MOL_PROPERTY
Idih
SciTegic.value.DoubleValue
0.000

@<SCITEGIC>MOL_PROPERTY
Tether
SciTegic.value.DoubleValue
0.000

@<TRIPOS>MOLECULE
guest-4_confgen4.mol2 : confsearch ligand conformer 618
          16          16           1
SMALL
USER_CHARGES
 
@<TRIPOS>ATOM
       1    C1      18.695384   17.482788   22.040105 C.3        1 MOL1        -0.1689
       2    H1      19.317974   16.627074   21.744532 H          1 MOL1         0.0830
       3    H2      17.653694   17.136786   22.086583 H          1 MOL1         0.0830
       4    C2      18.866921   18.632988   21.023918 C.3        1 MOL1        -0.1689
       5    H3      19.571702   18.333557   20.235976 H          1 MOL1         0.0830
       6    H4      17.914731   18.889350   20.539551 H          1 MOL1         0.0830
       7    C3      19.428834   19.834370   21.813456 C.3        1 MOL1        -0.1765
       8    H5      18.608239   20.512216   22.083215 H          1 MOL1         0.0830
       9    H6      20.159989   20.410253   21.230553 H          1 MOL1         0.0830
      10    C4      20.036993   19.252737   23.096748 C.3        1 MOL1         0.1214
      11    H7      20.020034   19.982228   23.919267 H          1 MOL1         0.0787
      12    C5      19.158926   18.032715   23.405780 C.3        1 MOL1        -0.1765
      13    H8      19.690436   17.277442   23.999971 H          1 MOL1         0.0830
      14    H9      18.285449   18.359674   23.985226 H          1 MOL1         0.0830
      15    O1      21.363065   18.819361   22.831184 O.3        1 MOL1        -0.5512
      16    H10     21.279384   18.180224   22.093848 H          1 MOL1         0.3776
@<TRIPOS>BOND
    1     1     2    1
    2     1     3    1
    3     1     4    1
    4     4     5    1
    5     4     6    1
    6     4     7    1
    7     7     8    1
    8     7     9    1
    9     7    10    1
   10    10    11    1
   11     1    12    1
   12    10    12    1
   13    12    13    1
   14    12    14    1
   15    10    15    1
   16    15    16    1
@<TRIPOS>SUBSTRUCTURE
       1 MOL1            1 RESIDUE      1      MOL     
@<SCITEGIC>MOL_PROPERTY
VConf Rank
SciTegic.value.IntegerValue
618

@<SCITEGIC>MOL_PROPERTY
Conf_Id
SciTegic.value.IntegerValue
20

@<SCITEGIC>MOL_PROPERTY
Delta U+W
SciTegic.value.DoubleValue
-0.483

@<SCITEGIC>MOL_PROPERTY
U+W
SciTegic.value.DoubleValue
2.527

@<SCITEGIC>MOL_PROPERTY
Grad RMS
SciTegic.value.DoubleValue
0.000000

@<SCITEGIC>MOL_PROPERTY
U
SciTegic.value.DoubleValue
4.508

@<SCITEGIC>MOL_PROPERTY
W
SciTegic.value.DoubleValue
-1.981

@<SCITEGIC>MOL_PROPERTY
W(PB)
SciTegic.value.DoubleValue
-3.712

@<SCITEGIC>MOL_PROPERTY
W(SA)
SciTegic.value.DoubleValue
1.732

@<SCITEGIC>MOL_PROPERTY
Valence
SciTegic.value.DoubleValue
14.705

@<SCITEGIC>MOL_PROPERTY
Coulomb
SciTegic.value.DoubleValue
-10.687

@<SCITEGIC>MOL_PROPERTY
VdW
SciTegic.value.DoubleValue
0.490

@<SCITEGIC>MOL_PROPERTY
VdW6
SciTegic.value.DoubleValue
-3.745

@<SCITEGIC>MOL_PROPERTY
VdW12
SciTegic.value.DoubleValue
4.235

@<SCITEGIC>MOL_PROPERTY
Bond
SciTegic.value.DoubleValue
0.068

@<SCITEGIC>MOL_PROPERTY
Angle
SciTegic.value.DoubleValue
3.901

@<SCITEGIC>MOL_PROPERTY
Pdih
SciTegic.value.DoubleValue
10.737

@<SCITEGIC>MOL_PROPERTY
Idih
SciTegic.value.DoubleValue
0.000

@<SCITEGIC>MOL_PROPERTY
Tether
SciTegic.value.DoubleValue
0.000

@<TRIPOS>MOLECULE
guest-4_confgen4.mol2 : confsearch ligand conformer 619
          16          16           1
SMALL
USER_CHARGES
 
@<TRIPOS>ATOM
       1    C1      19.384982   17.484684   21.329594 C.3        1 MOL1        -0.1689
       2    H1      19.466263   17.993776   20.359081 H          1 MOL1         0.0830
       3    H2      19.415340   16.400880   21.153267 H          1 MOL1         0.0830
       4    C2      18.096670   17.927718   22.036489 C.3        1 MOL1        -0.1689
       5    H3      17.251889   18.028086   21.341485 H          1 MOL1         0.0830
       6    H4      17.824095   17.190416   22.804418 H          1 MOL1         0.0830
       7    C3      18.466929   19.264077   22.705524 C.3        1 MOL1        -0.1765
       8    H5      17.876279   19.434620   23.614861 H          1 MOL1         0.0830
       9    H6      18.260245   20.088372   22.009388 H          1 MOL1         0.0830
      10    C4      19.977062   19.191665   23.015254 C.3        1 MOL1         0.1214
      11    H7      20.133548   19.051541   24.094789 H          1 MOL1         0.0787
      12    C5      20.517314   17.960936   22.258109 C.3        1 MOL1        -0.1765
      13    H8      21.433280   18.186470   21.695827 H          1 MOL1         0.0830
      14    H9      20.756358   17.171538   22.982533 H          1 MOL1         0.0830
      15    O1      20.628512   20.372019   22.561088 O.3        1 MOL1        -0.5512
      16    H10     20.240801   21.118735   23.064702 H          1 MOL1         0.3776
@<TRIPOS>BOND
    1     1     2    1
    2     1     3    1
    3     1     4    1
    4     4     5    1
    5     4     6    1
    6     4     7    1
    7     7     8    1
    8     7     9    1
    9     7    10    1
   10    10    11    1
   11     1    12    1
   12    10    12    1
   13    12    13    1
   14    12    14    1
   15    10    15    1
   16    15    16    1
@<TRIPOS>SUBSTRUCTURE
       1 MOL1            1 RESIDUE      1      MOL     
@<SCITEGIC>MOL_PROPERTY
VConf Rank
SciTegic.value.IntegerValue
619

@<SCITEGIC>MOL_PROPERTY
Conf_Id
SciTegic.value.IntegerValue
59

@<SCITEGIC>MOL_PROPERTY
Delta U+W
SciTegic.value.DoubleValue
0.000

@<SCITEGIC>MOL_PROPERTY
U+W
SciTegic.value.DoubleValue
3.010

@<SCITEGIC>MOL_PROPERTY
Grad RMS
SciTegic.value.DoubleValue
0.000000

@<SCITEGIC>MOL_PROPERTY
U
SciTegic.value.DoubleValue
5.843

@<SCITEGIC>MOL_PROPERTY
W
SciTegic.value.DoubleValue
-2.833

@<SCITEGIC>MOL_PROPERTY
W(PB)
SciTegic.value.DoubleValue
-4.568

@<SCITEGIC>MOL_PROPERTY
W(SA)
SciTegic.value.DoubleValue
1.735

@<SCITEGIC>MOL_PROPERTY
Valence
SciTegic.value.DoubleValue
13.789

@<SCITEGIC>MOL_PROPERTY
Coulomb
SciTegic.value.DoubleValue
-8.574

@<SCITEGIC>MOL_PROPERTY
VdW
SciTegic.value.DoubleValue
0.628

@<SCITEGIC>MOL_PROPERTY
VdW6
SciTegic.value.DoubleValue
-3.284

@<SCITEGIC>MOL_PROPERTY
VdW12
SciTegic.value.DoubleValue
3.912

@<SCITEGIC>MOL_PROPERTY
Bond
SciTegic.value.DoubleValue
0.054

@<SCITEGIC>MOL_PROPERTY
Angle
SciTegic.value.DoubleValue
4.034

@<SCITEGIC>MOL_PROPERTY
Pdih
SciTegic.value.DoubleValue
9.702

@<SCITEGIC>MOL_PROPERTY
Idih
SciTegic.value.DoubleValue
0.000

@<SCITEGIC>MOL_PROPERTY
Tether
SciTegic.value.DoubleValue
0.000

@<TRIPOS>MOLECULE
guest-4_confgen4.mol2 : confsearch ligand conformer 620
          16          16           1
SMALL
USER_CHARGES
 
@<TRIPOS>ATOM
       1    C1      18.673360   19.001091   23.433894 C.3        1 MOL1        -0.1689
       2    H1      17.809394   19.634937   23.675884 H          1 MOL1         0.0830
       3    H2      18.935720   18.421222   24.329740 H          1 MOL1         0.0830
       4    C2      19.887812   19.819660   22.974786 C.3        1 MOL1        -0.1689
       5    H3      19.553387   20.645689   22.331734 H          1 MOL1         0.0830
       6    H4      20.449713   20.245201   23.817297 H          1 MOL1         0.0830
       7    C3      20.728893   18.830120   22.147459 C.3        1 MOL1        -0.1765
       8    H5      21.442755   18.315142   22.803419 H          1 MOL1         0.0830
       9    H6      21.304386   19.343673   21.365737 H          1 MOL1         0.0830
      10    C4      19.743966   17.795379   21.565198 C.3        1 MOL1         0.1214
      11    H7      20.103380   16.781882   21.795770 H          1 MOL1         0.0787
      12    C5      18.388980   18.046160   22.260077 C.3        1 MOL1        -0.1765
      13    H8      17.687058   18.525183   21.563927 H          1 MOL1         0.0830
      14    H9      17.933732   17.109338   22.606431 H          1 MOL1         0.0830
      15    O1      19.615970   17.976628   20.159971 O.3        1 MOL1        -0.5512
      16    H10     18.974110   17.304606   19.847033 H          1 MOL1         0.3776
@<TRIPOS>BOND
    1     1     2    1
    2     1     3    1
    3     1     4    1
    4     4     5    1
    5     4     6    1
    6     4     7    1
    7     7     8    1
    8     7     9    1
    9     7    10    1
   10    10    11    1
   11     1    12    1
   12    10    12    1
   13    12    13    1
   14    12    14    1
   15    10    15    1
   16    15    16    1
@<TRIPOS>SUBSTRUCTURE
       1 MOL1            1 RESIDUE      1      MOL     
@<SCITEGIC>MOL_PROPERTY
VConf Rank
SciTegic.value.IntegerValue
620

@<SCITEGIC>MOL_PROPERTY
Conf_Id
SciTegic.value.IntegerValue
33

@<SCITEGIC>MOL_PROPERTY
Delta U+W
SciTegic.value.DoubleValue
0.015

@<SCITEGIC>MOL_PROPERTY
U+W
SciTegic.value.DoubleValue
3.025

@<SCITEGIC>MOL_PROPERTY
Grad RMS
SciTegic.value.DoubleValue
0.000000

@<SCITEGIC>MOL_PROPERTY
U
SciTegic.value.DoubleValue
5.843

@<SCITEGIC>MOL_PROPERTY
W
SciTegic.value.DoubleValue
-2.819

@<SCITEGIC>MOL_PROPERTY
W(PB)
SciTegic.value.DoubleValue
-4.568

@<SCITEGIC>MOL_PROPERTY
W(SA)
SciTegic.value.DoubleValue
1.750

@<SCITEGIC>MOL_PROPERTY
Valence
SciTegic.value.DoubleValue
13.789

@<SCITEGIC>MOL_PROPERTY
Coulomb
SciTegic.value.DoubleValue
-8.574

@<SCITEGIC>MOL_PROPERTY
VdW
SciTegic.value.DoubleValue
0.628

@<SCITEGIC>MOL_PROPERTY
VdW6
SciTegic.value.DoubleValue
-3.284

@<SCITEGIC>MOL_PROPERTY
VdW12
SciTegic.value.DoubleValue
3.913

@<SCITEGIC>MOL_PROPERTY
Bond
SciTegic.value.DoubleValue
0.054

@<SCITEGIC>MOL_PROPERTY
Angle
SciTegic.value.DoubleValue
4.033

@<SCITEGIC>MOL_PROPERTY
Pdih
SciTegic.value.DoubleValue
9.702

@<SCITEGIC>MOL_PROPERTY
Idih
SciTegic.value.DoubleValue
0.000

@<SCITEGIC>MOL_PROPERTY
Tether
SciTegic.value.DoubleValue
0.000

@<TRIPOS>MOLECULE
guest-4_confgen4.mol2 : confsearch ligand conformer 621
          16          16           1
SMALL
USER_CHARGES
 
@<TRIPOS>ATOM
       1    C1      19.423935   17.378829   22.774359 C.3        1 MOL1        -0.1689
       2    H1      18.772039   17.229546   23.646124 H          1 MOL1         0.0830
       3    H2      19.928131   16.424797   22.567947 H          1 MOL1         0.0830
       4    C2      20.438677   18.506336   23.064272 C.3        1 MOL1        -0.1689
       5    H3      20.278582   18.902006   24.076715 H          1 MOL1         0.0830
       6    H4      21.473753   18.142320   23.008510 H          1 MOL1         0.0830
       7    C3      20.180697   19.607942   22.014346 C.3        1 MOL1        -0.1765
       8    H5      20.895117   19.501120   21.187415 H          1 MOL1         0.0830
       9    H6      20.300734   20.616742   22.431382 H          1 MOL1         0.0830
      10    C4      18.762207   19.364039   21.482002 C.3        1 MOL1         0.1214
      11    H7      18.647599   19.732231   20.452302 H          1 MOL1         0.0787
      12    C5      18.591697   17.840918   21.559364 C.3        1 MOL1        -0.1765
      13    H8      17.537502   17.543892   21.639680 H          1 MOL1         0.0830
      14    H9      18.997104   17.389820   20.644062 H          1 MOL1         0.0830
      15    O1      17.824116   19.984320   22.349206 O.3        1 MOL1        -0.5512
      16    H10     17.999864   19.598905   23.232230 H          1 MOL1         0.3776
@<TRIPOS>BOND
    1     1     2    1
    2     1     3    1
    3     1     4    1
    4     4     5    1
    5     4     6    1
    6     4     7    1
    7     7     8    1
    8     7     9    1
    9     7    10    1
   10    10    11    1
   11     1    12    1
   12    10    12    1
   13    12    13    1
   14    12    14    1
   15    10    15    1
   16    15    16    1
@<TRIPOS>SUBSTRUCTURE
       1 MOL1            1 RESIDUE      1      MOL     
@<SCITEGIC>MOL_PROPERTY
VConf Rank
SciTegic.value.IntegerValue
621

@<SCITEGIC>MOL_PROPERTY
Conf_Id
SciTegic.value.IntegerValue
20

@<SCITEGIC>MOL_PROPERTY
Delta U+W
SciTegic.value.DoubleValue
-0.483

@<SCITEGIC>MOL_PROPERTY
U+W
SciTegic.value.DoubleValue
2.527

@<SCITEGIC>MOL_PROPERTY
Grad RMS
SciTegic.value.DoubleValue
0.000000

@<SCITEGIC>MOL_PROPERTY
U
SciTegic.value.DoubleValue
4.508

@<SCITEGIC>MOL_PROPERTY
W
SciTegic.value.DoubleValue
-1.981

@<SCITEGIC>MOL_PROPERTY
W(PB)
SciTegic.value.DoubleValue
-3.712

@<SCITEGIC>MOL_PROPERTY
W(SA)
SciTegic.value.DoubleValue
1.732

@<SCITEGIC>MOL_PROPERTY
Valence
SciTegic.value.DoubleValue
14.705

@<SCITEGIC>MOL_PROPERTY
Coulomb
SciTegic.value.DoubleValue
-10.687

@<SCITEGIC>MOL_PROPERTY
VdW
SciTegic.value.DoubleValue
0.490

@<SCITEGIC>MOL_PROPERTY
VdW6
SciTegic.value.DoubleValue
-3.745

@<SCITEGIC>MOL_PROPERTY
VdW12
SciTegic.value.DoubleValue
4.235

@<SCITEGIC>MOL_PROPERTY
Bond
SciTegic.value.DoubleValue
0.068

@<SCITEGIC>MOL_PROPERTY
Angle
SciTegic.value.DoubleValue
3.901

@<SCITEGIC>MOL_PROPERTY
Pdih
SciTegic.value.DoubleValue
10.737

@<SCITEGIC>MOL_PROPERTY
Idih
SciTegic.value.DoubleValue
0.000

@<SCITEGIC>MOL_PROPERTY
Tether
SciTegic.value.DoubleValue
0.000

@<TRIPOS>MOLECULE
guest-4_confgen4.mol2 : confsearch ligand conformer 622
          16          16           1
SMALL
USER_CHARGES
 
@<TRIPOS>ATOM
       1    C1      20.433809   19.092880   21.497896 C.3        1 MOL1        -0.1689
       2    H1      19.938881   19.486399   20.599083 H          1 MOL1         0.0830
       3    H2      21.506291   19.319718   21.427385 H          1 MOL1         0.0830
       4    C2      20.159737   17.587542   21.618597 C.3        1 MOL1        -0.1689
       5    H3      20.192626   17.077430   20.646248 H          1 MOL1         0.0830
       6    H4      20.911500   17.126338   22.274164 H          1 MOL1         0.0830
       7    C3      18.771067   17.502657   22.278102 C.3        1 MOL1        -0.1765
       8    H5      18.665356   16.586987   22.874106 H          1 MOL1         0.0830
       9    H6      17.998409   17.488147   21.497350 H          1 MOL1         0.0830
      10    C4      18.625944   18.767318   23.150598 C.3        1 MOL1         0.1214
      11    H7      18.720179   18.503662   24.214141 H          1 MOL1         0.0787
      12    C5      19.785093   19.704549   22.753348 C.3        1 MOL1        -0.1765
      13    H8      19.446074   20.733371   22.572755 H          1 MOL1         0.0830
      14    H9      20.518101   19.733298   23.570020 H          1 MOL1         0.0830
      15    O1      17.376185   19.397941   22.897010 O.3        1 MOL1        -0.5512
      16    H10     16.680315   18.757298   23.155608 H          1 MOL1         0.3776
@<TRIPOS>BOND
    1     1     2    1
    2     1     3    1
    3     1     4    1
    4     4     5    1
    5     4     6    1
    6     4     7    1
    7     7     8    1
    8     7     9    1
    9     7    10    1
   10    10    11    1
   11     1    12    1
   12    10    12    1
   13    12    13    1
   14    12    14    1
   15    10    15    1
   16    15    16    1
@<TRIPOS>SUBSTRUCTURE
       1 MOL1            1 RESIDUE      1      MOL     
@<SCITEGIC>MOL_PROPERTY
VConf Rank
SciTegic.value.IntegerValue
622

@<SCITEGIC>MOL_PROPERTY
Conf_Id
SciTegic.value.IntegerValue
59

@<SCITEGIC>MOL_PROPERTY
Delta U+W
SciTegic.value.DoubleValue
0.000

@<SCITEGIC>MOL_PROPERTY
U+W
SciTegic.value.DoubleValue
3.010

@<SCITEGIC>MOL_PROPERTY
Grad RMS
SciTegic.value.DoubleValue
0.000000

@<SCITEGIC>MOL_PROPERTY
U
SciTegic.value.DoubleValue
5.843

@<SCITEGIC>MOL_PROPERTY
W
SciTegic.value.DoubleValue
-2.833

@<SCITEGIC>MOL_PROPERTY
W(PB)
SciTegic.value.DoubleValue
-4.568

@<SCITEGIC>MOL_PROPERTY
W(SA)
SciTegic.value.DoubleValue
1.735

@<SCITEGIC>MOL_PROPERTY
Valence
SciTegic.value.DoubleValue
13.789

@<SCITEGIC>MOL_PROPERTY
Coulomb
SciTegic.value.DoubleValue
-8.574

@<SCITEGIC>MOL_PROPERTY
VdW
SciTegic.value.DoubleValue
0.628

@<SCITEGIC>MOL_PROPERTY
VdW6
SciTegic.value.DoubleValue
-3.284

@<SCITEGIC>MOL_PROPERTY
VdW12
SciTegic.value.DoubleValue
3.912

@<SCITEGIC>MOL_PROPERTY
Bond
SciTegic.value.DoubleValue
0.054

@<SCITEGIC>MOL_PROPERTY
Angle
SciTegic.value.DoubleValue
4.034

@<SCITEGIC>MOL_PROPERTY
Pdih
SciTegic.value.DoubleValue
9.702

@<SCITEGIC>MOL_PROPERTY
Idih
SciTegic.value.DoubleValue
0.000

@<SCITEGIC>MOL_PROPERTY
Tether
SciTegic.value.DoubleValue
0.000

@<TRIPOS>MOLECULE
guest-4_confgen4.mol2 : confsearch ligand conformer 623
          16          16           1
SMALL
USER_CHARGES
 
@<TRIPOS>ATOM
       1    C1      20.558977   19.249711   22.947285 C.3        1 MOL1        -0.1689
       2    H1      21.438035   18.980747   23.548679 H          1 MOL1         0.0830
       3    H2      20.627204   20.317714   22.697613 H          1 MOL1         0.0830
       4    C2      19.240976   18.974988   23.684258 C.3        1 MOL1        -0.1689
       5    H3      19.319406   18.029651   24.239115 H          1 MOL1         0.0830
       6    H4      18.984318   19.771438   24.395901 H          1 MOL1         0.0830
       7    C3      18.195692   18.829549   22.562962 C.3        1 MOL1        -0.1765
       8    H5      17.756613   19.810457   22.339102 H          1 MOL1         0.0830
       9    H6      17.378531   18.157243   22.856684 H          1 MOL1         0.0830
      10    C4      18.953176   18.321740   21.318717 C.3        1 MOL1         0.1214
      11    H7      18.717327   18.968229   20.460845 H          1 MOL1         0.0787
      12    C5      20.456177   18.418298   21.655467 C.3        1 MOL1        -0.1765
      13    H8      20.871407   17.417028   21.833861 H          1 MOL1         0.0830
      14    H9      21.024386   18.877870   20.836455 H          1 MOL1         0.0830
      15    O1      18.597235   16.971870   21.044757 O.3        1 MOL1        -0.5512
      16    H10     19.113157   16.699377   20.256657 H          1 MOL1         0.3776
@<TRIPOS>BOND
    1     1     2    1
    2     1     3    1
    3     1     4    1
    4     4     5    1
    5     4     6    1
    6     4     7    1
    7     7     8    1
    8     7     9    1
    9     7    10    1
   10    10    11    1
   11     1    12    1
   12    10    12    1
   13    12    13    1
   14    12    14    1
   15    10    15    1
   16    15    16    1
@<TRIPOS>SUBSTRUCTURE
       1 MOL1            1 RESIDUE      1      MOL     
@<SCITEGIC>MOL_PROPERTY
VConf Rank
SciTegic.value.IntegerValue
623

@<SCITEGIC>MOL_PROPERTY
Conf_Id
SciTegic.value.IntegerValue
33

@<SCITEGIC>MOL_PROPERTY
Delta U+W
SciTegic.value.DoubleValue
0.015

@<SCITEGIC>MOL_PROPERTY
U+W
SciTegic.value.DoubleValue
3.025

@<SCITEGIC>MOL_PROPERTY
Grad RMS
SciTegic.value.DoubleValue
0.000000

@<SCITEGIC>MOL_PROPERTY
U
SciTegic.value.DoubleValue
5.843

@<SCITEGIC>MOL_PROPERTY
W
SciTegic.value.DoubleValue
-2.819

@<SCITEGIC>MOL_PROPERTY
W(PB)
SciTegic.value.DoubleValue
-4.568

@<SCITEGIC>MOL_PROPERTY
W(SA)
SciTegic.value.DoubleValue
1.750

@<SCITEGIC>MOL_PROPERTY
Valence
SciTegic.value.DoubleValue
13.789

@<SCITEGIC>MOL_PROPERTY
Coulomb
SciTegic.value.DoubleValue
-8.574

@<SCITEGIC>MOL_PROPERTY
VdW
SciTegic.value.DoubleValue
0.628

@<SCITEGIC>MOL_PROPERTY
VdW6
SciTegic.value.DoubleValue
-3.284

@<SCITEGIC>MOL_PROPERTY
VdW12
SciTegic.value.DoubleValue
3.913

@<SCITEGIC>MOL_PROPERTY
Bond
SciTegic.value.DoubleValue
0.054

@<SCITEGIC>MOL_PROPERTY
Angle
SciTegic.value.DoubleValue
4.033

@<SCITEGIC>MOL_PROPERTY
Pdih
SciTegic.value.DoubleValue
9.702

@<SCITEGIC>MOL_PROPERTY
Idih
SciTegic.value.DoubleValue
0.000

@<SCITEGIC>MOL_PROPERTY
Tether
SciTegic.value.DoubleValue
0.000

@<TRIPOS>MOLECULE
guest-4_confgen4.mol2 : confsearch ligand conformer 624
          16          16           1
SMALL
USER_CHARGES
 
@<TRIPOS>ATOM
       1    C1      19.743319   19.169654   23.415149 C.3        1 MOL1        -0.1689
       2    H1      20.735744   19.640785   23.396305 H          1 MOL1         0.0830
       3    H2      19.321846   19.320317   24.418472 H          1 MOL1         0.0830
       4    C2      19.867542   17.669314   23.070806 C.3        1 MOL1        -0.1689
       5    H3      20.920190   17.414100   22.886352 H          1 MOL1         0.0830
       6    H4      19.510089   17.035139   23.893636 H          1 MOL1         0.0830
       7    C3      19.032200   17.442978   21.792756 C.3        1 MOL1        -0.1765
       8    H5      18.041857   17.055219   22.065676 H          1 MOL1         0.0830
       9    H6      19.499324   16.717740   21.113176 H          1 MOL1         0.0830
      10    C4      18.865286   18.823614   21.143928 C.3        1 MOL1         0.1214
      11    H7      17.941234   18.882981   20.550981 H          1 MOL1         0.0787
      12    C5      18.836574   19.793348   22.332940 C.3        1 MOL1        -0.1765
      13    H8      19.158653   20.805080   22.052461 H          1 MOL1         0.0830
      14    H9      17.808231   19.863002   22.711464 H          1 MOL1         0.0830
      15    O1      20.002041   19.103031   20.339863 O.3        1 MOL1        -0.5512
      16    H10     20.767621   19.027461   20.945949 H          1 MOL1         0.3776
@<TRIPOS>BOND
    1     1     2    1
    2     1     3    1
    3     1     4    1
    4     4     5    1
    5     4     6    1
    6     4     7    1
    7     7     8    1
    8     7     9    1
    9     7    10    1
   10    10    11    1
   11     1    12    1
   12    10    12    1
   13    12    13    1
   14    12    14    1
   15    10    15    1
   16    15    16    1
@<TRIPOS>SUBSTRUCTURE
       1 MOL1            1 RESIDUE      1      MOL     
@<SCITEGIC>MOL_PROPERTY
VConf Rank
SciTegic.value.IntegerValue
624

@<SCITEGIC>MOL_PROPERTY
Conf_Id
SciTegic.value.IntegerValue
20

@<SCITEGIC>MOL_PROPERTY
Delta U+W
SciTegic.value.DoubleValue
-0.483

@<SCITEGIC>MOL_PROPERTY
U+W
SciTegic.value.DoubleValue
2.527

@<SCITEGIC>MOL_PROPERTY
Grad RMS
SciTegic.value.DoubleValue
0.000000

@<SCITEGIC>MOL_PROPERTY
U
SciTegic.value.DoubleValue
4.508

@<SCITEGIC>MOL_PROPERTY
W
SciTegic.value.DoubleValue
-1.981

@<SCITEGIC>MOL_PROPERTY
W(PB)
SciTegic.value.DoubleValue
-3.712

@<SCITEGIC>MOL_PROPERTY
W(SA)
SciTegic.value.DoubleValue
1.732

@<SCITEGIC>MOL_PROPERTY
Valence
SciTegic.value.DoubleValue
14.705

@<SCITEGIC>MOL_PROPERTY
Coulomb
SciTegic.value.DoubleValue
-10.687

@<SCITEGIC>MOL_PROPERTY
VdW
SciTegic.value.DoubleValue
0.490

@<SCITEGIC>MOL_PROPERTY
VdW6
SciTegic.value.DoubleValue
-3.745

@<SCITEGIC>MOL_PROPERTY
VdW12
SciTegic.value.DoubleValue
4.235

@<SCITEGIC>MOL_PROPERTY
Bond
SciTegic.value.DoubleValue
0.068

@<SCITEGIC>MOL_PROPERTY
Angle
SciTegic.value.DoubleValue
3.901

@<SCITEGIC>MOL_PROPERTY
Pdih
SciTegic.value.DoubleValue
10.737

@<SCITEGIC>MOL_PROPERTY
Idih
SciTegic.value.DoubleValue
0.000

@<SCITEGIC>MOL_PROPERTY
Tether
SciTegic.value.DoubleValue
0.000

@<TRIPOS>MOLECULE
guest-4_confgen4.mol2 : confsearch ligand conformer 625
          16          16           1
SMALL
USER_CHARGES
 
@<TRIPOS>ATOM
       1    C1      19.193612   19.791617   21.569032 C.3        1 MOL1        -0.1689
       2    H1      18.118582   19.849973   21.348615 H          1 MOL1         0.0830
       3    H2      19.672684   20.704487   21.189821 H          1 MOL1         0.0830
       4    C2      19.778819   18.518715   20.942149 C.3        1 MOL1        -0.1689
       5    H3      19.360419   18.312158   19.947646 H          1 MOL1         0.0830
       6    H4      20.868130   18.623277   20.841681 H          1 MOL1         0.0830
       7    C3      19.453568   17.407470   21.956990 C.3        1 MOL1        -0.1765
       8    H5      20.201195   16.604396   21.925799 H          1 MOL1         0.0830
       9    H6      18.476354   16.968348   21.714072 H          1 MOL1         0.0830
      10    C4      19.405887   18.084596   23.342958 C.3        1 MOL1         0.1214
      11    H7      20.301643   17.818453   23.922877 H          1 MOL1         0.0787
      12    C5      19.400065   19.605291   23.083559 C.3        1 MOL1        -0.1765
      13    H8      18.625549   20.124176   23.663993 H          1 MOL1         0.0830
      14    H9      20.372292   20.022170   23.376930 H          1 MOL1         0.0830
      15    O1      18.224603   17.700665   24.036539 O.3        1 MOL1        -0.5512
      16    H10     18.276165   16.729743   24.163751 H          1 MOL1         0.3776
@<TRIPOS>BOND
    1     1     2    1
    2     1     3    1
    3     1     4    1
    4     4     5    1
    5     4     6    1
    6     4     7    1
    7     7     8    1
    8     7     9    1
    9     7    10    1
   10    10    11    1
   11     1    12    1
   12    10    12    1
   13    12    13    1
   14    12    14    1
   15    10    15    1
   16    15    16    1
@<TRIPOS>SUBSTRUCTURE
       1 MOL1            1 RESIDUE      1      MOL     
@<SCITEGIC>MOL_PROPERTY
VConf Rank
SciTegic.value.IntegerValue
625

@<SCITEGIC>MOL_PROPERTY
Conf_Id
SciTegic.value.IntegerValue
59

@<SCITEGIC>MOL_PROPERTY
Delta U+W
SciTegic.value.DoubleValue
0.000

@<SCITEGIC>MOL_PROPERTY
U+W
SciTegic.value.DoubleValue
3.010

@<SCITEGIC>MOL_PROPERTY
Grad RMS
SciTegic.value.DoubleValue
0.000000

@<SCITEGIC>MOL_PROPERTY
U
SciTegic.value.DoubleValue
5.843

@<SCITEGIC>MOL_PROPERTY
W
SciTegic.value.DoubleValue
-2.833

@<SCITEGIC>MOL_PROPERTY
W(PB)
SciTegic.value.DoubleValue
-4.568

@<SCITEGIC>MOL_PROPERTY
W(SA)
SciTegic.value.DoubleValue
1.735

@<SCITEGIC>MOL_PROPERTY
Valence
SciTegic.value.DoubleValue
13.789

@<SCITEGIC>MOL_PROPERTY
Coulomb
SciTegic.value.DoubleValue
-8.574

@<SCITEGIC>MOL_PROPERTY
VdW
SciTegic.value.DoubleValue
0.628

@<SCITEGIC>MOL_PROPERTY
VdW6
SciTegic.value.DoubleValue
-3.284

@<SCITEGIC>MOL_PROPERTY
VdW12
SciTegic.value.DoubleValue
3.912

@<SCITEGIC>MOL_PROPERTY
Bond
SciTegic.value.DoubleValue
0.054

@<SCITEGIC>MOL_PROPERTY
Angle
SciTegic.value.DoubleValue
4.034

@<SCITEGIC>MOL_PROPERTY
Pdih
SciTegic.value.DoubleValue
9.702

@<SCITEGIC>MOL_PROPERTY
Idih
SciTegic.value.DoubleValue
0.000

@<SCITEGIC>MOL_PROPERTY
Tether
SciTegic.value.DoubleValue
0.000

@<TRIPOS>MOLECULE
guest-4_confgen4.mol2 : confsearch ligand conformer 626
          16          16           1
SMALL
USER_CHARGES
 
@<TRIPOS>ATOM
       1    C1      19.346098   20.011193   21.988632 C.3        1 MOL1        -0.1689
       2    H1      19.314871   20.673119   21.112482 H          1 MOL1         0.0830
       3    H2      19.121702   20.611768   22.881144 H          1 MOL1         0.0830
       4    C2      20.710151   19.327724   22.155837 C.3        1 MOL1        -0.1689
       5    H3      21.098249   19.034195   21.170494 H          1 MOL1         0.0830
       6    H4      21.450710   19.981190   22.636665 H          1 MOL1         0.0830
       7    C3      20.410126   18.067456   22.988176 C.3        1 MOL1        -0.1765
       8    H5      20.502008   18.301211   24.056820 H          1 MOL1         0.0830
       9    H6      21.115075   17.256310   22.762107 H          1 MOL1         0.0830
      10    C4      18.949563   17.676021   22.682672 C.3        1 MOL1         0.1214
      11    H7      18.402857   17.546280   23.628081 H          1 MOL1         0.0787
      12    C5      18.344854   18.846663   21.879142 C.3        1 MOL1        -0.1765
      13    H8      18.229720   18.564580   20.823701 H          1 MOL1         0.0830
      14    H9      17.356078   19.130535   22.262007 H          1 MOL1         0.0830
      15    O1      18.912992   16.480878   21.911833 O.3        1 MOL1        -0.5512
      16    H10     17.967562   16.286789   21.738566 H          1 MOL1         0.3776
@<TRIPOS>BOND
    1     1     2    1
    2     1     3    1
    3     1     4    1
    4     4     5    1
    5     4     6    1
    6     4     7    1
    7     7     8    1
    8     7     9    1
    9     7    10    1
   10    10    11    1
   11     1    12    1
   12    10    12    1
   13    12    13    1
   14    12    14    1
   15    10    15    1
   16    15    16    1
@<TRIPOS>SUBSTRUCTURE
       1 MOL1            1 RESIDUE      1      MOL     
@<SCITEGIC>MOL_PROPERTY
VConf Rank
SciTegic.value.IntegerValue
626

@<SCITEGIC>MOL_PROPERTY
Conf_Id
SciTegic.value.IntegerValue
33

@<SCITEGIC>MOL_PROPERTY
Delta U+W
SciTegic.value.DoubleValue
0.015

@<SCITEGIC>MOL_PROPERTY
U+W
SciTegic.value.DoubleValue
3.025

@<SCITEGIC>MOL_PROPERTY
Grad RMS
SciTegic.value.DoubleValue
0.000000

@<SCITEGIC>MOL_PROPERTY
U
SciTegic.value.DoubleValue
5.843

@<SCITEGIC>MOL_PROPERTY
W
SciTegic.value.DoubleValue
-2.819

@<SCITEGIC>MOL_PROPERTY
W(PB)
SciTegic.value.DoubleValue
-4.568

@<SCITEGIC>MOL_PROPERTY
W(SA)
SciTegic.value.DoubleValue
1.750

@<SCITEGIC>MOL_PROPERTY
Valence
SciTegic.value.DoubleValue
13.789

@<SCITEGIC>MOL_PROPERTY
Coulomb
SciTegic.value.DoubleValue
-8.574

@<SCITEGIC>MOL_PROPERTY
VdW
SciTegic.value.DoubleValue
0.628

@<SCITEGIC>MOL_PROPERTY
VdW6
SciTegic.value.DoubleValue
-3.284

@<SCITEGIC>MOL_PROPERTY
VdW12
SciTegic.value.DoubleValue
3.913

@<SCITEGIC>MOL_PROPERTY
Bond
SciTegic.value.DoubleValue
0.054

@<SCITEGIC>MOL_PROPERTY
Angle
SciTegic.value.DoubleValue
4.033

@<SCITEGIC>MOL_PROPERTY
Pdih
SciTegic.value.DoubleValue
9.702

@<SCITEGIC>MOL_PROPERTY
Idih
SciTegic.value.DoubleValue
0.000

@<SCITEGIC>MOL_PROPERTY
Tether
SciTegic.value.DoubleValue
0.000

@<TRIPOS>MOLECULE
guest-4_confgen4.mol2 : confsearch ligand conformer 627
          16          16           1
SMALL
USER_CHARGES
 
@<TRIPOS>ATOM
       1    C1      18.898114   19.784044   21.837872 C.3        1 MOL1        -0.1689
       2    H1      18.200536   20.264019   22.538041 H          1 MOL1         0.0830
       3    H2      19.010654   20.449371   20.970882 H          1 MOL1         0.0830
       4    C2      18.356355   18.398382   21.423797 C.3        1 MOL1        -0.1689
       5    H3      17.396086   18.208186   21.922731 H          1 MOL1         0.0830
       6    H4      18.186457   18.338529   20.340030 H          1 MOL1         0.0830
       7    C3      19.407602   17.363708   21.878514 C.3        1 MOL1        -0.1765
       8    H5      20.054234   17.100934   21.030907 H          1 MOL1         0.0830
       9    H6      18.947426   16.437360   22.247462 H          1 MOL1         0.0830
      10    C4      20.253068   18.060712   22.952929 C.3        1 MOL1         0.1214
      11    H7      21.271814   17.649280   22.996093 H          1 MOL1         0.0787
      12    C5      20.256965   19.534756   22.526156 C.3        1 MOL1        -0.1765
      13    H8      20.424936   20.212737   23.373582 H          1 MOL1         0.0830
      14    H9      21.068684   19.694788   21.804267 H          1 MOL1         0.0830
      15    O1      19.604048   17.939553   24.210268 O.3        1 MOL1        -0.5512
      16    H10     18.714773   18.327403   24.076385 H          1 MOL1         0.3776
@<TRIPOS>BOND
    1     1     2    1
    2     1     3    1
    3     1     4    1
    4     4     5    1
    5     4     6    1
    6     4     7    1
    7     7     8    1
    8     7     9    1
    9     7    10    1
   10    10    11    1
   11     1    12    1
   12    10    12    1
   13    12    13    1
   14    12    14    1
   15    10    15    1
   16    15    16    1
@<TRIPOS>SUBSTRUCTURE
       1 MOL1            1 RESIDUE      1      MOL     
@<SCITEGIC>MOL_PROPERTY
VConf Rank
SciTegic.value.IntegerValue
627

@<SCITEGIC>MOL_PROPERTY
Conf_Id
SciTegic.value.IntegerValue
20

@<SCITEGIC>MOL_PROPERTY
Delta U+W
SciTegic.value.DoubleValue
-0.483

@<SCITEGIC>MOL_PROPERTY
U+W
SciTegic.value.DoubleValue
2.527

@<SCITEGIC>MOL_PROPERTY
Grad RMS
SciTegic.value.DoubleValue
0.000000

@<SCITEGIC>MOL_PROPERTY
U
SciTegic.value.DoubleValue
4.508

@<SCITEGIC>MOL_PROPERTY
W
SciTegic.value.DoubleValue
-1.981

@<SCITEGIC>MOL_PROPERTY
W(PB)
SciTegic.value.DoubleValue
-3.712

@<SCITEGIC>MOL_PROPERTY
W(SA)
SciTegic.value.DoubleValue
1.732

@<SCITEGIC>MOL_PROPERTY
Valence
SciTegic.value.DoubleValue
14.705

@<SCITEGIC>MOL_PROPERTY
Coulomb
SciTegic.value.DoubleValue
-10.687

@<SCITEGIC>MOL_PROPERTY
VdW
SciTegic.value.DoubleValue
0.490

@<SCITEGIC>MOL_PROPERTY
VdW6
SciTegic.value.DoubleValue
-3.745

@<SCITEGIC>MOL_PROPERTY
VdW12
SciTegic.value.DoubleValue
4.235

@<SCITEGIC>MOL_PROPERTY
Bond
SciTegic.value.DoubleValue
0.068

@<SCITEGIC>MOL_PROPERTY
Angle
SciTegic.value.DoubleValue
3.901

@<SCITEGIC>MOL_PROPERTY
Pdih
SciTegic.value.DoubleValue
10.737

@<SCITEGIC>MOL_PROPERTY
Idih
SciTegic.value.DoubleValue
0.000

@<SCITEGIC>MOL_PROPERTY
Tether
SciTegic.value.DoubleValue
0.000

@<TRIPOS>MOLECULE
guest-4_confgen4.mol2 : confsearch ligand conformer 628
          16          16           1
SMALL
USER_CHARGES
 
@<TRIPOS>ATOM
       1    C1      18.482394   19.341832   21.461901 C.3        1 MOL1        -0.1689
       2    H1      19.104818   20.175501   21.107979 H          1 MOL1         0.0830
       3    H2      17.495837   19.422603   20.985639 H          1 MOL1         0.0830
       4    C2      18.398328   19.377049   22.994031 C.3        1 MOL1        -0.1689
       5    H3      18.305769   20.399789   23.384151 H          1 MOL1         0.0830
       6    H4      17.524798   18.800916   23.329651 H          1 MOL1         0.0830
       7    C3      19.690780   18.685184   23.464615 C.3        1 MOL1        -0.1765
       8    H5      19.550358   18.189445   24.433826 H          1 MOL1         0.0830
       9    H6      20.483247   19.436884   23.581782 H          1 MOL1         0.0830
      10    C4      20.070338   17.675633   22.360793 C.3        1 MOL1         0.1214
      11    H7      19.857535   16.650895   22.698646 H          1 MOL1         0.0787
      12    C5      19.180413   18.006395   21.144872 C.3        1 MOL1        -0.1765
      13    H8      19.755053   18.062383   20.210701 H          1 MOL1         0.0830
      14    H9      18.427670   17.216145   21.026702 H          1 MOL1         0.0830
      15    O1      21.443468   17.817463   22.016863 O.3        1 MOL1        -0.5512
      16    H10     21.958763   17.607418   22.824257 H          1 MOL1         0.3776
@<TRIPOS>BOND
    1     1     2    1
    2     1     3    1
    3     1     4    1
    4     4     5    1
    5     4     6    1
    6     4     7    1
    7     7     8    1
    8     7     9    1
    9     7    10    1
   10    10    11    1
   11     1    12    1
   12    10    12    1
   13    12    13    1
   14    12    14    1
   15    10    15    1
   16    15    16    1
@<TRIPOS>SUBSTRUCTURE
       1 MOL1            1 RESIDUE      1      MOL     
@<SCITEGIC>MOL_PROPERTY
VConf Rank
SciTegic.value.IntegerValue
628

@<SCITEGIC>MOL_PROPERTY
Conf_Id
SciTegic.value.IntegerValue
59

@<SCITEGIC>MOL_PROPERTY
Delta U+W
SciTegic.value.DoubleValue
0.000

@<SCITEGIC>MOL_PROPERTY
U+W
SciTegic.value.DoubleValue
3.010

@<SCITEGIC>MOL_PROPERTY
Grad RMS
SciTegic.value.DoubleValue
0.000000

@<SCITEGIC>MOL_PROPERTY
U
SciTegic.value.DoubleValue
5.843

@<SCITEGIC>MOL_PROPERTY
W
SciTegic.value.DoubleValue
-2.833

@<SCITEGIC>MOL_PROPERTY
W(PB)
SciTegic.value.DoubleValue
-4.568

@<SCITEGIC>MOL_PROPERTY
W(SA)
SciTegic.value.DoubleValue
1.735

@<SCITEGIC>MOL_PROPERTY
Valence
SciTegic.value.DoubleValue
13.789

@<SCITEGIC>MOL_PROPERTY
Coulomb
SciTegic.value.DoubleValue
-8.574

@<SCITEGIC>MOL_PROPERTY
VdW
SciTegic.value.DoubleValue
0.628

@<SCITEGIC>MOL_PROPERTY
VdW6
SciTegic.value.DoubleValue
-3.284

@<SCITEGIC>MOL_PROPERTY
VdW12
SciTegic.value.DoubleValue
3.912

@<SCITEGIC>MOL_PROPERTY
Bond
SciTegic.value.DoubleValue
0.054

@<SCITEGIC>MOL_PROPERTY
Angle
SciTegic.value.DoubleValue
4.034

@<SCITEGIC>MOL_PROPERTY
Pdih
SciTegic.value.DoubleValue
9.702

@<SCITEGIC>MOL_PROPERTY
Idih
SciTegic.value.DoubleValue
0.000

@<SCITEGIC>MOL_PROPERTY
Tether
SciTegic.value.DoubleValue
0.000

@<TRIPOS>MOLECULE
guest-4_confgen4.mol2 : confsearch ligand conformer 629
          16          16           1
SMALL
USER_CHARGES
 
@<TRIPOS>ATOM
       1    C1      18.855812   17.961488   21.160326 C.3        1 MOL1        -0.1689
       2    H1      19.131641   17.256406   20.364376 H          1 MOL1         0.0830
       3    H2      17.768941   18.118381   21.118889 H          1 MOL1         0.0830
       4    C2      19.577565   19.309026   21.022695 C.3        1 MOL1        -0.1689
       5    H3      20.616614   19.139770   20.707406 H          1 MOL1         0.0830
       6    H4      19.097804   19.968705   20.286967 H          1 MOL1         0.0830
       7    C3      19.559991   19.902338   22.443522 C.3        1 MOL1        -0.1765
       8    H5      18.654549   20.508146   22.578633 H          1 MOL1         0.0830
       9    H6      20.426598   20.553216   22.620637 H          1 MOL1         0.0830
      10    C4      19.515985   18.707654   23.418504 C.3        1 MOL1         0.1214
      11    H7      18.692014   18.851615   24.132554 H          1 MOL1         0.0787
      12    C5      19.255887   17.453467   22.557633 C.3        1 MOL1        -0.1765
      13    H8      20.170768   16.850765   22.476853 H          1 MOL1         0.0830
      14    H9      18.472454   16.820246   22.993650 H          1 MOL1         0.0830
      15    O1      20.758181   18.585549   24.101100 O.3        1 MOL1        -0.5512
      16    H10     20.677813   17.809139   24.694613 H          1 MOL1         0.3776
@<TRIPOS>BOND
    1     1     2    1
    2     1     3    1
    3     1     4    1
    4     4     5    1
    5     4     6    1
    6     4     7    1
    7     7     8    1
    8     7     9    1
    9     7    10    1
   10    10    11    1
   11     1    12    1
   12    10    12    1
   13    12    13    1
   14    12    14    1
   15    10    15    1
   16    15    16    1
@<TRIPOS>SUBSTRUCTURE
       1 MOL1            1 RESIDUE      1      MOL     
@<SCITEGIC>MOL_PROPERTY
VConf Rank
SciTegic.value.IntegerValue
629

@<SCITEGIC>MOL_PROPERTY
Conf_Id
SciTegic.value.IntegerValue
33

@<SCITEGIC>MOL_PROPERTY
Delta U+W
SciTegic.value.DoubleValue
0.015

@<SCITEGIC>MOL_PROPERTY
U+W
SciTegic.value.DoubleValue
3.025

@<SCITEGIC>MOL_PROPERTY
Grad RMS
SciTegic.value.DoubleValue
0.000000

@<SCITEGIC>MOL_PROPERTY
U
SciTegic.value.DoubleValue
5.843

@<SCITEGIC>MOL_PROPERTY
W
SciTegic.value.DoubleValue
-2.819

@<SCITEGIC>MOL_PROPERTY
W(PB)
SciTegic.value.DoubleValue
-4.568

@<SCITEGIC>MOL_PROPERTY
W(SA)
SciTegic.value.DoubleValue
1.750

@<SCITEGIC>MOL_PROPERTY
Valence
SciTegic.value.DoubleValue
13.789

@<SCITEGIC>MOL_PROPERTY
Coulomb
SciTegic.value.DoubleValue
-8.574

@<SCITEGIC>MOL_PROPERTY
VdW
SciTegic.value.DoubleValue
0.628

@<SCITEGIC>MOL_PROPERTY
VdW6
SciTegic.value.DoubleValue
-3.284

@<SCITEGIC>MOL_PROPERTY
VdW12
SciTegic.value.DoubleValue
3.913

@<SCITEGIC>MOL_PROPERTY
Bond
SciTegic.value.DoubleValue
0.054

@<SCITEGIC>MOL_PROPERTY
Angle
SciTegic.value.DoubleValue
4.033

@<SCITEGIC>MOL_PROPERTY
Pdih
SciTegic.value.DoubleValue
9.702

@<SCITEGIC>MOL_PROPERTY
Idih
SciTegic.value.DoubleValue
0.000

@<SCITEGIC>MOL_PROPERTY
Tether
SciTegic.value.DoubleValue
0.000

@<TRIPOS>MOLECULE
guest-4_confgen4.mol2 : confsearch ligand conformer 630
          16          16           1
SMALL
USER_CHARGES
 
@<TRIPOS>ATOM
       1    C1      18.626916   19.490297   21.590314 C.3        1 MOL1        -0.1689
       2    H1      17.577701   19.526900   21.914409 H          1 MOL1         0.0830
       3    H2      18.754764   20.232501   20.790450 H          1 MOL1         0.0830
       4    C2      18.977442   18.066607   21.105276 C.3        1 MOL1        -0.1689
       5    H3      18.097596   17.414463   21.193630 H          1 MOL1         0.0830
       6    H4      19.289639   18.064222   20.051936 H          1 MOL1         0.0830
       7    C3      20.111449   17.559029   22.021152 C.3        1 MOL1        -0.1765
       8    H5      21.079195   17.710146   21.524914 H          1 MOL1         0.0830
       9    H6      20.015782   16.488791   22.247966 H          1 MOL1         0.0830
      10    C4      20.058398   18.428027   23.284885 C.3        1 MOL1         0.1214
      11    H7      21.045488   18.508076   23.762617 H          1 MOL1         0.0787
      12    C5      19.563118   19.790025   22.780291 C.3        1 MOL1        -0.1765
      13    H8      19.062693   20.368650   23.568183 H          1 MOL1         0.0830
      14    H9      20.423976   20.375528   22.431391 H          1 MOL1         0.0830
      15    O1      19.102373   17.886833   24.184847 O.3        1 MOL1        -0.5512
      16    H10     18.265224   17.853668   23.677654 H          1 MOL1         0.3776
@<TRIPOS>BOND
    1     1     2    1
    2     1     3    1
    3     1     4    1
    4     4     5    1
    5     4     6    1
    6     4     7    1
    7     7     8    1
    8     7     9    1
    9     7    10    1
   10    10    11    1
   11     1    12    1
   12    10    12    1
   13    12    13    1
   14    12    14    1
   15    10    15    1
   16    15    16    1
@<TRIPOS>SUBSTRUCTURE
       1 MOL1            1 RESIDUE      1      MOL     
@<SCITEGIC>MOL_PROPERTY
VConf Rank
SciTegic.value.IntegerValue
630

@<SCITEGIC>MOL_PROPERTY
Conf_Id
SciTegic.value.IntegerValue
20

@<SCITEGIC>MOL_PROPERTY
Delta U+W
SciTegic.value.DoubleValue
-0.483

@<SCITEGIC>MOL_PROPERTY
U+W
SciTegic.value.DoubleValue
2.527

@<SCITEGIC>MOL_PROPERTY
Grad RMS
SciTegic.value.DoubleValue
0.000000

@<SCITEGIC>MOL_PROPERTY
U
SciTegic.value.DoubleValue
4.508

@<SCITEGIC>MOL_PROPERTY
W
SciTegic.value.DoubleValue
-1.981

@<SCITEGIC>MOL_PROPERTY
W(PB)
SciTegic.value.DoubleValue
-3.712

@<SCITEGIC>MOL_PROPERTY
W(SA)
SciTegic.value.DoubleValue
1.732

@<SCITEGIC>MOL_PROPERTY
Valence
SciTegic.value.DoubleValue
14.705

@<SCITEGIC>MOL_PROPERTY
Coulomb
SciTegic.value.DoubleValue
-10.687

@<SCITEGIC>MOL_PROPERTY
VdW
SciTegic.value.DoubleValue
0.490

@<SCITEGIC>MOL_PROPERTY
VdW6
SciTegic.value.DoubleValue
-3.745

@<SCITEGIC>MOL_PROPERTY
VdW12
SciTegic.value.DoubleValue
4.235

@<SCITEGIC>MOL_PROPERTY
Bond
SciTegic.value.DoubleValue
0.068

@<SCITEGIC>MOL_PROPERTY
Angle
SciTegic.value.DoubleValue
3.901

@<SCITEGIC>MOL_PROPERTY
Pdih
SciTegic.value.DoubleValue
10.737

@<SCITEGIC>MOL_PROPERTY
Idih
SciTegic.value.DoubleValue
0.000

@<SCITEGIC>MOL_PROPERTY
Tether
SciTegic.value.DoubleValue
0.000

@<TRIPOS>MOLECULE
guest-4_confgen4.mol2 : confsearch ligand conformer 631
          16          16           1
SMALL
USER_CHARGES
 
@<TRIPOS>ATOM
       1    C1      19.554476   19.993691   22.262033 C.3        1 MOL1        -0.1689
       2    H1      20.480815   20.174786   22.824864 H          1 MOL1         0.0830
       3    H2      19.205031   20.952952   21.856631 H          1 MOL1         0.0830
       4    C2      18.516646   19.331833   23.178865 C.3        1 MOL1        -0.1689
       5    H3      18.527030   19.752144   24.193749 H          1 MOL1         0.0830
       6    H4      17.510522   19.471319   22.759478 H          1 MOL1         0.0830
       7    C3      18.886360   17.837341   23.159819 C.3        1 MOL1        -0.1765
       8    H5      18.003898   17.203785   23.317028 H          1 MOL1         0.0830
       9    H6      19.599611   17.629243   23.968987 H          1 MOL1         0.0830
      10    C4      19.540523   17.568611   21.788129 C.3        1 MOL1         0.1214
      11    H7      18.847219   17.008566   21.143771 H          1 MOL1         0.0787
      12    C5      19.816233   18.950429   21.160118 C.3        1 MOL1        -0.1765
      13    H8      20.836251   19.030965   20.761246 H          1 MOL1         0.0830
      14    H9      19.118825   19.110858   20.327672 H          1 MOL1         0.0830
      15    O1      20.759260   16.854416   21.956929 O.3        1 MOL1        -0.5512
      16    H10     20.526867   15.994596   22.367094 H          1 MOL1         0.3776
@<TRIPOS>BOND
    1     1     2    1
    2     1     3    1
    3     1     4    1
    4     4     5    1
    5     4     6    1
    6     4     7    1
    7     7     8    1
    8     7     9    1
    9     7    10    1
   10    10    11    1
   11     1    12    1
   12    10    12    1
   13    12    13    1
   14    12    14    1
   15    10    15    1
   16    15    16    1
@<TRIPOS>SUBSTRUCTURE
       1 MOL1            1 RESIDUE      1      MOL     
@<SCITEGIC>MOL_PROPERTY
VConf Rank
SciTegic.value.IntegerValue
631

@<SCITEGIC>MOL_PROPERTY
Conf_Id
SciTegic.value.IntegerValue
59

@<SCITEGIC>MOL_PROPERTY
Delta U+W
SciTegic.value.DoubleValue
0.000

@<SCITEGIC>MOL_PROPERTY
U+W
SciTegic.value.DoubleValue
3.010

@<SCITEGIC>MOL_PROPERTY
Grad RMS
SciTegic.value.DoubleValue
0.000000

@<SCITEGIC>MOL_PROPERTY
U
SciTegic.value.DoubleValue
5.843

@<SCITEGIC>MOL_PROPERTY
W
SciTegic.value.DoubleValue
-2.833

@<SCITEGIC>MOL_PROPERTY
W(PB)
SciTegic.value.DoubleValue
-4.568

@<SCITEGIC>MOL_PROPERTY
W(SA)
SciTegic.value.DoubleValue
1.735

@<SCITEGIC>MOL_PROPERTY
Valence
SciTegic.value.DoubleValue
13.789

@<SCITEGIC>MOL_PROPERTY
Coulomb
SciTegic.value.DoubleValue
-8.574

@<SCITEGIC>MOL_PROPERTY
VdW
SciTegic.value.DoubleValue
0.628

@<SCITEGIC>MOL_PROPERTY
VdW6
SciTegic.value.DoubleValue
-3.284

@<SCITEGIC>MOL_PROPERTY
VdW12
SciTegic.value.DoubleValue
3.912

@<SCITEGIC>MOL_PROPERTY
Bond
SciTegic.value.DoubleValue
0.054

@<SCITEGIC>MOL_PROPERTY
Angle
SciTegic.value.DoubleValue
4.034

@<SCITEGIC>MOL_PROPERTY
Pdih
SciTegic.value.DoubleValue
9.702

@<SCITEGIC>MOL_PROPERTY
Idih
SciTegic.value.DoubleValue
0.000

@<SCITEGIC>MOL_PROPERTY
Tether
SciTegic.value.DoubleValue
0.000

@<TRIPOS>MOLECULE
guest-4_confgen4.mol2 : confsearch ligand conformer 632
          16          16           1
SMALL
USER_CHARGES
 
@<TRIPOS>ATOM
       1    C1      19.845398   17.380323   21.669346 C.3        1 MOL1        -0.1689
       2    H1      19.805063   16.895073   20.684631 H          1 MOL1         0.0830
       3    H2      20.470634   16.764314   22.330584 H          1 MOL1         0.0830
       4    C2      18.453252   17.555917   22.291296 C.3        1 MOL1        -0.1689
       5    H3      17.735167   17.844895   21.511216 H          1 MOL1         0.0830
       6    H4      18.089124   16.637236   22.770962 H          1 MOL1         0.0830
       7    C3      18.621615   18.714234   23.291811 C.3        1 MOL1        -0.1765
       8    H5      18.906268   18.314455   24.273766 H          1 MOL1         0.0830
       9    H6      17.687641   19.277774   23.418829 H          1 MOL1         0.0830
      10    C4      19.768811   19.595288   22.755636 C.3        1 MOL1         0.1214
      11    H7      20.505361   19.759264   23.555714 H          1 MOL1         0.0787
      12    C5      20.415141   18.808812   21.595702 C.3        1 MOL1        -0.1765
      13    H8      20.142392   19.259452   20.631693 H          1 MOL1         0.0830
      14    H9      21.510301   18.808109   21.669668 H          1 MOL1         0.0830
      15    O1      19.255324   20.834704   22.282269 O.3        1 MOL1        -0.5512
      16    H10     20.021124   21.346062   21.945233 H          1 MOL1         0.3776
@<TRIPOS>BOND
    1     1     2    1
    2     1     3    1
    3     1     4    1
    4     4     5    1
    5     4     6    1
    6     4     7    1
    7     7     8    1
    8     7     9    1
    9     7    10    1
   10    10    11    1
   11     1    12    1
   12    10    12    1
   13    12    13    1
   14    12    14    1
   15    10    15    1
   16    15    16    1
@<TRIPOS>SUBSTRUCTURE
       1 MOL1            1 RESIDUE      1      MOL     
@<SCITEGIC>MOL_PROPERTY
VConf Rank
SciTegic.value.IntegerValue
632

@<SCITEGIC>MOL_PROPERTY
Conf_Id
SciTegic.value.IntegerValue
33

@<SCITEGIC>MOL_PROPERTY
Delta U+W
SciTegic.value.DoubleValue
0.015

@<SCITEGIC>MOL_PROPERTY
U+W
SciTegic.value.DoubleValue
3.025

@<SCITEGIC>MOL_PROPERTY
Grad RMS
SciTegic.value.DoubleValue
0.000000

@<SCITEGIC>MOL_PROPERTY
U
SciTegic.value.DoubleValue
5.843

@<SCITEGIC>MOL_PROPERTY
W
SciTegic.value.DoubleValue
-2.819

@<SCITEGIC>MOL_PROPERTY
W(PB)
SciTegic.value.DoubleValue
-4.568

@<SCITEGIC>MOL_PROPERTY
W(SA)
SciTegic.value.DoubleValue
1.750

@<SCITEGIC>MOL_PROPERTY
Valence
SciTegic.value.DoubleValue
13.789

@<SCITEGIC>MOL_PROPERTY
Coulomb
SciTegic.value.DoubleValue
-8.574

@<SCITEGIC>MOL_PROPERTY
VdW
SciTegic.value.DoubleValue
0.628

@<SCITEGIC>MOL_PROPERTY
VdW6
SciTegic.value.DoubleValue
-3.284

@<SCITEGIC>MOL_PROPERTY
VdW12
SciTegic.value.DoubleValue
3.913

@<SCITEGIC>MOL_PROPERTY
Bond
SciTegic.value.DoubleValue
0.054

@<SCITEGIC>MOL_PROPERTY
Angle
SciTegic.value.DoubleValue
4.033

@<SCITEGIC>MOL_PROPERTY
Pdih
SciTegic.value.DoubleValue
9.702

@<SCITEGIC>MOL_PROPERTY
Idih
SciTegic.value.DoubleValue
0.000

@<SCITEGIC>MOL_PROPERTY
Tether
SciTegic.value.DoubleValue
0.000

@<TRIPOS>MOLECULE
guest-4_confgen4.mol2 : confsearch ligand conformer 633
          16          16           1
SMALL
USER_CHARGES
 
@<TRIPOS>ATOM
       1    C1      18.281462   19.338169   22.029745 C.3        1 MOL1        -0.1689
       2    H1      17.384844   18.745510   21.801584 H          1 MOL1         0.0830
       3    H2      17.992312   20.398005   22.018089 H          1 MOL1         0.0830
       4    C2      19.386333   19.039537   20.992873 C.3        1 MOL1        -0.1689
       5    H3      19.024084   18.303158   20.262293 H          1 MOL1         0.0830
       6    H4      19.675870   19.943397   20.439516 H          1 MOL1         0.0830
       7    C3      20.582419   18.464649   21.781111 C.3        1 MOL1        -0.1765
       8    H5      21.311030   19.262655   21.975871 H          1 MOL1         0.0830
       9    H6      21.099284   17.667400   21.230429 H          1 MOL1         0.0830
      10    C4      20.013093   17.972444   23.118495 C.3        1 MOL1         0.1214
      11    H7      20.769663   18.002209   23.915803 H          1 MOL1         0.0787
      12    C5      18.851850   18.933670   23.405752 C.3        1 MOL1        -0.1765
      13    H8      18.090114   18.483219   24.056026 H          1 MOL1         0.0830
      14    H9      19.243422   19.823308   23.916473 H          1 MOL1         0.0830
      15    O1      19.502114   16.657693   22.953765 O.3        1 MOL1        -0.5512
      16    H10     18.843859   16.728739   22.232090 H          1 MOL1         0.3776
@<TRIPOS>BOND
    1     1     2    1
    2     1     3    1
    3     1     4    1
    4     4     5    1
    5     4     6    1
    6     4     7    1
    7     7     8    1
    8     7     9    1
    9     7    10    1
   10    10    11    1
   11     1    12    1
   12    10    12    1
   13    12    13    1
   14    12    14    1
   15    10    15    1
   16    15    16    1
@<TRIPOS>SUBSTRUCTURE
       1 MOL1            1 RESIDUE      1      MOL     
@<SCITEGIC>MOL_PROPERTY
VConf Rank
SciTegic.value.IntegerValue
633

@<SCITEGIC>MOL_PROPERTY
Conf_Id
SciTegic.value.IntegerValue
20

@<SCITEGIC>MOL_PROPERTY
Delta U+W
SciTegic.value.DoubleValue
-0.483

@<SCITEGIC>MOL_PROPERTY
U+W
SciTegic.value.DoubleValue
2.527

@<SCITEGIC>MOL_PROPERTY
Grad RMS
SciTegic.value.DoubleValue
0.000000

@<SCITEGIC>MOL_PROPERTY
U
SciTegic.value.DoubleValue
4.508

@<SCITEGIC>MOL_PROPERTY
W
SciTegic.value.DoubleValue
-1.981

@<SCITEGIC>MOL_PROPERTY
W(PB)
SciTegic.value.DoubleValue
-3.712

@<SCITEGIC>MOL_PROPERTY
W(SA)
SciTegic.value.DoubleValue
1.732

@<SCITEGIC>MOL_PROPERTY
Valence
SciTegic.value.DoubleValue
14.705

@<SCITEGIC>MOL_PROPERTY
Coulomb
SciTegic.value.DoubleValue
-10.687

@<SCITEGIC>MOL_PROPERTY
VdW
SciTegic.value.DoubleValue
0.490

@<SCITEGIC>MOL_PROPERTY
VdW6
SciTegic.value.DoubleValue
-3.745

@<SCITEGIC>MOL_PROPERTY
VdW12
SciTegic.value.DoubleValue
4.235

@<SCITEGIC>MOL_PROPERTY
Bond
SciTegic.value.DoubleValue
0.068

@<SCITEGIC>MOL_PROPERTY
Angle
SciTegic.value.DoubleValue
3.901

@<SCITEGIC>MOL_PROPERTY
Pdih
SciTegic.value.DoubleValue
10.737

@<SCITEGIC>MOL_PROPERTY
Idih
SciTegic.value.DoubleValue
0.000

@<SCITEGIC>MOL_PROPERTY
Tether
SciTegic.value.DoubleValue
0.000

@<TRIPOS>MOLECULE
guest-4_confgen4.mol2 : confsearch ligand conformer 634
          16          16           1
SMALL
USER_CHARGES
 
@<TRIPOS>ATOM
       1    C1      18.163845   19.291955   22.692357 C.3        1 MOL1        -0.1689
       2    H1      17.350699   18.832993   22.112854 H          1 MOL1         0.0830
       3    H2      17.729747   20.062747   23.343573 H          1 MOL1         0.0830
       4    C2      19.220360   19.860360   21.735058 C.3        1 MOL1        -0.1689
       5    H3      18.771734   20.337445   20.853081 H          1 MOL1         0.0830
       6    H4      19.828803   20.610446   22.259267 H          1 MOL1         0.0830
       7    C3      20.093678   18.647656   21.364625 C.3        1 MOL1        -0.1765
       8    H5      21.123713   18.950087   21.135697 H          1 MOL1         0.0830
       9    H6      19.678742   18.160383   20.471777 H          1 MOL1         0.0830
      10    C4      20.039327   17.687645   22.571731 C.3        1 MOL1         0.1214
      11    H7      20.992399   17.717675   23.119699 H          1 MOL1         0.0787
      12    C5      18.909208   18.203376   23.486436 C.3        1 MOL1        -0.1765
      13    H8      18.231613   17.400070   23.805160 H          1 MOL1         0.0830
      14    H9      19.352222   18.643945   24.389054 H          1 MOL1         0.0830
      15    O1      19.751440   16.364861   22.134406 O.3        1 MOL1        -0.5512
      16    H10     20.492037   16.093890   21.551634 H          1 MOL1         0.3776
@<TRIPOS>BOND
    1     1     2    1
    2     1     3    1
    3     1     4    1
    4     4     5    1
    5     4     6    1
    6     4     7    1
    7     7     8    1
    8     7     9    1
    9     7    10    1
   10    10    11    1
   11     1    12    1
   12    10    12    1
   13    12    13    1
   14    12    14    1
   15    10    15    1
   16    15    16    1
@<TRIPOS>SUBSTRUCTURE
       1 MOL1            1 RESIDUE      1      MOL     
@<SCITEGIC>MOL_PROPERTY
VConf Rank
SciTegic.value.IntegerValue
634

@<SCITEGIC>MOL_PROPERTY
Conf_Id
SciTegic.value.IntegerValue
59

@<SCITEGIC>MOL_PROPERTY
Delta U+W
SciTegic.value.DoubleValue
0.000

@<SCITEGIC>MOL_PROPERTY
U+W
SciTegic.value.DoubleValue
3.010

@<SCITEGIC>MOL_PROPERTY
Grad RMS
SciTegic.value.DoubleValue
0.000000

@<SCITEGIC>MOL_PROPERTY
U
SciTegic.value.DoubleValue
5.843

@<SCITEGIC>MOL_PROPERTY
W
SciTegic.value.DoubleValue
-2.833

@<SCITEGIC>MOL_PROPERTY
W(PB)
SciTegic.value.DoubleValue
-4.568

@<SCITEGIC>MOL_PROPERTY
W(SA)
SciTegic.value.DoubleValue
1.735

@<SCITEGIC>MOL_PROPERTY
Valence
SciTegic.value.DoubleValue
13.789

@<SCITEGIC>MOL_PROPERTY
Coulomb
SciTegic.value.DoubleValue
-8.574

@<SCITEGIC>MOL_PROPERTY
VdW
SciTegic.value.DoubleValue
0.628

@<SCITEGIC>MOL_PROPERTY
VdW6
SciTegic.value.DoubleValue
-3.284

@<SCITEGIC>MOL_PROPERTY
VdW12
SciTegic.value.DoubleValue
3.912

@<SCITEGIC>MOL_PROPERTY
Bond
SciTegic.value.DoubleValue
0.054

@<SCITEGIC>MOL_PROPERTY
Angle
SciTegic.value.DoubleValue
4.034

@<SCITEGIC>MOL_PROPERTY
Pdih
SciTegic.value.DoubleValue
9.702

@<SCITEGIC>MOL_PROPERTY
Idih
SciTegic.value.DoubleValue
0.000

@<SCITEGIC>MOL_PROPERTY
Tether
SciTegic.value.DoubleValue
0.000

@<TRIPOS>MOLECULE
guest-4_confgen4.mol2 : confsearch ligand conformer 635
          16          16           1
SMALL
USER_CHARGES
 
@<TRIPOS>ATOM
       1    C1      18.928277   19.254474   23.464477 C.3        1 MOL1        -0.1689
       2    H1      17.999055   19.290809   24.049271 H          1 MOL1         0.0830
       3    H2      19.705807   19.796214   24.020882 H          1 MOL1         0.0830
       4    C2      18.765090   19.873959   22.069724 C.3        1 MOL1        -0.1689
       5    H3      17.786319   19.595073   21.655103 H          1 MOL1         0.0830
       6    H4      18.831704   20.970271   22.087178 H          1 MOL1         0.0830
       7    C3      19.883414   19.230583   21.229192 C.3        1 MOL1        -0.1765
       8    H5      20.791273   19.844507   21.292226 H          1 MOL1         0.0830
       9    H6      19.602371   19.158073   20.170052 H          1 MOL1         0.0830
      10    C4      20.165586   17.849539   21.856005 C.3        1 MOL1         0.1214
      11    H7      21.244706   17.749005   22.042853 H          1 MOL1         0.0787
      12    C5      19.392560   17.812123   23.191207 C.3        1 MOL1        -0.1765
      13    H8      18.514242   17.158061   23.104365 H          1 MOL1         0.0830
      14    H9      20.017672   17.430331   24.008713 H          1 MOL1         0.0830
      15    O1      19.705570   16.816065   20.993326 O.3        1 MOL1        -0.5512
      16    H10     19.898969   15.966823   21.443786 H          1 MOL1         0.3776
@<TRIPOS>BOND
    1     1     2    1
    2     1     3    1
    3     1     4    1
    4     4     5    1
    5     4     6    1
    6     4     7    1
    7     7     8    1
    8     7     9    1
    9     7    10    1
   10    10    11    1
   11     1    12    1
   12    10    12    1
   13    12    13    1
   14    12    14    1
   15    10    15    1
   16    15    16    1
@<TRIPOS>SUBSTRUCTURE
       1 MOL1            1 RESIDUE      1      MOL     
@<SCITEGIC>MOL_PROPERTY
VConf Rank
SciTegic.value.IntegerValue
635

@<SCITEGIC>MOL_PROPERTY
Conf_Id
SciTegic.value.IntegerValue
33

@<SCITEGIC>MOL_PROPERTY
Delta U+W
SciTegic.value.DoubleValue
0.015

@<SCITEGIC>MOL_PROPERTY
U+W
SciTegic.value.DoubleValue
3.025

@<SCITEGIC>MOL_PROPERTY
Grad RMS
SciTegic.value.DoubleValue
0.000000

@<SCITEGIC>MOL_PROPERTY
U
SciTegic.value.DoubleValue
5.843

@<SCITEGIC>MOL_PROPERTY
W
SciTegic.value.DoubleValue
-2.819

@<SCITEGIC>MOL_PROPERTY
W(PB)
SciTegic.value.DoubleValue
-4.568

@<SCITEGIC>MOL_PROPERTY
W(SA)
SciTegic.value.DoubleValue
1.750

@<SCITEGIC>MOL_PROPERTY
Valence
SciTegic.value.DoubleValue
13.789

@<SCITEGIC>MOL_PROPERTY
Coulomb
SciTegic.value.DoubleValue
-8.574

@<SCITEGIC>MOL_PROPERTY
VdW
SciTegic.value.DoubleValue
0.628

@<SCITEGIC>MOL_PROPERTY
VdW6
SciTegic.value.DoubleValue
-3.284

@<SCITEGIC>MOL_PROPERTY
VdW12
SciTegic.value.DoubleValue
3.913

@<SCITEGIC>MOL_PROPERTY
Bond
SciTegic.value.DoubleValue
0.054

@<SCITEGIC>MOL_PROPERTY
Angle
SciTegic.value.DoubleValue
4.033

@<SCITEGIC>MOL_PROPERTY
Pdih
SciTegic.value.DoubleValue
9.702

@<SCITEGIC>MOL_PROPERTY
Idih
SciTegic.value.DoubleValue
0.000

@<SCITEGIC>MOL_PROPERTY
Tether
SciTegic.value.DoubleValue
0.000

@<TRIPOS>MOLECULE
guest-4_confgen4.mol2 : confsearch ligand conformer 636
          16          16           1
SMALL
USER_CHARGES
 
@<TRIPOS>ATOM
       1    C1      19.046547   19.897414   22.123559 C.3        1 MOL1        -0.1689
       2    H1      19.878999   20.597477   22.278999 H          1 MOL1         0.0830
       3    H2      18.154749   20.489600   21.876558 H          1 MOL1         0.0830
       4    C2      18.830027   19.048200   23.395164 C.3        1 MOL1        -0.1689
       5    H3      19.556987   19.337993   24.166381 H          1 MOL1         0.0830
       6    H4      17.824576   19.195395   23.812777 H          1 MOL1         0.0830
       7    C3      19.049150   17.577323   22.981713 C.3        1 MOL1        -0.1765
       8    H5      18.078502   17.102682   22.786318 H          1 MOL1         0.0830
       9    H6      19.553941   16.995671   23.764574 H          1 MOL1         0.0830
      10    C4      19.855555   17.618169   21.676709 C.3        1 MOL1         0.1214
      11    H7      19.661248   16.733631   21.053154 H          1 MOL1         0.0787
      12    C5      19.387166   18.907697   20.989188 C.3        1 MOL1        -0.1765
      13    H8      20.141515   19.308898   20.299261 H          1 MOL1         0.0830
      14    H9      18.482030   18.692355   20.406112 H          1 MOL1         0.0830
      15    O1      21.237684   17.727563   21.984211 O.3        1 MOL1        -0.5512
      16    H10     21.313076   18.533696   22.535235 H          1 MOL1         0.3776
@<TRIPOS>BOND
    1     1     2    1
    2     1     3    1
    3     1     4    1
    4     4     5    1
    5     4     6    1
    6     4     7    1
    7     7     8    1
    8     7     9    1
    9     7    10    1
   10    10    11    1
   11     1    12    1
   12    10    12    1
   13    12    13    1
   14    12    14    1
   15    10    15    1
   16    15    16    1
@<TRIPOS>SUBSTRUCTURE
       1 MOL1            1 RESIDUE      1      MOL     
@<SCITEGIC>MOL_PROPERTY
VConf Rank
SciTegic.value.IntegerValue
636

@<SCITEGIC>MOL_PROPERTY
Conf_Id
SciTegic.value.IntegerValue
20

@<SCITEGIC>MOL_PROPERTY
Delta U+W
SciTegic.value.DoubleValue
-0.483

@<SCITEGIC>MOL_PROPERTY
U+W
SciTegic.value.DoubleValue
2.527

@<SCITEGIC>MOL_PROPERTY
Grad RMS
SciTegic.value.DoubleValue
0.000000

@<SCITEGIC>MOL_PROPERTY
U
SciTegic.value.DoubleValue
4.508

@<SCITEGIC>MOL_PROPERTY
W
SciTegic.value.DoubleValue
-1.981

@<SCITEGIC>MOL_PROPERTY
W(PB)
SciTegic.value.DoubleValue
-3.712

@<SCITEGIC>MOL_PROPERTY
W(SA)
SciTegic.value.DoubleValue
1.732

@<SCITEGIC>MOL_PROPERTY
Valence
SciTegic.value.DoubleValue
14.705

@<SCITEGIC>MOL_PROPERTY
Coulomb
SciTegic.value.DoubleValue
-10.687

@<SCITEGIC>MOL_PROPERTY
VdW
SciTegic.value.DoubleValue
0.490

@<SCITEGIC>MOL_PROPERTY
VdW6
SciTegic.value.DoubleValue
-3.745

@<SCITEGIC>MOL_PROPERTY
VdW12
SciTegic.value.DoubleValue
4.235

@<SCITEGIC>MOL_PROPERTY
Bond
SciTegic.value.DoubleValue
0.068

@<SCITEGIC>MOL_PROPERTY
Angle
SciTegic.value.DoubleValue
3.901

@<SCITEGIC>MOL_PROPERTY
Pdih
SciTegic.value.DoubleValue
10.737

@<SCITEGIC>MOL_PROPERTY
Idih
SciTegic.value.DoubleValue
0.000

@<SCITEGIC>MOL_PROPERTY
Tether
SciTegic.value.DoubleValue
0.000

@<TRIPOS>MOLECULE
guest-4_confgen4.mol2 : confsearch ligand conformer 637
          16          16           1
SMALL
USER_CHARGES
 
@<TRIPOS>ATOM
       1    C1      20.459224   18.982304   23.161425 C.3        1 MOL1        -0.1689
       2    H1      20.037448   19.026000   24.175265 H          1 MOL1         0.0830
       3    H2      21.529646   19.221038   23.223453 H          1 MOL1         0.0830
       4    C2      19.695502   19.947640   22.244592 C.3        1 MOL1        -0.1689
       5    H3      19.444750   20.891513   22.747569 H          1 MOL1         0.0830
       6    H4      20.306984   20.180652   21.361743 H          1 MOL1         0.0830
       7    C3      18.443029   19.160448   21.817749 C.3        1 MOL1        -0.1765
       8    H5      18.091615   19.472836   20.825898 H          1 MOL1         0.0830
       9    H6      17.633846   19.347542   22.536779 H          1 MOL1         0.0830
      10    C4      18.839740   17.669143   21.835277 C.3        1 MOL1         0.1214
      11    H7      18.950822   17.297124   20.806305 H          1 MOL1         0.0787
      12    C5      20.201745   17.590342   22.555392 C.3        1 MOL1        -0.1765
      13    H8      20.222645   16.805122   23.322865 H          1 MOL1         0.0830
      14    H9      20.982778   17.358613   21.819613 H          1 MOL1         0.0830
      15    O1      17.866143   16.910428   22.542631 O.3        1 MOL1        -0.5512
      16    H10     17.023648   17.004788   22.049853 H          1 MOL1         0.3776
@<TRIPOS>BOND
    1     1     2    1
    2     1     3    1
    3     1     4    1
    4     4     5    1
    5     4     6    1
    6     4     7    1
    7     7     8    1
    8     7     9    1
    9     7    10    1
   10    10    11    1
   11     1    12    1
   12    10    12    1
   13    12    13    1
   14    12    14    1
   15    10    15    1
   16    15    16    1
@<TRIPOS>SUBSTRUCTURE
       1 MOL1            1 RESIDUE      1      MOL     
@<SCITEGIC>MOL_PROPERTY
VConf Rank
SciTegic.value.IntegerValue
637

@<SCITEGIC>MOL_PROPERTY
Conf_Id
SciTegic.value.IntegerValue
59

@<SCITEGIC>MOL_PROPERTY
Delta U+W
SciTegic.value.DoubleValue
0.000

@<SCITEGIC>MOL_PROPERTY
U+W
SciTegic.value.DoubleValue
3.010

@<SCITEGIC>MOL_PROPERTY
Grad RMS
SciTegic.value.DoubleValue
0.000000

@<SCITEGIC>MOL_PROPERTY
U
SciTegic.value.DoubleValue
5.843

@<SCITEGIC>MOL_PROPERTY
W
SciTegic.value.DoubleValue
-2.833

@<SCITEGIC>MOL_PROPERTY
W(PB)
SciTegic.value.DoubleValue
-4.568

@<SCITEGIC>MOL_PROPERTY
W(SA)
SciTegic.value.DoubleValue
1.735

@<SCITEGIC>MOL_PROPERTY
Valence
SciTegic.value.DoubleValue
13.789

@<SCITEGIC>MOL_PROPERTY
Coulomb
SciTegic.value.DoubleValue
-8.574

@<SCITEGIC>MOL_PROPERTY
VdW
SciTegic.value.DoubleValue
0.628

@<SCITEGIC>MOL_PROPERTY
VdW6
SciTegic.value.DoubleValue
-3.284

@<SCITEGIC>MOL_PROPERTY
VdW12
SciTegic.value.DoubleValue
3.912

@<SCITEGIC>MOL_PROPERTY
Bond
SciTegic.value.DoubleValue
0.054

@<SCITEGIC>MOL_PROPERTY
Angle
SciTegic.value.DoubleValue
4.034

@<SCITEGIC>MOL_PROPERTY
Pdih
SciTegic.value.DoubleValue
9.702

@<SCITEGIC>MOL_PROPERTY
Idih
SciTegic.value.DoubleValue
0.000

@<SCITEGIC>MOL_PROPERTY
Tether
SciTegic.value.DoubleValue
0.000

@<TRIPOS>MOLECULE
guest-4_confgen4.mol2 : confsearch ligand conformer 638
          16          16           1
SMALL
USER_CHARGES
 
@<TRIPOS>ATOM
       1    C1      19.645545   17.929474   21.044626 C.3        1 MOL1        -0.1689
       2    H1      19.064609   17.352799   20.312015 H          1 MOL1         0.0830
       3    H2      20.643175   18.114905   20.622761 H          1 MOL1         0.0830
       4    C2      19.780604   17.199329   22.387895 C.3        1 MOL1        -0.1689
       5    H3      18.831556   16.703121   22.634402 H          1 MOL1         0.0830
       6    H4      20.573153   16.438854   22.374224 H          1 MOL1         0.0830
       7    C3      20.057623   18.318515   23.408562 C.3        1 MOL1        -0.1765
       8    H5      21.140169   18.479160   23.494424 H          1 MOL1         0.0830
       9    H6      19.678540   18.058970   24.406035 H          1 MOL1         0.0830
      10    C4      19.402262   19.597427   22.847597 C.3        1 MOL1         0.1214
      11    H7      20.140318   20.412771   22.845106 H          1 MOL1         0.0787
      12    C5      18.974030   19.268132   21.401942 C.3        1 MOL1        -0.1765
      13    H8      17.882946   19.153894   21.344785 H          1 MOL1         0.0830
      14    H9      19.266833   20.062716   20.703551 H          1 MOL1         0.0830
      15    O1      18.266042   19.949222   23.628073 O.3        1 MOL1        -0.5512
      16    H10     17.885210   20.756622   23.222362 H          1 MOL1         0.3776
@<TRIPOS>BOND
    1     1     2    1
    2     1     3    1
    3     1     4    1
    4     4     5    1
    5     4     6    1
    6     4     7    1
    7     7     8    1
    8     7     9    1
    9     7    10    1
   10    10    11    1
   11     1    12    1
   12    10    12    1
   13    12    13    1
   14    12    14    1
   15    10    15    1
   16    15    16    1
@<TRIPOS>SUBSTRUCTURE
       1 MOL1            1 RESIDUE      1      MOL     
@<SCITEGIC>MOL_PROPERTY
VConf Rank
SciTegic.value.IntegerValue
638

@<SCITEGIC>MOL_PROPERTY
Conf_Id
SciTegic.value.IntegerValue
33

@<SCITEGIC>MOL_PROPERTY
Delta U+W
SciTegic.value.DoubleValue
0.015

@<SCITEGIC>MOL_PROPERTY
U+W
SciTegic.value.DoubleValue
3.025

@<SCITEGIC>MOL_PROPERTY
Grad RMS
SciTegic.value.DoubleValue
0.000000

@<SCITEGIC>MOL_PROPERTY
U
SciTegic.value.DoubleValue
5.843

@<SCITEGIC>MOL_PROPERTY
W
SciTegic.value.DoubleValue
-2.819

@<SCITEGIC>MOL_PROPERTY
W(PB)
SciTegic.value.DoubleValue
-4.568

@<SCITEGIC>MOL_PROPERTY
W(SA)
SciTegic.value.DoubleValue
1.750

@<SCITEGIC>MOL_PROPERTY
Valence
SciTegic.value.DoubleValue
13.789

@<SCITEGIC>MOL_PROPERTY
Coulomb
SciTegic.value.DoubleValue
-8.574

@<SCITEGIC>MOL_PROPERTY
VdW
SciTegic.value.DoubleValue
0.628

@<SCITEGIC>MOL_PROPERTY
VdW6
SciTegic.value.DoubleValue
-3.284

@<SCITEGIC>MOL_PROPERTY
VdW12
SciTegic.value.DoubleValue
3.913

@<SCITEGIC>MOL_PROPERTY
Bond
SciTegic.value.DoubleValue
0.054

@<SCITEGIC>MOL_PROPERTY
Angle
SciTegic.value.DoubleValue
4.033

@<SCITEGIC>MOL_PROPERTY
Pdih
SciTegic.value.DoubleValue
9.702

@<SCITEGIC>MOL_PROPERTY
Idih
SciTegic.value.DoubleValue
0.000

@<SCITEGIC>MOL_PROPERTY
Tether
SciTegic.value.DoubleValue
0.000

@<TRIPOS>MOLECULE
guest-4_confgen4.mol2 : confsearch ligand conformer 639
          16          16           1
SMALL
USER_CHARGES
 
@<TRIPOS>ATOM
       1    C1      19.311535   17.911278   21.121475 C.3        1 MOL1        -0.1689
       2    H1      19.860193   18.359974   20.281907 H          1 MOL1         0.0830
       3    H2      18.866344   16.972310   20.764905 H          1 MOL1         0.0830
       4    C2      18.233776   18.893760   21.629596 C.3        1 MOL1        -0.1689
       5    H3      18.260120   19.817509   21.035273 H          1 MOL1         0.0830
       6    H4      17.224853   18.468314   21.539766 H          1 MOL1         0.0830
       7    C3      18.578478   19.197776   23.103092 C.3        1 MOL1        -0.1765
       8    H5      17.970727   18.562278   23.760664 H          1 MOL1         0.0830
       9    H6      18.377463   20.243811   23.370316 H          1 MOL1         0.0830
      10    C4      20.057111   18.826734   23.279062 C.3        1 MOL1         0.1214
      11    H7      20.280794   18.536306   24.315692 H          1 MOL1         0.0787
      12    C5      20.266323   17.657543   22.307373 C.3        1 MOL1        -0.1765
      13    H8      21.312644   17.565061   21.986962 H          1 MOL1         0.0830
      14    H9      19.986814   16.722060   22.809737 H          1 MOL1         0.0830
      15    O1      20.865515   19.921840   22.874055 O.3        1 MOL1        -0.5512
      16    H10     20.599063   20.107209   21.950040 H          1 MOL1         0.3776
@<TRIPOS>BOND
    1     1     2    1
    2     1     3    1
    3     1     4    1
    4     4     5    1
    5     4     6    1
    6     4     7    1
    7     7     8    1
    8     7     9    1
    9     7    10    1
   10    10    11    1
   11     1    12    1
   12    10    12    1
   13    12    13    1
   14    12    14    1
   15    10    15    1
   16    15    16    1
@<TRIPOS>SUBSTRUCTURE
       1 MOL1            1 RESIDUE      1      MOL     
@<SCITEGIC>MOL_PROPERTY
VConf Rank
SciTegic.value.IntegerValue
639

@<SCITEGIC>MOL_PROPERTY
Conf_Id
SciTegic.value.IntegerValue
20

@<SCITEGIC>MOL_PROPERTY
Delta U+W
SciTegic.value.DoubleValue
-0.483

@<SCITEGIC>MOL_PROPERTY
U+W
SciTegic.value.DoubleValue
2.527

@<SCITEGIC>MOL_PROPERTY
Grad RMS
SciTegic.value.DoubleValue
0.000000

@<SCITEGIC>MOL_PROPERTY
U
SciTegic.value.DoubleValue
4.508

@<SCITEGIC>MOL_PROPERTY
W
SciTegic.value.DoubleValue
-1.981

@<SCITEGIC>MOL_PROPERTY
W(PB)
SciTegic.value.DoubleValue
-3.712

@<SCITEGIC>MOL_PROPERTY
W(SA)
SciTegic.value.DoubleValue
1.732

@<SCITEGIC>MOL_PROPERTY
Valence
SciTegic.value.DoubleValue
14.705

@<SCITEGIC>MOL_PROPERTY
Coulomb
SciTegic.value.DoubleValue
-10.687

@<SCITEGIC>MOL_PROPERTY
VdW
SciTegic.value.DoubleValue
0.490

@<SCITEGIC>MOL_PROPERTY
VdW6
SciTegic.value.DoubleValue
-3.745

@<SCITEGIC>MOL_PROPERTY
VdW12
SciTegic.value.DoubleValue
4.235

@<SCITEGIC>MOL_PROPERTY
Bond
SciTegic.value.DoubleValue
0.068

@<SCITEGIC>MOL_PROPERTY
Angle
SciTegic.value.DoubleValue
3.901

@<SCITEGIC>MOL_PROPERTY
Pdih
SciTegic.value.DoubleValue
10.737

@<SCITEGIC>MOL_PROPERTY
Idih
SciTegic.value.DoubleValue
0.000

@<SCITEGIC>MOL_PROPERTY
Tether
SciTegic.value.DoubleValue
0.000

@<TRIPOS>MOLECULE
guest-4_confgen4.mol2 : confsearch ligand conformer 640
          16          16           1
SMALL
USER_CHARGES
 
@<TRIPOS>ATOM
       1    C1      18.804263   19.837282   22.714670 C.3        1 MOL1        -0.1689
       2    H1      18.931149   19.873593   23.805659 H          1 MOL1         0.0830
       3    H2      18.372397   20.792494   22.386484 H          1 MOL1         0.0830
       4    C2      17.925187   18.636588   22.338791 C.3        1 MOL1        -0.1689
       5    H3      17.094383   18.490289   23.042439 H          1 MOL1         0.0830
       6    H4      17.503150   18.787172   21.335379 H          1 MOL1         0.0830
       7    C3      18.895859   17.441573   22.321691 C.3        1 MOL1        -0.1765
       8    H5      18.570043   16.670273   21.611912 H          1 MOL1         0.0830
       9    H6      18.930382   16.987294   23.321302 H          1 MOL1         0.0830
      10    C4      20.279928   18.010877   21.944961 C.3        1 MOL1         0.1214
      11    H7      20.531907   17.734179   20.910813 H          1 MOL1         0.0787
      12    C5      20.160921   19.545549   22.047210 C.3        1 MOL1        -0.1765
      13    H8      20.992245   19.991550   22.609352 H          1 MOL1         0.0830
      14    H9      20.173925   19.973705   21.036470 H          1 MOL1         0.0830
      15    O1      21.269491   17.534190   22.849076 O.3        1 MOL1        -0.5512
      16    H10     21.294337   16.558926   22.750202 H          1 MOL1         0.3776
@<TRIPOS>BOND
    1     1     2    1
    2     1     3    1
    3     1     4    1
    4     4     5    1
    5     4     6    1
    6     4     7    1
    7     7     8    1
    8     7     9    1
    9     7    10    1
   10    10    11    1
   11     1    12    1
   12    10    12    1
   13    12    13    1
   14    12    14    1
   15    10    15    1
   16    15    16    1
@<TRIPOS>SUBSTRUCTURE
       1 MOL1            1 RESIDUE      1      MOL     
@<SCITEGIC>MOL_PROPERTY
VConf Rank
SciTegic.value.IntegerValue
640

@<SCITEGIC>MOL_PROPERTY
Conf_Id
SciTegic.value.IntegerValue
59

@<SCITEGIC>MOL_PROPERTY
Delta U+W
SciTegic.value.DoubleValue
0.000

@<SCITEGIC>MOL_PROPERTY
U+W
SciTegic.value.DoubleValue
3.010

@<SCITEGIC>MOL_PROPERTY
Grad RMS
SciTegic.value.DoubleValue
0.000000

@<SCITEGIC>MOL_PROPERTY
U
SciTegic.value.DoubleValue
5.843

@<SCITEGIC>MOL_PROPERTY
W
SciTegic.value.DoubleValue
-2.833

@<SCITEGIC>MOL_PROPERTY
W(PB)
SciTegic.value.DoubleValue
-4.568

@<SCITEGIC>MOL_PROPERTY
W(SA)
SciTegic.value.DoubleValue
1.735

@<SCITEGIC>MOL_PROPERTY
Valence
SciTegic.value.DoubleValue
13.789

@<SCITEGIC>MOL_PROPERTY
Coulomb
SciTegic.value.DoubleValue
-8.574

@<SCITEGIC>MOL_PROPERTY
VdW
SciTegic.value.DoubleValue
0.628

@<SCITEGIC>MOL_PROPERTY
VdW6
SciTegic.value.DoubleValue
-3.284

@<SCITEGIC>MOL_PROPERTY
VdW12
SciTegic.value.DoubleValue
3.912

@<SCITEGIC>MOL_PROPERTY
Bond
SciTegic.value.DoubleValue
0.054

@<SCITEGIC>MOL_PROPERTY
Angle
SciTegic.value.DoubleValue
4.034

@<SCITEGIC>MOL_PROPERTY
Pdih
SciTegic.value.DoubleValue
9.702

@<SCITEGIC>MOL_PROPERTY
Idih
SciTegic.value.DoubleValue
0.000

@<SCITEGIC>MOL_PROPERTY
Tether
SciTegic.value.DoubleValue
0.000

@<TRIPOS>MOLECULE
guest-4_confgen4.mol2 : confsearch ligand conformer 641
          16          16           1
SMALL
USER_CHARGES
 
@<TRIPOS>ATOM
       1    C1      20.222389   17.588183   22.939245 C.3        1 MOL1        -0.1689
       2    H1      20.826519   16.709183   22.676293 H          1 MOL1         0.0830
       3    H2      20.346872   17.781670   24.013810 H          1 MOL1         0.0830
       4    C2      18.734304   17.390984   22.619178 C.3        1 MOL1        -0.1689
       5    H3      18.630581   16.858232   21.663617 H          1 MOL1         0.0830
       6    H4      18.211524   16.813482   23.393668 H          1 MOL1         0.0830
       7    C3      18.178433   18.819815   22.475908 C.3        1 MOL1        -0.1765
       8    H5      17.824295   19.176931   23.451684 H          1 MOL1         0.0830
       9    H6      17.330145   18.855694   21.779387 H          1 MOL1         0.0830
      10    C4      19.354128   19.704753   22.012848 C.3        1 MOL1         0.1214
      11    H7      19.431340   20.580951   22.673026 H          1 MOL1         0.0787
      12    C5      20.625032   18.837779   22.134884 C.3        1 MOL1        -0.1765
      13    H8      20.974276   18.531968   21.139248 H          1 MOL1         0.0830
      14    H9      21.440864   19.384589   22.625052 H          1 MOL1         0.0830
      15    O1      19.162525   20.107546   20.661944 O.3        1 MOL1        -0.5512
      16    H10     19.939390   20.654151   20.418566 H          1 MOL1         0.3776
@<TRIPOS>BOND
    1     1     2    1
    2     1     3    1
    3     1     4    1
    4     4     5    1
    5     4     6    1
    6     4     7    1
    7     7     8    1
    8     7     9    1
    9     7    10    1
   10    10    11    1
   11     1    12    1
   12    10    12    1
   13    12    13    1
   14    12    14    1
   15    10    15    1
   16    15    16    1
@<TRIPOS>SUBSTRUCTURE
       1 MOL1            1 RESIDUE      1      MOL     
@<SCITEGIC>MOL_PROPERTY
VConf Rank
SciTegic.value.IntegerValue
641

@<SCITEGIC>MOL_PROPERTY
Conf_Id
SciTegic.value.IntegerValue
33

@<SCITEGIC>MOL_PROPERTY
Delta U+W
SciTegic.value.DoubleValue
0.015

@<SCITEGIC>MOL_PROPERTY
U+W
SciTegic.value.DoubleValue
3.025

@<SCITEGIC>MOL_PROPERTY
Grad RMS
SciTegic.value.DoubleValue
0.000000

@<SCITEGIC>MOL_PROPERTY
U
SciTegic.value.DoubleValue
5.843

@<SCITEGIC>MOL_PROPERTY
W
SciTegic.value.DoubleValue
-2.819

@<SCITEGIC>MOL_PROPERTY
W(PB)
SciTegic.value.DoubleValue
-4.568

@<SCITEGIC>MOL_PROPERTY
W(SA)
SciTegic.value.DoubleValue
1.750

@<SCITEGIC>MOL_PROPERTY
Valence
SciTegic.value.DoubleValue
13.789

@<SCITEGIC>MOL_PROPERTY
Coulomb
SciTegic.value.DoubleValue
-8.574

@<SCITEGIC>MOL_PROPERTY
VdW
SciTegic.value.DoubleValue
0.628

@<SCITEGIC>MOL_PROPERTY
VdW6
SciTegic.value.DoubleValue
-3.284

@<SCITEGIC>MOL_PROPERTY
VdW12
SciTegic.value.DoubleValue
3.913

@<SCITEGIC>MOL_PROPERTY
Bond
SciTegic.value.DoubleValue
0.054

@<SCITEGIC>MOL_PROPERTY
Angle
SciTegic.value.DoubleValue
4.033

@<SCITEGIC>MOL_PROPERTY
Pdih
SciTegic.value.DoubleValue
9.702

@<SCITEGIC>MOL_PROPERTY
Idih
SciTegic.value.DoubleValue
0.000

@<SCITEGIC>MOL_PROPERTY
Tether
SciTegic.value.DoubleValue
0.000

@<TRIPOS>MOLECULE
guest-4_confgen4.mol2 : confsearch ligand conformer 642
          16          16           1
SMALL
USER_CHARGES
 
@<TRIPOS>ATOM
       1    C1      19.867749   17.408488   21.940107 C.3        1 MOL1        -0.1689
       2    H1      19.104860   16.669527   21.658747 H          1 MOL1         0.0830
       3    H2      20.849471   16.922520   21.856125 H          1 MOL1         0.0830
       4    C2      19.605224   17.913887   23.375612 C.3        1 MOL1        -0.1689
       5    H3      18.715918   17.418753   23.789377 H          1 MOL1         0.0830
       6    H4      20.450080   17.693189   24.042329 H          1 MOL1         0.0830
       7    C3      19.366656   19.435001   23.267287 C.3        1 MOL1        -0.1765
       8    H5      20.296163   19.969825   23.503085 H          1 MOL1         0.0830
       9    H6      18.593470   19.785713   23.963843 H          1 MOL1         0.0830
      10    C4      18.994872   19.703783   21.802867 C.3        1 MOL1         0.1214
      11    H7      19.272551   20.722252   21.495297 H          1 MOL1         0.0787
      12    C5      19.779176   18.643387   21.018403 C.3        1 MOL1        -0.1765
      13    H8      19.311130   18.409465   20.052889 H          1 MOL1         0.0830
      14    H9      20.789236   19.023760   20.816617 H          1 MOL1         0.0830
      15    O1      17.603318   19.482638   21.625448 O.3        1 MOL1        -0.5512
      16    H10     17.451881   18.561575   21.921880 H          1 MOL1         0.3776
@<TRIPOS>BOND
    1     1     2    1
    2     1     3    1
    3     1     4    1
    4     4     5    1
    5     4     6    1
    6     4     7    1
    7     7     8    1
    8     7     9    1
    9     7    10    1
   10    10    11    1
   11     1    12    1
   12    10    12    1
   13    12    13    1
   14    12    14    1
   15    10    15    1
   16    15    16    1
@<TRIPOS>SUBSTRUCTURE
       1 MOL1            1 RESIDUE      1      MOL     
@<SCITEGIC>MOL_PROPERTY
VConf Rank
SciTegic.value.IntegerValue
642

@<SCITEGIC>MOL_PROPERTY
Conf_Id
SciTegic.value.IntegerValue
20

@<SCITEGIC>MOL_PROPERTY
Delta U+W
SciTegic.value.DoubleValue
-0.483

@<SCITEGIC>MOL_PROPERTY
U+W
SciTegic.value.DoubleValue
2.527

@<SCITEGIC>MOL_PROPERTY
Grad RMS
SciTegic.value.DoubleValue
0.000000

@<SCITEGIC>MOL_PROPERTY
U
SciTegic.value.DoubleValue
4.508

@<SCITEGIC>MOL_PROPERTY
W
SciTegic.value.DoubleValue
-1.981

@<SCITEGIC>MOL_PROPERTY
W(PB)
SciTegic.value.DoubleValue
-3.712

@<SCITEGIC>MOL_PROPERTY
W(SA)
SciTegic.value.DoubleValue
1.732

@<SCITEGIC>MOL_PROPERTY
Valence
SciTegic.value.DoubleValue
14.705

@<SCITEGIC>MOL_PROPERTY
Coulomb
SciTegic.value.DoubleValue
-10.687

@<SCITEGIC>MOL_PROPERTY
VdW
SciTegic.value.DoubleValue
0.490

@<SCITEGIC>MOL_PROPERTY
VdW6
SciTegic.value.DoubleValue
-3.745

@<SCITEGIC>MOL_PROPERTY
VdW12
SciTegic.value.DoubleValue
4.235

@<SCITEGIC>MOL_PROPERTY
Bond
SciTegic.value.DoubleValue
0.068

@<SCITEGIC>MOL_PROPERTY
Angle
SciTegic.value.DoubleValue
3.901

@<SCITEGIC>MOL_PROPERTY
Pdih
SciTegic.value.DoubleValue
10.737

@<SCITEGIC>MOL_PROPERTY
Idih
SciTegic.value.DoubleValue
0.000

@<SCITEGIC>MOL_PROPERTY
Tether
SciTegic.value.DoubleValue
0.000

@<TRIPOS>MOLECULE
guest-4_confgen4.mol2 : confsearch ligand conformer 643
          16          16           1
SMALL
USER_CHARGES
 
@<TRIPOS>ATOM
       1    C1      20.447523   19.051431   21.489817 C.3        1 MOL1        -0.1689
       2    H1      20.795047   19.962174   21.997214 H          1 MOL1         0.0830
       3    H2      21.095354   18.873154   20.620808 H          1 MOL1         0.0830
       4    C2      18.972240   19.212021   21.098052 C.3        1 MOL1        -0.1689
       5    H3      18.744080   20.223118   20.734204 H          1 MOL1         0.0830
       6    H4      18.720773   18.495968   20.303283 H          1 MOL1         0.0830
       7    C3      18.195071   18.861422   22.380100 C.3        1 MOL1        -0.1765
       8    H5      17.208064   18.440705   22.148453 H          1 MOL1         0.0830
       9    H6      18.042380   19.773409   22.973184 H          1 MOL1         0.0830
      10    C4      19.071071   17.857521   23.158874 C.3        1 MOL1         0.1214
      11    H7      18.642168   16.847508   23.085157 H          1 MOL1         0.0787
      12    C5      20.456886   17.873299   22.481304 C.3        1 MOL1        -0.1765
      13    H8      21.275227   17.963103   23.208130 H          1 MOL1         0.0830
      14    H9      20.598477   16.932275   21.934032 H          1 MOL1         0.0830
      15    O1      19.185458   18.257914   24.519201 O.3        1 MOL1        -0.5512
      16    H10     18.279749   18.240512   24.894595 H          1 MOL1         0.3776
@<TRIPOS>BOND
    1     1     2    1
    2     1     3    1
    3     1     4    1
    4     4     5    1
    5     4     6    1
    6     4     7    1
    7     7     8    1
    8     7     9    1
    9     7    10    1
   10    10    11    1
   11     1    12    1
   12    10    12    1
   13    12    13    1
   14    12    14    1
   15    10    15    1
   16    15    16    1
@<TRIPOS>SUBSTRUCTURE
       1 MOL1            1 RESIDUE      1      MOL     
@<SCITEGIC>MOL_PROPERTY
VConf Rank
SciTegic.value.IntegerValue
643

@<SCITEGIC>MOL_PROPERTY
Conf_Id
SciTegic.value.IntegerValue
59

@<SCITEGIC>MOL_PROPERTY
Delta U+W
SciTegic.value.DoubleValue
0.000

@<SCITEGIC>MOL_PROPERTY
U+W
SciTegic.value.DoubleValue
3.010

@<SCITEGIC>MOL_PROPERTY
Grad RMS
SciTegic.value.DoubleValue
0.000000

@<SCITEGIC>MOL_PROPERTY
U
SciTegic.value.DoubleValue
5.843

@<SCITEGIC>MOL_PROPERTY
W
SciTegic.value.DoubleValue
-2.833

@<SCITEGIC>MOL_PROPERTY
W(PB)
SciTegic.value.DoubleValue
-4.568

@<SCITEGIC>MOL_PROPERTY
W(SA)
SciTegic.value.DoubleValue
1.735

@<SCITEGIC>MOL_PROPERTY
Valence
SciTegic.value.DoubleValue
13.789

@<SCITEGIC>MOL_PROPERTY
Coulomb
SciTegic.value.DoubleValue
-8.574

@<SCITEGIC>MOL_PROPERTY
VdW
SciTegic.value.DoubleValue
0.628

@<SCITEGIC>MOL_PROPERTY
VdW6
SciTegic.value.DoubleValue
-3.284

@<SCITEGIC>MOL_PROPERTY
VdW12
SciTegic.value.DoubleValue
3.912

@<SCITEGIC>MOL_PROPERTY
Bond
SciTegic.value.DoubleValue
0.054

@<SCITEGIC>MOL_PROPERTY
Angle
SciTegic.value.DoubleValue
4.034

@<SCITEGIC>MOL_PROPERTY
Pdih
SciTegic.value.DoubleValue
9.702

@<SCITEGIC>MOL_PROPERTY
Idih
SciTegic.value.DoubleValue
0.000

@<SCITEGIC>MOL_PROPERTY
Tether
SciTegic.value.DoubleValue
0.000

@<TRIPOS>MOLECULE
guest-4_confgen4.mol2 : confsearch ligand conformer 644
          16          16           1
SMALL
USER_CHARGES
 
@<TRIPOS>ATOM
       1    C1      18.314198   17.804058   22.628118 C.3        1 MOL1        -0.1689
       2    H1      17.232058   17.912680   22.782821 H          1 MOL1         0.0830
       3    H2      18.556154   16.732120   22.633520 H          1 MOL1         0.0830
       4    C2      19.133634   18.523719   23.708090 C.3        1 MOL1        -0.1689
       5    H3      18.657934   19.483688   23.952729 H          1 MOL1         0.0830
       6    H4      19.217706   17.935915   24.632245 H          1 MOL1         0.0830
       7    C3      20.501012   18.779300   23.047765 C.3        1 MOL1        -0.1765
       8    H5      21.168273   17.929386   23.241401 H          1 MOL1         0.0830
       9    H6      20.982532   19.680280   23.450745 H          1 MOL1         0.0830
      10    C4      20.244250   18.881623   21.530069 C.3        1 MOL1         0.1214
      11    H7      20.929443   18.204690   20.999228 H          1 MOL1         0.0787
      12    C5      18.783462   18.437332   21.305482 C.3        1 MOL1        -0.1765
      13    H8      18.152418   19.306449   21.074831 H          1 MOL1         0.0830
      14    H9      18.700868   17.729669   20.470474 H          1 MOL1         0.0830
      15    O1      20.422163   20.223333   21.091824 O.3        1 MOL1        -0.5512
      16    H10     20.236510   20.231670   20.129019 H          1 MOL1         0.3776
@<TRIPOS>BOND
    1     1     2    1
    2     1     3    1
    3     1     4    1
    4     4     5    1
    5     4     6    1
    6     4     7    1
    7     7     8    1
    8     7     9    1
    9     7    10    1
   10    10    11    1
   11     1    12    1
   12    10    12    1
   13    12    13    1
   14    12    14    1
   15    10    15    1
   16    15    16    1
@<TRIPOS>SUBSTRUCTURE
       1 MOL1            1 RESIDUE      1      MOL     
@<SCITEGIC>MOL_PROPERTY
VConf Rank
SciTegic.value.IntegerValue
644

@<SCITEGIC>MOL_PROPERTY
Conf_Id
SciTegic.value.IntegerValue
33

@<SCITEGIC>MOL_PROPERTY
Delta U+W
SciTegic.value.DoubleValue
0.015

@<SCITEGIC>MOL_PROPERTY
U+W
SciTegic.value.DoubleValue
3.025

@<SCITEGIC>MOL_PROPERTY
Grad RMS
SciTegic.value.DoubleValue
0.000000

@<SCITEGIC>MOL_PROPERTY
U
SciTegic.value.DoubleValue
5.843

@<SCITEGIC>MOL_PROPERTY
W
SciTegic.value.DoubleValue
-2.819

@<SCITEGIC>MOL_PROPERTY
W(PB)
SciTegic.value.DoubleValue
-4.568

@<SCITEGIC>MOL_PROPERTY
W(SA)
SciTegic.value.DoubleValue
1.750

@<SCITEGIC>MOL_PROPERTY
Valence
SciTegic.value.DoubleValue
13.789

@<SCITEGIC>MOL_PROPERTY
Coulomb
SciTegic.value.DoubleValue
-8.574

@<SCITEGIC>MOL_PROPERTY
VdW
SciTegic.value.DoubleValue
0.628

@<SCITEGIC>MOL_PROPERTY
VdW6
SciTegic.value.DoubleValue
-3.284

@<SCITEGIC>MOL_PROPERTY
VdW12
SciTegic.value.DoubleValue
3.913

@<SCITEGIC>MOL_PROPERTY
Bond
SciTegic.value.DoubleValue
0.054

@<SCITEGIC>MOL_PROPERTY
Angle
SciTegic.value.DoubleValue
4.033

@<SCITEGIC>MOL_PROPERTY
Pdih
SciTegic.value.DoubleValue
9.702

@<SCITEGIC>MOL_PROPERTY
Idih
SciTegic.value.DoubleValue
0.000

@<SCITEGIC>MOL_PROPERTY
Tether
SciTegic.value.DoubleValue
0.000

@<TRIPOS>MOLECULE
guest-4_confgen4.mol2 : confsearch ligand conformer 645
          16          16           1
SMALL
USER_CHARGES
 
@<TRIPOS>ATOM
       1    C1      20.691295   18.793740   22.422890 C.3        1 MOL1        -0.1689
       2    H1      20.973270   19.818776   22.700413 H          1 MOL1         0.0830
       3    H2      21.611625   18.195417   22.378164 H          1 MOL1         0.0830
       4    C2      19.952330   18.801174   21.066830 C.3        1 MOL1        -0.1689
       5    H3      19.877601   19.829665   20.687557 H          1 MOL1         0.0830
       6    H4      20.485599   18.205883   20.313005 H          1 MOL1         0.0830
       7    C3      18.544329   18.227261   21.332525 C.3        1 MOL1        -0.1765
       8    H5      18.526413   17.161880   21.067455 H          1 MOL1         0.0830
       9    H6      17.770268   18.732215   20.739350 H          1 MOL1         0.0830
      10    C4      18.305165   18.369350   22.841699 C.3        1 MOL1         0.1214
      11    H7      17.611315   17.602584   23.215364 H          1 MOL1         0.0787
      12    C5      19.702501   18.214466   23.456856 C.3        1 MOL1        -0.1765
      13    H8      19.784176   18.709524   24.433713 H          1 MOL1         0.0830
      14    H9      19.910443   17.146564   23.605072 H          1 MOL1         0.0830
      15    O1      17.814972   19.673509   23.116809 O.3        1 MOL1        -0.5512
      16    H10     18.490450   20.281754   22.752213 H          1 MOL1         0.3776
@<TRIPOS>BOND
    1     1     2    1
    2     1     3    1
    3     1     4    1
    4     4     5    1
    5     4     6    1
    6     4     7    1
    7     7     8    1
    8     7     9    1
    9     7    10    1
   10    10    11    1
   11     1    12    1
   12    10    12    1
   13    12    13    1
   14    12    14    1
   15    10    15    1
   16    15    16    1
@<TRIPOS>SUBSTRUCTURE
       1 MOL1            1 RESIDUE      1      MOL     
@<SCITEGIC>MOL_PROPERTY
VConf Rank
SciTegic.value.IntegerValue
645

@<SCITEGIC>MOL_PROPERTY
Conf_Id
SciTegic.value.IntegerValue
20

@<SCITEGIC>MOL_PROPERTY
Delta U+W
SciTegic.value.DoubleValue
-0.483

@<SCITEGIC>MOL_PROPERTY
U+W
SciTegic.value.DoubleValue
2.527

@<SCITEGIC>MOL_PROPERTY
Grad RMS
SciTegic.value.DoubleValue
0.000000

@<SCITEGIC>MOL_PROPERTY
U
SciTegic.value.DoubleValue
4.508

@<SCITEGIC>MOL_PROPERTY
W
SciTegic.value.DoubleValue
-1.981

@<SCITEGIC>MOL_PROPERTY
W(PB)
SciTegic.value.DoubleValue
-3.712

@<SCITEGIC>MOL_PROPERTY
W(SA)
SciTegic.value.DoubleValue
1.732

@<SCITEGIC>MOL_PROPERTY
Valence
SciTegic.value.DoubleValue
14.705

@<SCITEGIC>MOL_PROPERTY
Coulomb
SciTegic.value.DoubleValue
-10.687

@<SCITEGIC>MOL_PROPERTY
VdW
SciTegic.value.DoubleValue
0.490

@<SCITEGIC>MOL_PROPERTY
VdW6
SciTegic.value.DoubleValue
-3.745

@<SCITEGIC>MOL_PROPERTY
VdW12
SciTegic.value.DoubleValue
4.235

@<SCITEGIC>MOL_PROPERTY
Bond
SciTegic.value.DoubleValue
0.068

@<SCITEGIC>MOL_PROPERTY
Angle
SciTegic.value.DoubleValue
3.901

@<SCITEGIC>MOL_PROPERTY
Pdih
SciTegic.value.DoubleValue
10.737

@<SCITEGIC>MOL_PROPERTY
Idih
SciTegic.value.DoubleValue
0.000

@<SCITEGIC>MOL_PROPERTY
Tether
SciTegic.value.DoubleValue
0.000

@<TRIPOS>MOLECULE
guest-4_confgen4.mol2 : confsearch ligand conformer 646
          16          16           1
SMALL
USER_CHARGES
 
@<TRIPOS>ATOM
       1    C1      18.083941   18.754614   21.643306 C.3        1 MOL1        -0.1689
       2    H1      18.086879   18.040331   20.808161 H          1 MOL1         0.0830
       3    H2      17.113483   19.269171   21.652610 H          1 MOL1         0.0830
       4    C2      19.261686   19.727179   21.492428 C.3        1 MOL1        -0.1689
       5    H3      19.423741   20.028607   20.448571 H          1 MOL1         0.0830
       6    H4      19.071963   20.632365   22.085950 H          1 MOL1         0.0830
       7    C3      20.465367   18.964610   22.075692 C.3        1 MOL1        -0.1765
       8    H5      21.208123   19.652102   22.500562 H          1 MOL1         0.0830
       9    H6      20.954441   18.391620   21.276146 H          1 MOL1         0.0830
      10    C4      19.897671   18.010034   23.147226 C.3        1 MOL1         0.1214
      11    H7      20.140859   18.384959   24.152119 H          1 MOL1         0.0787
      12    C5      18.366330   18.008885   22.960605 C.3        1 MOL1        -0.1765
      13    H8      17.948761   16.993262   22.947728 H          1 MOL1         0.0830
      14    H9      17.903466   18.549365   23.796499 H          1 MOL1         0.0830
      15    O1      20.415705   16.698335   22.960210 O.3        1 MOL1        -0.5512
      16    H10     21.387149   16.760095   23.078598 H          1 MOL1         0.3776
@<TRIPOS>BOND
    1     1     2    1
    2     1     3    1
    3     1     4    1
    4     4     5    1
    5     4     6    1
    6     4     7    1
    7     7     8    1
    8     7     9    1
    9     7    10    1
   10    10    11    1
   11     1    12    1
   12    10    12    1
   13    12    13    1
   14    12    14    1
   15    10    15    1
   16    15    16    1
@<TRIPOS>SUBSTRUCTURE
       1 MOL1            1 RESIDUE      1      MOL     
@<SCITEGIC>MOL_PROPERTY
VConf Rank
SciTegic.value.IntegerValue
646

@<SCITEGIC>MOL_PROPERTY
Conf_Id
SciTegic.value.IntegerValue
59

@<SCITEGIC>MOL_PROPERTY
Delta U+W
SciTegic.value.DoubleValue
0.000

@<SCITEGIC>MOL_PROPERTY
U+W
SciTegic.value.DoubleValue
3.010

@<SCITEGIC>MOL_PROPERTY
Grad RMS
SciTegic.value.DoubleValue
0.000000

@<SCITEGIC>MOL_PROPERTY
U
SciTegic.value.DoubleValue
5.843

@<SCITEGIC>MOL_PROPERTY
W
SciTegic.value.DoubleValue
-2.833

@<SCITEGIC>MOL_PROPERTY
W(PB)
SciTegic.value.DoubleValue
-4.568

@<SCITEGIC>MOL_PROPERTY
W(SA)
SciTegic.value.DoubleValue
1.735

@<SCITEGIC>MOL_PROPERTY
Valence
SciTegic.value.DoubleValue
13.789

@<SCITEGIC>MOL_PROPERTY
Coulomb
SciTegic.value.DoubleValue
-8.574

@<SCITEGIC>MOL_PROPERTY
VdW
SciTegic.value.DoubleValue
0.628

@<SCITEGIC>MOL_PROPERTY
VdW6
SciTegic.value.DoubleValue
-3.284

@<SCITEGIC>MOL_PROPERTY
VdW12
SciTegic.value.DoubleValue
3.912

@<SCITEGIC>MOL_PROPERTY
Bond
SciTegic.value.DoubleValue
0.054

@<SCITEGIC>MOL_PROPERTY
Angle
SciTegic.value.DoubleValue
4.034

@<SCITEGIC>MOL_PROPERTY
Pdih
SciTegic.value.DoubleValue
9.702

@<SCITEGIC>MOL_PROPERTY
Idih
SciTegic.value.DoubleValue
0.000

@<SCITEGIC>MOL_PROPERTY
Tether
SciTegic.value.DoubleValue
0.000

@<TRIPOS>MOLECULE
guest-4_confgen4.mol2 : confsearch ligand conformer 647
          16          16           1
SMALL
USER_CHARGES
 
@<TRIPOS>ATOM
       1    C1      20.399691   19.372893   21.528248 C.3        1 MOL1        -0.1689
       2    H1      20.712160   19.505672   20.483503 H          1 MOL1         0.0830
       3    H2      20.903473   20.136417   22.137227 H          1 MOL1         0.0830
       4    C2      20.739637   17.976288   22.066447 C.3        1 MOL1        -0.1689
       5    H3      20.552433   17.225332   21.286255 H          1 MOL1         0.0830
       6    H4      21.788759   17.891734   22.380829 H          1 MOL1         0.0830
       7    C3      19.757562   17.763499   23.233206 C.3        1 MOL1        -0.1765
       8    H5      20.207967   18.129004   24.165207 H          1 MOL1         0.0830
       9    H6      19.519015   16.700578   23.372177 H          1 MOL1         0.0830
      10    C4      18.506309   18.607611   22.914397 C.3        1 MOL1         0.1214
      11    H7      18.264143   19.239919   23.781035 H          1 MOL1         0.0787
      12    C5      18.874464   19.490116   21.703041 C.3        1 MOL1        -0.1765
      13    H8      18.375479   19.120250   20.796954 H          1 MOL1         0.0830
      14    H9      18.567192   20.532823   21.855332 H          1 MOL1         0.0830
      15    O1      17.411928   17.758919   22.588896 O.3        1 MOL1        -0.5512
      16    H10     16.652403   18.344858   22.385605 H          1 MOL1         0.3776
@<TRIPOS>BOND
    1     1     2    1
    2     1     3    1
    3     1     4    1
    4     4     5    1
    5     4     6    1
    6     4     7    1
    7     7     8    1
    8     7     9    1
    9     7    10    1
   10    10    11    1
   11     1    12    1
   12    10    12    1
   13    12    13    1
   14    12    14    1
   15    10    15    1
   16    15    16    1
@<TRIPOS>SUBSTRUCTURE
       1 MOL1            1 RESIDUE      1      MOL     
@<SCITEGIC>MOL_PROPERTY
VConf Rank
SciTegic.value.IntegerValue
647

@<SCITEGIC>MOL_PROPERTY
Conf_Id
SciTegic.value.IntegerValue
33

@<SCITEGIC>MOL_PROPERTY
Delta U+W
SciTegic.value.DoubleValue
0.015

@<SCITEGIC>MOL_PROPERTY
U+W
SciTegic.value.DoubleValue
3.025

@<SCITEGIC>MOL_PROPERTY
Grad RMS
SciTegic.value.DoubleValue
0.000000

@<SCITEGIC>MOL_PROPERTY
U
SciTegic.value.DoubleValue
5.843

@<SCITEGIC>MOL_PROPERTY
W
SciTegic.value.DoubleValue
-2.819

@<SCITEGIC>MOL_PROPERTY
W(PB)
SciTegic.value.DoubleValue
-4.568

@<SCITEGIC>MOL_PROPERTY
W(SA)
SciTegic.value.DoubleValue
1.750

@<SCITEGIC>MOL_PROPERTY
Valence
SciTegic.value.DoubleValue
13.789

@<SCITEGIC>MOL_PROPERTY
Coulomb
SciTegic.value.DoubleValue
-8.574

@<SCITEGIC>MOL_PROPERTY
VdW
SciTegic.value.DoubleValue
0.628

@<SCITEGIC>MOL_PROPERTY
VdW6
SciTegic.value.DoubleValue
-3.284

@<SCITEGIC>MOL_PROPERTY
VdW12
SciTegic.value.DoubleValue
3.913

@<SCITEGIC>MOL_PROPERTY
Bond
SciTegic.value.DoubleValue
0.054

@<SCITEGIC>MOL_PROPERTY
Angle
SciTegic.value.DoubleValue
4.033

@<SCITEGIC>MOL_PROPERTY
Pdih
SciTegic.value.DoubleValue
9.702

@<SCITEGIC>MOL_PROPERTY
Idih
SciTegic.value.DoubleValue
0.000

@<SCITEGIC>MOL_PROPERTY
Tether
SciTegic.value.DoubleValue
0.000

@<TRIPOS>MOLECULE
guest-4_confgen4.mol2 : confsearch ligand conformer 648
          16          16           1
SMALL
USER_CHARGES
 
@<TRIPOS>ATOM
       1    C1      19.898331   17.594648   21.563113 C.3        1 MOL1        -0.1689
       2    H1      20.180073   16.726004   22.174101 H          1 MOL1         0.0830
       3    H2      20.122495   17.351947   20.515332 H          1 MOL1         0.0830
       4    C2      20.674923   18.843157   22.035501 C.3        1 MOL1        -0.1689
       5    H3      21.333287   18.578536   22.874405 H          1 MOL1         0.0830
       6    H4      21.304569   19.254167   21.234491 H          1 MOL1         0.0830
       7    C3      19.616761   19.870153   22.491579 C.3        1 MOL1        -0.1765
       8    H5      19.427670   20.586539   21.681236 H          1 MOL1         0.0830
       9    H6      19.942185   20.439993   23.372140 H          1 MOL1         0.0830
      10    C4      18.334857   19.069808   22.758345 C.3        1 MOL1         0.1214
      11    H7      17.435628   19.685156   22.610976 H          1 MOL1         0.0787
      12    C5      18.400009   17.914555   21.750326 C.3        1 MOL1        -0.1765
      13    H8      17.825897   17.039443   22.082860 H          1 MOL1         0.0830
      14    H9      17.974428   18.250160   20.795406 H          1 MOL1         0.0830
      15    O1      18.378013   18.543288   24.076571 O.3        1 MOL1        -0.5512
      16    H10     19.202624   18.016207   24.113532 H          1 MOL1         0.3776
@<TRIPOS>BOND
    1     1     2    1
    2     1     3    1
    3     1     4    1
    4     4     5    1
    5     4     6    1
    6     4     7    1
    7     7     8    1
    8     7     9    1
    9     7    10    1
   10    10    11    1
   11     1    12    1
   12    10    12    1
   13    12    13    1
   14    12    14    1
   15    10    15    1
   16    15    16    1
@<TRIPOS>SUBSTRUCTURE
       1 MOL1            1 RESIDUE      1      MOL     
@<SCITEGIC>MOL_PROPERTY
VConf Rank
SciTegic.value.IntegerValue
648

@<SCITEGIC>MOL_PROPERTY
Conf_Id
SciTegic.value.IntegerValue
20

@<SCITEGIC>MOL_PROPERTY
Delta U+W
SciTegic.value.DoubleValue
-0.483

@<SCITEGIC>MOL_PROPERTY
U+W
SciTegic.value.DoubleValue
2.527

@<SCITEGIC>MOL_PROPERTY
Grad RMS
SciTegic.value.DoubleValue
0.000000

@<SCITEGIC>MOL_PROPERTY
U
SciTegic.value.DoubleValue
4.508

@<SCITEGIC>MOL_PROPERTY
W
SciTegic.value.DoubleValue
-1.981

@<SCITEGIC>MOL_PROPERTY
W(PB)
SciTegic.value.DoubleValue
-3.712

@<SCITEGIC>MOL_PROPERTY
W(SA)
SciTegic.value.DoubleValue
1.732

@<SCITEGIC>MOL_PROPERTY
Valence
SciTegic.value.DoubleValue
14.705

@<SCITEGIC>MOL_PROPERTY
Coulomb
SciTegic.value.DoubleValue
-10.687

@<SCITEGIC>MOL_PROPERTY
VdW
SciTegic.value.DoubleValue
0.490

@<SCITEGIC>MOL_PROPERTY
VdW6
SciTegic.value.DoubleValue
-3.745

@<SCITEGIC>MOL_PROPERTY
VdW12
SciTegic.value.DoubleValue
4.235

@<SCITEGIC>MOL_PROPERTY
Bond
SciTegic.value.DoubleValue
0.068

@<SCITEGIC>MOL_PROPERTY
Angle
SciTegic.value.DoubleValue
3.901

@<SCITEGIC>MOL_PROPERTY
Pdih
SciTegic.value.DoubleValue
10.737

@<SCITEGIC>MOL_PROPERTY
Idih
SciTegic.value.DoubleValue
0.000

@<SCITEGIC>MOL_PROPERTY
Tether
SciTegic.value.DoubleValue
0.000

@<TRIPOS>MOLECULE
guest-4_confgen4.mol2 : confsearch ligand conformer 649
          16          16           1
SMALL
USER_CHARGES
 
@<TRIPOS>ATOM
       1    C1      20.382873   19.458762   22.809255 C.3        1 MOL1        -0.1689
       2    H1      21.176431   18.804657   23.196669 H          1 MOL1         0.0830
       3    H2      20.717805   20.500458   22.905873 H          1 MOL1         0.0830
       4    C2      19.077390   19.189784   23.570236 C.3        1 MOL1        -0.1689
       5    H3      19.245436   19.024830   24.643227 H          1 MOL1         0.0830
       6    H4      18.399758   20.047390   23.456432 H          1 MOL1         0.0830
       7    C3      18.476016   17.954816   22.874708 C.3        1 MOL1        -0.1765
       8    H5      17.380189   17.952710   22.937985 H          1 MOL1         0.0830
       9    H6      18.844222   17.044882   23.367891 H          1 MOL1         0.0830
      10    C4      18.959553   18.002128   21.409910 C.3        1 MOL1         0.1214
      11    H7      18.131185   18.297341   20.749475 H          1 MOL1         0.0787
      12    C5      20.065161   19.076416   21.351860 C.3        1 MOL1        -0.1765
      13    H8      20.960424   18.724954   20.821766 H          1 MOL1         0.0830
      14    H9      19.683058   19.954676   20.815448 H          1 MOL1         0.0830
      15    O1      19.484064   16.736984   21.024961 O.3        1 MOL1        -0.5512
      16    H10     18.746000   16.094745   21.090715 H          1 MOL1         0.3776
@<TRIPOS>BOND
    1     1     2    1
    2     1     3    1
    3     1     4    1
    4     4     5    1
    5     4     6    1
    6     4     7    1
    7     7     8    1
    8     7     9    1
    9     7    10    1
   10    10    11    1
   11     1    12    1
   12    10    12    1
   13    12    13    1
   14    12    14    1
   15    10    15    1
   16    15    16    1
@<TRIPOS>SUBSTRUCTURE
       1 MOL1            1 RESIDUE      1      MOL     
@<SCITEGIC>MOL_PROPERTY
VConf Rank
SciTegic.value.IntegerValue
649

@<SCITEGIC>MOL_PROPERTY
Conf_Id
SciTegic.value.IntegerValue
59

@<SCITEGIC>MOL_PROPERTY
Delta U+W
SciTegic.value.DoubleValue
0.000

@<SCITEGIC>MOL_PROPERTY
U+W
SciTegic.value.DoubleValue
3.010

@<SCITEGIC>MOL_PROPERTY
Grad RMS
SciTegic.value.DoubleValue
0.000000

@<SCITEGIC>MOL_PROPERTY
U
SciTegic.value.DoubleValue
5.843

@<SCITEGIC>MOL_PROPERTY
W
SciTegic.value.DoubleValue
-2.833

@<SCITEGIC>MOL_PROPERTY
W(PB)
SciTegic.value.DoubleValue
-4.568

@<SCITEGIC>MOL_PROPERTY
W(SA)
SciTegic.value.DoubleValue
1.735

@<SCITEGIC>MOL_PROPERTY
Valence
SciTegic.value.DoubleValue
13.789

@<SCITEGIC>MOL_PROPERTY
Coulomb
SciTegic.value.DoubleValue
-8.574

@<SCITEGIC>MOL_PROPERTY
VdW
SciTegic.value.DoubleValue
0.628

@<SCITEGIC>MOL_PROPERTY
VdW6
SciTegic.value.DoubleValue
-3.284

@<SCITEGIC>MOL_PROPERTY
VdW12
SciTegic.value.DoubleValue
3.912

@<SCITEGIC>MOL_PROPERTY
Bond
SciTegic.value.DoubleValue
0.054

@<SCITEGIC>MOL_PROPERTY
Angle
SciTegic.value.DoubleValue
4.034

@<SCITEGIC>MOL_PROPERTY
Pdih
SciTegic.value.DoubleValue
9.702

@<SCITEGIC>MOL_PROPERTY
Idih
SciTegic.value.DoubleValue
0.000

@<SCITEGIC>MOL_PROPERTY
Tether
SciTegic.value.DoubleValue
0.000

@<TRIPOS>MOLECULE
guest-4_confgen4.mol2 : confsearch ligand conformer 650
          16          16           1
SMALL
USER_CHARGES
 
@<TRIPOS>ATOM
       1    C1      20.805921   19.087530   22.333159 C.3        1 MOL1        -0.1689
       2    H1      21.410223   19.835854   22.863808 H          1 MOL1         0.0830
       3    H2      21.482853   18.457474   21.739516 H          1 MOL1         0.0830
       4    C2      19.758003   19.728864   21.413221 C.3        1 MOL1        -0.1689
       5    H3      19.321958   20.607792   21.908226 H          1 MOL1         0.0830
       6    H4      20.183399   20.050483   20.452886 H          1 MOL1         0.0830
       7    C3      18.678469   18.643967   21.243866 C.3        1 MOL1        -0.1765
       8    H5      18.919311   18.016937   20.375584 H          1 MOL1         0.0830
       9    H6      17.686681   19.083604   21.073294 H          1 MOL1         0.0830
      10    C4      18.723019   17.776398   22.518675 C.3        1 MOL1         0.1214
      11    H7      18.800163   16.716772   22.234493 H          1 MOL1         0.0787
      12    C5      19.985194   18.208463   23.294543 C.3        1 MOL1        -0.1765
      13    H8      19.705637   18.799001   24.177660 H          1 MOL1         0.0830
      14    H9      20.564008   17.341446   23.638204 H          1 MOL1         0.0830
      15    O1      17.560658   18.002891   23.307037 O.3        1 MOL1        -0.5512
      16    H10     17.647118   17.438437   24.104186 H          1 MOL1         0.3776
@<TRIPOS>BOND
    1     1     2    1
    2     1     3    1
    3     1     4    1
    4     4     5    1
    5     4     6    1
    6     4     7    1
    7     7     8    1
    8     7     9    1
    9     7    10    1
   10    10    11    1
   11     1    12    1
   12    10    12    1
   13    12    13    1
   14    12    14    1
   15    10    15    1
   16    15    16    1
@<TRIPOS>SUBSTRUCTURE
       1 MOL1            1 RESIDUE      1      MOL     
@<SCITEGIC>MOL_PROPERTY
VConf Rank
SciTegic.value.IntegerValue
650

@<SCITEGIC>MOL_PROPERTY
Conf_Id
SciTegic.value.IntegerValue
33

@<SCITEGIC>MOL_PROPERTY
Delta U+W
SciTegic.value.DoubleValue
0.015

@<SCITEGIC>MOL_PROPERTY
U+W
SciTegic.value.DoubleValue
3.025

@<SCITEGIC>MOL_PROPERTY
Grad RMS
SciTegic.value.DoubleValue
0.000000

@<SCITEGIC>MOL_PROPERTY
U
SciTegic.value.DoubleValue
5.843

@<SCITEGIC>MOL_PROPERTY
W
SciTegic.value.DoubleValue
-2.819

@<SCITEGIC>MOL_PROPERTY
W(PB)
SciTegic.value.DoubleValue
-4.568

@<SCITEGIC>MOL_PROPERTY
W(SA)
SciTegic.value.DoubleValue
1.750

@<SCITEGIC>MOL_PROPERTY
Valence
SciTegic.value.DoubleValue
13.789

@<SCITEGIC>MOL_PROPERTY
Coulomb
SciTegic.value.DoubleValue
-8.574

@<SCITEGIC>MOL_PROPERTY
VdW
SciTegic.value.DoubleValue
0.628

@<SCITEGIC>MOL_PROPERTY
VdW6
SciTegic.value.DoubleValue
-3.284

@<SCITEGIC>MOL_PROPERTY
VdW12
SciTegic.value.DoubleValue
3.913

@<SCITEGIC>MOL_PROPERTY
Bond
SciTegic.value.DoubleValue
0.054

@<SCITEGIC>MOL_PROPERTY
Angle
SciTegic.value.DoubleValue
4.033

@<SCITEGIC>MOL_PROPERTY
Pdih
SciTegic.value.DoubleValue
9.702

@<SCITEGIC>MOL_PROPERTY
Idih
SciTegic.value.DoubleValue
0.000

@<SCITEGIC>MOL_PROPERTY
Tether
SciTegic.value.DoubleValue
0.000

@<TRIPOS>MOLECULE
guest-4_confgen4.mol2 : confsearch ligand conformer 651
          16          16           1
SMALL
USER_CHARGES
 
@<TRIPOS>ATOM
       1    C1      20.706265   18.520944   22.142732 C.3        1 MOL1        -0.1689
       2    H1      21.247891   19.430299   22.437592 H          1 MOL1         0.0830
       3    H2      21.451625   17.771165   21.843957 H          1 MOL1         0.0830
       4    C2      19.729820   18.841682   20.990037 C.3        1 MOL1        -0.1689
       5    H3      19.799639   19.906015   20.726318 H          1 MOL1         0.0830
       6    H4      19.963786   18.258909   20.088574 H          1 MOL1         0.0830
       7    C3      18.314548   18.513237   21.511156 C.3        1 MOL1        -0.1765
       8    H5      18.019552   17.513372   21.166383 H          1 MOL1         0.0830
       9    H6      17.561975   19.226764   21.149883 H          1 MOL1         0.0830
      10    C4      18.417248   18.502183   23.042274 C.3        1 MOL1         0.1214
      11    H7      17.666159   17.837848   23.493392 H          1 MOL1         0.0787
      12    C5      19.844476   18.009564   23.316686 C.3        1 MOL1        -0.1765
      13    H8      20.222311   18.350457   24.289844 H          1 MOL1         0.0830
      14    H9      19.847633   16.911579   23.323056 H          1 MOL1         0.0830
      15    O1      18.278482   19.828739   23.529923 O.3        1 MOL1        -0.5512
      16    H10     18.980343   20.341006   23.078107 H          1 MOL1         0.3776
@<TRIPOS>BOND
    1     1     2    1
    2     1     3    1
    3     1     4    1
    4     4     5    1
    5     4     6    1
    6     4     7    1
    7     7     8    1
    8     7     9    1
    9     7    10    1
   10    10    11    1
   11     1    12    1
   12    10    12    1
   13    12    13    1
   14    12    14    1
   15    10    15    1
   16    15    16    1
@<TRIPOS>SUBSTRUCTURE
       1 MOL1            1 RESIDUE      1      MOL     
@<SCITEGIC>MOL_PROPERTY
VConf Rank
SciTegic.value.IntegerValue
651

@<SCITEGIC>MOL_PROPERTY
Conf_Id
SciTegic.value.IntegerValue
20

@<SCITEGIC>MOL_PROPERTY
Delta U+W
SciTegic.value.DoubleValue
-0.483

@<SCITEGIC>MOL_PROPERTY
U+W
SciTegic.value.DoubleValue
2.527

@<SCITEGIC>MOL_PROPERTY
Grad RMS
SciTegic.value.DoubleValue
0.000000

@<SCITEGIC>MOL_PROPERTY
U
SciTegic.value.DoubleValue
4.508

@<SCITEGIC>MOL_PROPERTY
W
SciTegic.value.DoubleValue
-1.981

@<SCITEGIC>MOL_PROPERTY
W(PB)
SciTegic.value.DoubleValue
-3.712

@<SCITEGIC>MOL_PROPERTY
W(SA)
SciTegic.value.DoubleValue
1.732

@<SCITEGIC>MOL_PROPERTY
Valence
SciTegic.value.DoubleValue
14.705

@<SCITEGIC>MOL_PROPERTY
Coulomb
SciTegic.value.DoubleValue
-10.687

@<SCITEGIC>MOL_PROPERTY
VdW
SciTegic.value.DoubleValue
0.490

@<SCITEGIC>MOL_PROPERTY
VdW6
SciTegic.value.DoubleValue
-3.745

@<SCITEGIC>MOL_PROPERTY
VdW12
SciTegic.value.DoubleValue
4.235

@<SCITEGIC>MOL_PROPERTY
Bond
SciTegic.value.DoubleValue
0.068

@<SCITEGIC>MOL_PROPERTY
Angle
SciTegic.value.DoubleValue
3.901

@<SCITEGIC>MOL_PROPERTY
Pdih
SciTegic.value.DoubleValue
10.737

@<SCITEGIC>MOL_PROPERTY
Idih
SciTegic.value.DoubleValue
0.000

@<SCITEGIC>MOL_PROPERTY
Tether
SciTegic.value.DoubleValue
0.000

@<TRIPOS>MOLECULE
guest-4_confgen4.mol2 : confsearch ligand conformer 652
          16          16           1
SMALL
USER_CHARGES
 
@<TRIPOS>ATOM
       1    C1      19.176037   17.148058   22.636059 C.3        1 MOL1        -0.1689
       2    H1      18.955956   16.662597   21.675034 H          1 MOL1         0.0830
       3    H2      19.221115   16.371394   23.411563 H          1 MOL1         0.0830
       4    C2      18.108684   18.210585   22.931899 C.3        1 MOL1        -0.1689
       5    H3      17.100544   17.881376   22.645483 H          1 MOL1         0.0830
       6    H4      18.102965   18.439557   24.006685 H          1 MOL1         0.0830
       7    C3      18.568799   19.447131   22.138296 C.3        1 MOL1        -0.1765
       8    H5      18.242834   20.377575   22.620858 H          1 MOL1         0.0830
       9    H6      18.129360   19.417067   21.131929 H          1 MOL1         0.0830
      10    C4      20.107302   19.361269   22.052766 C.3        1 MOL1         0.1214
      11    H7      20.563568   20.102467   22.725051 H          1 MOL1         0.0787
      12    C5      20.490086   17.942843   22.523273 C.3        1 MOL1        -0.1765
      13    H8      21.200273   17.455241   21.842170 H          1 MOL1         0.0830
      14    H9      20.966294   18.009409   23.510125 H          1 MOL1         0.0830
      15    O1      20.536641   19.565992   20.712003 O.3        1 MOL1        -0.5512
      16    H10     20.259107   20.472972   20.463215 H          1 MOL1         0.3776
@<TRIPOS>BOND
    1     1     2    1
    2     1     3    1
    3     1     4    1
    4     4     5    1
    5     4     6    1
    6     4     7    1
    7     7     8    1
    8     7     9    1
    9     7    10    1
   10    10    11    1
   11     1    12    1
   12    10    12    1
   13    12    13    1
   14    12    14    1
   15    10    15    1
   16    15    16    1
@<TRIPOS>SUBSTRUCTURE
       1 MOL1            1 RESIDUE      1      MOL     
@<SCITEGIC>MOL_PROPERTY
VConf Rank
SciTegic.value.IntegerValue
652

@<SCITEGIC>MOL_PROPERTY
Conf_Id
SciTegic.value.IntegerValue
59

@<SCITEGIC>MOL_PROPERTY
Delta U+W
SciTegic.value.DoubleValue
0.000

@<SCITEGIC>MOL_PROPERTY
U+W
SciTegic.value.DoubleValue
3.010

@<SCITEGIC>MOL_PROPERTY
Grad RMS
SciTegic.value.DoubleValue
0.000000

@<SCITEGIC>MOL_PROPERTY
U
SciTegic.value.DoubleValue
5.843

@<SCITEGIC>MOL_PROPERTY
W
SciTegic.value.DoubleValue
-2.833

@<SCITEGIC>MOL_PROPERTY
W(PB)
SciTegic.value.DoubleValue
-4.568

@<SCITEGIC>MOL_PROPERTY
W(SA)
SciTegic.value.DoubleValue
1.735

@<SCITEGIC>MOL_PROPERTY
Valence
SciTegic.value.DoubleValue
13.789

@<SCITEGIC>MOL_PROPERTY
Coulomb
SciTegic.value.DoubleValue
-8.574

@<SCITEGIC>MOL_PROPERTY
VdW
SciTegic.value.DoubleValue
0.628

@<SCITEGIC>MOL_PROPERTY
VdW6
SciTegic.value.DoubleValue
-3.284

@<SCITEGIC>MOL_PROPERTY
VdW12
SciTegic.value.DoubleValue
3.912

@<SCITEGIC>MOL_PROPERTY
Bond
SciTegic.value.DoubleValue
0.054

@<SCITEGIC>MOL_PROPERTY
Angle
SciTegic.value.DoubleValue
4.034

@<SCITEGIC>MOL_PROPERTY
Pdih
SciTegic.value.DoubleValue
9.702

@<SCITEGIC>MOL_PROPERTY
Idih
SciTegic.value.DoubleValue
0.000

@<SCITEGIC>MOL_PROPERTY
Tether
SciTegic.value.DoubleValue
0.000

@<TRIPOS>MOLECULE
guest-4_confgen4.mol2 : confsearch ligand conformer 653
          16          16           1
SMALL
USER_CHARGES
 
@<TRIPOS>ATOM
       1    C1      19.469884   20.045657   22.366995 C.3        1 MOL1        -0.1689
       2    H1      20.026635   20.846406   22.872552 H          1 MOL1         0.0830
       3    H2      18.805256   20.506239   21.622848 H          1 MOL1         0.0830
       4    C2      18.642363   19.201718   23.346130 C.3        1 MOL1        -0.1689
       5    H3      19.216303   19.040187   24.269266 H          1 MOL1         0.0830
       6    H4      17.690369   19.680850   23.612178 H          1 MOL1         0.0830
       7    C3      18.441621   17.857726   22.621930 C.3        1 MOL1        -0.1765
       8    H5      17.521710   17.895172   22.024062 H          1 MOL1         0.0830
       9    H6      18.344255   17.026119   23.332542 H          1 MOL1         0.0830
      10    C4      19.648634   17.682522   21.677356 C.3        1 MOL1         0.1214
      11    H7      19.286955   17.453177   20.664385 H          1 MOL1         0.0787
      12    C5      20.399847   19.030637   21.677420 C.3        1 MOL1        -0.1765
      13    H8      21.333567   18.946092   22.249960 H          1 MOL1         0.0830
      14    H9      20.656609   19.349434   20.658946 H          1 MOL1         0.0830
      15    O1      20.498930   16.646733   22.154886 O.3        1 MOL1        -0.5512
      16    H10     21.249679   16.587240   21.526901 H          1 MOL1         0.3776
@<TRIPOS>BOND
    1     1     2    1
    2     1     3    1
    3     1     4    1
    4     4     5    1
    5     4     6    1
    6     4     7    1
    7     7     8    1
    8     7     9    1
    9     7    10    1
   10    10    11    1
   11     1    12    1
   12    10    12    1
   13    12    13    1
   14    12    14    1
   15    10    15    1
   16    15    16    1
@<TRIPOS>SUBSTRUCTURE
       1 MOL1            1 RESIDUE      1      MOL     
@<SCITEGIC>MOL_PROPERTY
VConf Rank
SciTegic.value.IntegerValue
653

@<SCITEGIC>MOL_PROPERTY
Conf_Id
SciTegic.value.IntegerValue
33

@<SCITEGIC>MOL_PROPERTY
Delta U+W
SciTegic.value.DoubleValue
0.015

@<SCITEGIC>MOL_PROPERTY
U+W
SciTegic.value.DoubleValue
3.025

@<SCITEGIC>MOL_PROPERTY
Grad RMS
SciTegic.value.DoubleValue
0.000000

@<SCITEGIC>MOL_PROPERTY
U
SciTegic.value.DoubleValue
5.843

@<SCITEGIC>MOL_PROPERTY
W
SciTegic.value.DoubleValue
-2.819

@<SCITEGIC>MOL_PROPERTY
W(PB)
SciTegic.value.DoubleValue
-4.568

@<SCITEGIC>MOL_PROPERTY
W(SA)
SciTegic.value.DoubleValue
1.750

@<SCITEGIC>MOL_PROPERTY
Valence
SciTegic.value.DoubleValue
13.789

@<SCITEGIC>MOL_PROPERTY
Coulomb
SciTegic.value.DoubleValue
-8.574

@<SCITEGIC>MOL_PROPERTY
VdW
SciTegic.value.DoubleValue
0.628

@<SCITEGIC>MOL_PROPERTY
VdW6
SciTegic.value.DoubleValue
-3.284

@<SCITEGIC>MOL_PROPERTY
VdW12
SciTegic.value.DoubleValue
3.913

@<SCITEGIC>MOL_PROPERTY
Bond
SciTegic.value.DoubleValue
0.054

@<SCITEGIC>MOL_PROPERTY
Angle
SciTegic.value.DoubleValue
4.033

@<SCITEGIC>MOL_PROPERTY
Pdih
SciTegic.value.DoubleValue
9.702

@<SCITEGIC>MOL_PROPERTY
Idih
SciTegic.value.DoubleValue
0.000

@<SCITEGIC>MOL_PROPERTY
Tether
SciTegic.value.DoubleValue
0.000

@<TRIPOS>MOLECULE
guest-4_confgen4.mol2 : confsearch ligand conformer 654
          16          16           1
SMALL
USER_CHARGES
 
@<TRIPOS>ATOM
       1    C1      20.393448   19.365628   22.686694 C.3        1 MOL1        -0.1689
       2    H1      21.291295   18.798600   22.968789 H          1 MOL1         0.0830
       3    H2      20.613644   20.432180   22.831531 H          1 MOL1         0.0830
       4    C2      19.193747   18.911569   23.546675 C.3        1 MOL1        -0.1689
       5    H3      19.511204   18.125552   24.245692 H          1 MOL1         0.0830
       6    H4      18.785722   19.740871   24.140623 H          1 MOL1         0.0830
       7    C3      18.137162   18.358635   22.566711 C.3        1 MOL1        -0.1765
       8    H5      17.389263   19.134798   22.357333 H          1 MOL1         0.0830
       9    H6      17.608462   17.486225   22.973384 H          1 MOL1         0.0830
      10    C4      18.890265   18.029780   21.270685 C.3        1 MOL1         0.1214
      11    H7      18.233263   18.100517   20.391864 H          1 MOL1         0.0787
      12    C5      20.016256   19.071152   21.219258 C.3        1 MOL1        -0.1765
      13    H8      20.875949   18.725502   20.629802 H          1 MOL1         0.0830
      14    H9      19.634253   19.986324   20.747923 H          1 MOL1         0.0830
      15    O1      19.457728   16.732195   21.375886 O.3        1 MOL1        -0.5512
      16    H10     20.020091   16.764236   22.177063 H          1 MOL1         0.3776
@<TRIPOS>BOND
    1     1     2    1
    2     1     3    1
    3     1     4    1
    4     4     5    1
    5     4     6    1
    6     4     7    1
    7     7     8    1
    8     7     9    1
    9     7    10    1
   10    10    11    1
   11     1    12    1
   12    10    12    1
   13    12    13    1
   14    12    14    1
   15    10    15    1
   16    15    16    1
@<TRIPOS>SUBSTRUCTURE
       1 MOL1            1 RESIDUE      1      MOL     
@<SCITEGIC>MOL_PROPERTY
VConf Rank
SciTegic.value.IntegerValue
654

@<SCITEGIC>MOL_PROPERTY
Conf_Id
SciTegic.value.IntegerValue
20

@<SCITEGIC>MOL_PROPERTY
Delta U+W
SciTegic.value.DoubleValue
-0.483

@<SCITEGIC>MOL_PROPERTY
U+W
SciTegic.value.DoubleValue
2.527

@<SCITEGIC>MOL_PROPERTY
Grad RMS
SciTegic.value.DoubleValue
0.000000

@<SCITEGIC>MOL_PROPERTY
U
SciTegic.value.DoubleValue
4.508

@<SCITEGIC>MOL_PROPERTY
W
SciTegic.value.DoubleValue
-1.981

@<SCITEGIC>MOL_PROPERTY
W(PB)
SciTegic.value.DoubleValue
-3.712

@<SCITEGIC>MOL_PROPERTY
W(SA)
SciTegic.value.DoubleValue
1.732

@<SCITEGIC>MOL_PROPERTY
Valence
SciTegic.value.DoubleValue
14.705

@<SCITEGIC>MOL_PROPERTY
Coulomb
SciTegic.value.DoubleValue
-10.687

@<SCITEGIC>MOL_PROPERTY
VdW
SciTegic.value.DoubleValue
0.490

@<SCITEGIC>MOL_PROPERTY
VdW6
SciTegic.value.DoubleValue
-3.745

@<SCITEGIC>MOL_PROPERTY
VdW12
SciTegic.value.DoubleValue
4.235

@<SCITEGIC>MOL_PROPERTY
Bond
SciTegic.value.DoubleValue
0.068

@<SCITEGIC>MOL_PROPERTY
Angle
SciTegic.value.DoubleValue
3.901

@<SCITEGIC>MOL_PROPERTY
Pdih
SciTegic.value.DoubleValue
10.737

@<SCITEGIC>MOL_PROPERTY
Idih
SciTegic.value.DoubleValue
0.000

@<SCITEGIC>MOL_PROPERTY
Tether
SciTegic.value.DoubleValue
0.000

@<TRIPOS>MOLECULE
guest-4_confgen4.mol2 : confsearch ligand conformer 655
          16          16           1
SMALL
USER_CHARGES
 
@<TRIPOS>ATOM
       1    C1      18.798492   19.178348   21.126352 C.3        1 MOL1        -0.1689
       2    H1      19.260744   18.648185   20.282003 H          1 MOL1         0.0830
       3    H2      18.078885   19.904439   20.724355 H          1 MOL1         0.0830
       4    C2      19.890160   19.843665   21.975671 C.3        1 MOL1        -0.1689
       5    H3      20.689791   20.279793   21.361552 H          1 MOL1         0.0830
       6    H4      19.448199   20.645084   22.583965 H          1 MOL1         0.0830
       7    C3      20.402930   18.717112   22.891369 C.3        1 MOL1        -0.1765
       8    H5      20.774445   19.113323   23.845224 H          1 MOL1         0.0830
       9    H6      21.233540   18.196069   22.396003 H          1 MOL1         0.0830
      10    C4      19.216168   17.753143   23.101227 C.3        1 MOL1         0.1214
      11    H7      18.812283   17.869099   24.117568 H          1 MOL1         0.0787
      12    C5      18.138700   18.160745   22.075188 C.3        1 MOL1        -0.1765
      13    H8      17.737590   17.297875   21.526929 H          1 MOL1         0.0830
      14    H9      17.303253   18.637832   22.603865 H          1 MOL1         0.0830
      15    O1      19.627919   16.410628   22.873184 O.3        1 MOL1        -0.5512
      16    H10     20.316468   16.210193   23.541957 H          1 MOL1         0.3776
@<TRIPOS>BOND
    1     1     2    1
    2     1     3    1
    3     1     4    1
    4     4     5    1
    5     4     6    1
    6     4     7    1
    7     7     8    1
    8     7     9    1
    9     7    10    1
   10    10    11    1
   11     1    12    1
   12    10    12    1
   13    12    13    1
   14    12    14    1
   15    10    15    1
   16    15    16    1
@<TRIPOS>SUBSTRUCTURE
       1 MOL1            1 RESIDUE      1      MOL     
@<SCITEGIC>MOL_PROPERTY
VConf Rank
SciTegic.value.IntegerValue
655

@<SCITEGIC>MOL_PROPERTY
Conf_Id
SciTegic.value.IntegerValue
59

@<SCITEGIC>MOL_PROPERTY
Delta U+W
SciTegic.value.DoubleValue
0.000

@<SCITEGIC>MOL_PROPERTY
U+W
SciTegic.value.DoubleValue
3.010

@<SCITEGIC>MOL_PROPERTY
Grad RMS
SciTegic.value.DoubleValue
0.000000

@<SCITEGIC>MOL_PROPERTY
U
SciTegic.value.DoubleValue
5.843

@<SCITEGIC>MOL_PROPERTY
W
SciTegic.value.DoubleValue
-2.833

@<SCITEGIC>MOL_PROPERTY
W(PB)
SciTegic.value.DoubleValue
-4.568

@<SCITEGIC>MOL_PROPERTY
W(SA)
SciTegic.value.DoubleValue
1.735

@<SCITEGIC>MOL_PROPERTY
Valence
SciTegic.value.DoubleValue
13.789

@<SCITEGIC>MOL_PROPERTY
Coulomb
SciTegic.value.DoubleValue
-8.574

@<SCITEGIC>MOL_PROPERTY
VdW
SciTegic.value.DoubleValue
0.628

@<SCITEGIC>MOL_PROPERTY
VdW6
SciTegic.value.DoubleValue
-3.284

@<SCITEGIC>MOL_PROPERTY
VdW12
SciTegic.value.DoubleValue
3.912

@<SCITEGIC>MOL_PROPERTY
Bond
SciTegic.value.DoubleValue
0.054

@<SCITEGIC>MOL_PROPERTY
Angle
SciTegic.value.DoubleValue
4.034

@<SCITEGIC>MOL_PROPERTY
Pdih
SciTegic.value.DoubleValue
9.702

@<SCITEGIC>MOL_PROPERTY
Idih
SciTegic.value.DoubleValue
0.000

@<SCITEGIC>MOL_PROPERTY
Tether
SciTegic.value.DoubleValue
0.000

@<TRIPOS>MOLECULE
guest-4_confgen4.mol2 : confsearch ligand conformer 656
          16          16           1
SMALL
USER_CHARGES
 
@<TRIPOS>ATOM
       1    C1      19.350743   19.843455   21.561361 C.3        1 MOL1        -0.1689
       2    H1      18.611371   20.627816   21.349547 H          1 MOL1         0.0830
       3    H2      20.324466   20.175907   21.175405 H          1 MOL1         0.0830
       4    C2      18.974544   18.498853   20.923987 C.3        1 MOL1        -0.1689
       5    H3      17.890972   18.339133   21.013649 H          1 MOL1         0.0830
       6    H4      19.242819   18.449279   19.859932 H          1 MOL1         0.0830
       7    C3      19.721938   17.449945   21.767948 C.3        1 MOL1        -0.1765
       8    H5      20.715015   17.269413   21.336333 H          1 MOL1         0.0830
       9    H6      19.187109   16.490989   21.787458 H          1 MOL1         0.0830
      10    C4      19.888397   18.056335   23.176629 C.3        1 MOL1         0.1214
      11    H7      20.943704   17.988944   23.478796 H          1 MOL1         0.0787
      12    C5      19.464132   19.536012   23.065765 C.3        1 MOL1        -0.1765
      13    H8      18.486180   19.688351   23.542403 H          1 MOL1         0.0830
      14    H9      20.186068   20.200627   23.557641 H          1 MOL1         0.0830
      15    O1      19.054136   17.374757   24.105798 O.3        1 MOL1        -0.5512
      16    H10     19.191021   17.806097   24.975705 H          1 MOL1         0.3776
@<TRIPOS>BOND
    1     1     2    1
    2     1     3    1
    3     1     4    1
    4     4     5    1
    5     4     6    1
    6     4     7    1
    7     7     8    1
    8     7     9    1
    9     7    10    1
   10    10    11    1
   11     1    12    1
   12    10    12    1
   13    12    13    1
   14    12    14    1
   15    10    15    1
   16    15    16    1
@<TRIPOS>SUBSTRUCTURE
       1 MOL1            1 RESIDUE      1      MOL     
@<SCITEGIC>MOL_PROPERTY
VConf Rank
SciTegic.value.IntegerValue
656

@<SCITEGIC>MOL_PROPERTY
Conf_Id
SciTegic.value.IntegerValue
33

@<SCITEGIC>MOL_PROPERTY
Delta U+W
SciTegic.value.DoubleValue
0.015

@<SCITEGIC>MOL_PROPERTY
U+W
SciTegic.value.DoubleValue
3.025

@<SCITEGIC>MOL_PROPERTY
Grad RMS
SciTegic.value.DoubleValue
0.000000

@<SCITEGIC>MOL_PROPERTY
U
SciTegic.value.DoubleValue
5.843

@<SCITEGIC>MOL_PROPERTY
W
SciTegic.value.DoubleValue
-2.819

@<SCITEGIC>MOL_PROPERTY
W(PB)
SciTegic.value.DoubleValue
-4.568

@<SCITEGIC>MOL_PROPERTY
W(SA)
SciTegic.value.DoubleValue
1.750

@<SCITEGIC>MOL_PROPERTY
Valence
SciTegic.value.DoubleValue
13.789

@<SCITEGIC>MOL_PROPERTY
Coulomb
SciTegic.value.DoubleValue
-8.574

@<SCITEGIC>MOL_PROPERTY
VdW
SciTegic.value.DoubleValue
0.628

@<SCITEGIC>MOL_PROPERTY
VdW6
SciTegic.value.DoubleValue
-3.284

@<SCITEGIC>MOL_PROPERTY
VdW12
SciTegic.value.DoubleValue
3.913

@<SCITEGIC>MOL_PROPERTY
Bond
SciTegic.value.DoubleValue
0.054

@<SCITEGIC>MOL_PROPERTY
Angle
SciTegic.value.DoubleValue
4.033

@<SCITEGIC>MOL_PROPERTY
Pdih
SciTegic.value.DoubleValue
9.702

@<SCITEGIC>MOL_PROPERTY
Idih
SciTegic.value.DoubleValue
0.000

@<SCITEGIC>MOL_PROPERTY
Tether
SciTegic.value.DoubleValue
0.000

@<TRIPOS>MOLECULE
guest-4_confgen4.mol2 : confsearch ligand conformer 657
          16          16           1
SMALL
USER_CHARGES
 
@<TRIPOS>ATOM
       1    C1      20.131922   19.704044   22.401260 C.3        1 MOL1        -0.1689
       2    H1      19.877362   20.317143   23.276780 H          1 MOL1         0.0830
       3    H2      20.978070   20.185347   21.891969 H          1 MOL1         0.0830
       4    C2      18.904950   19.581041   21.471513 C.3        1 MOL1        -0.1689
       5    H3      18.056897   20.135476   21.896525 H          1 MOL1         0.0830
       6    H4      19.109608   19.997098   20.475515 H          1 MOL1         0.0830
       7    C3      18.569544   18.076828   21.386175 C.3        1 MOL1        -0.1765
       8    H5      19.007309   17.654649   20.471983 H          1 MOL1         0.0830
       9    H6      17.487357   17.892826   21.354238 H          1 MOL1         0.0830
      10    C4      19.234566   17.423171   22.604973 C.3        1 MOL1         0.1214
      11    H7      19.485594   16.370086   22.412674 H          1 MOL1         0.0787
      12    C5      20.492622   18.269423   22.841847 C.3        1 MOL1        -0.1765
      13    H8      20.831840   18.227365   23.885478 H          1 MOL1         0.0830
      14    H9      21.304850   17.885134   22.210792 H          1 MOL1         0.0830
      15    O1      18.372919   17.541762   23.727607 O.3        1 MOL1        -0.5512
      16    H10     18.206343   18.502371   23.820585 H          1 MOL1         0.3776
@<TRIPOS>BOND
    1     1     2    1
    2     1     3    1
    3     1     4    1
    4     4     5    1
    5     4     6    1
    6     4     7    1
    7     7     8    1
    8     7     9    1
    9     7    10    1
   10    10    11    1
   11     1    12    1
   12    10    12    1
   13    12    13    1
   14    12    14    1
   15    10    15    1
   16    15    16    1
@<TRIPOS>SUBSTRUCTURE
       1 MOL1            1 RESIDUE      1      MOL     
@<SCITEGIC>MOL_PROPERTY
VConf Rank
SciTegic.value.IntegerValue
657

@<SCITEGIC>MOL_PROPERTY
Conf_Id
SciTegic.value.IntegerValue
20

@<SCITEGIC>MOL_PROPERTY
Delta U+W
SciTegic.value.DoubleValue
-0.483

@<SCITEGIC>MOL_PROPERTY
U+W
SciTegic.value.DoubleValue
2.527

@<SCITEGIC>MOL_PROPERTY
Grad RMS
SciTegic.value.DoubleValue
0.000000

@<SCITEGIC>MOL_PROPERTY
U
SciTegic.value.DoubleValue
4.508

@<SCITEGIC>MOL_PROPERTY
W
SciTegic.value.DoubleValue
-1.981

@<SCITEGIC>MOL_PROPERTY
W(PB)
SciTegic.value.DoubleValue
-3.712

@<SCITEGIC>MOL_PROPERTY
W(SA)
SciTegic.value.DoubleValue
1.732

@<SCITEGIC>MOL_PROPERTY
Valence
SciTegic.value.DoubleValue
14.705

@<SCITEGIC>MOL_PROPERTY
Coulomb
SciTegic.value.DoubleValue
-10.687

@<SCITEGIC>MOL_PROPERTY
VdW
SciTegic.value.DoubleValue
0.490

@<SCITEGIC>MOL_PROPERTY
VdW6
SciTegic.value.DoubleValue
-3.745

@<SCITEGIC>MOL_PROPERTY
VdW12
SciTegic.value.DoubleValue
4.235

@<SCITEGIC>MOL_PROPERTY
Bond
SciTegic.value.DoubleValue
0.068

@<SCITEGIC>MOL_PROPERTY
Angle
SciTegic.value.DoubleValue
3.901

@<SCITEGIC>MOL_PROPERTY
Pdih
SciTegic.value.DoubleValue
10.737

@<SCITEGIC>MOL_PROPERTY
Idih
SciTegic.value.DoubleValue
0.000

@<SCITEGIC>MOL_PROPERTY
Tether
SciTegic.value.DoubleValue
0.000

@<TRIPOS>MOLECULE
guest-4_confgen4.mol2 : confsearch ligand conformer 658
          16          16           1
SMALL
USER_CHARGES
 
@<TRIPOS>ATOM
       1    C1      20.386347   18.290817   23.307681 C.3        1 MOL1        -0.1689
       2    H1      20.746189   17.277141   23.082620 H          1 MOL1         0.0830
       3    H2      20.984142   18.691866   24.137407 H          1 MOL1         0.0830
       4    C2      18.887403   18.243788   23.634303 C.3        1 MOL1        -0.1689
       5    H3      18.618485   17.366231   24.237905 H          1 MOL1         0.0830
       6    H4      18.602446   19.145853   24.193503 H          1 MOL1         0.0830
       7    C3      18.195453   18.243238   22.258889 C.3        1 MOL1        -0.1765
       8    H5      17.204562   18.712868   22.308181 H          1 MOL1         0.0830
       9    H6      18.061194   17.206870   21.920215 H          1 MOL1         0.0830
      10    C4      19.135693   19.002009   21.298736 C.3        1 MOL1         0.1214
      11    H7      18.722568   19.996406   21.075082 H          1 MOL1         0.0787
      12    C5      20.477780   19.163257   22.042130 C.3        1 MOL1        -0.1765
      13    H8      21.336403   18.881557   21.418085 H          1 MOL1         0.0830
      14    H9      20.604267   20.215479   22.328332 H          1 MOL1         0.0830
      15    O1      19.323838   18.254396   20.103092 O.3        1 MOL1        -0.5512
      16    H10     18.442796   18.173759   19.680250 H          1 MOL1         0.3776
@<TRIPOS>BOND
    1     1     2    1
    2     1     3    1
    3     1     4    1
    4     4     5    1
    5     4     6    1
    6     4     7    1
    7     7     8    1
    8     7     9    1
    9     7    10    1
   10    10    11    1
   11     1    12    1
   12    10    12    1
   13    12    13    1
   14    12    14    1
   15    10    15    1
   16    15    16    1
@<TRIPOS>SUBSTRUCTURE
       1 MOL1            1 RESIDUE      1      MOL     
@<SCITEGIC>MOL_PROPERTY
VConf Rank
SciTegic.value.IntegerValue
658

@<SCITEGIC>MOL_PROPERTY
Conf_Id
SciTegic.value.IntegerValue
59

@<SCITEGIC>MOL_PROPERTY
Delta U+W
SciTegic.value.DoubleValue
0.000

@<SCITEGIC>MOL_PROPERTY
U+W
SciTegic.value.DoubleValue
3.010

@<SCITEGIC>MOL_PROPERTY
Grad RMS
SciTegic.value.DoubleValue
0.000000

@<SCITEGIC>MOL_PROPERTY
U
SciTegic.value.DoubleValue
5.843

@<SCITEGIC>MOL_PROPERTY
W
SciTegic.value.DoubleValue
-2.833

@<SCITEGIC>MOL_PROPERTY
W(PB)
SciTegic.value.DoubleValue
-4.568

@<SCITEGIC>MOL_PROPERTY
W(SA)
SciTegic.value.DoubleValue
1.735

@<SCITEGIC>MOL_PROPERTY
Valence
SciTegic.value.DoubleValue
13.789

@<SCITEGIC>MOL_PROPERTY
Coulomb
SciTegic.value.DoubleValue
-8.574

@<SCITEGIC>MOL_PROPERTY
VdW
SciTegic.value.DoubleValue
0.628

@<SCITEGIC>MOL_PROPERTY
VdW6
SciTegic.value.DoubleValue
-3.284

@<SCITEGIC>MOL_PROPERTY
VdW12
SciTegic.value.DoubleValue
3.912

@<SCITEGIC>MOL_PROPERTY
Bond
SciTegic.value.DoubleValue
0.054

@<SCITEGIC>MOL_PROPERTY
Angle
SciTegic.value.DoubleValue
4.034

@<SCITEGIC>MOL_PROPERTY
Pdih
SciTegic.value.DoubleValue
9.702

@<SCITEGIC>MOL_PROPERTY
Idih
SciTegic.value.DoubleValue
0.000

@<SCITEGIC>MOL_PROPERTY
Tether
SciTegic.value.DoubleValue
0.000

@<TRIPOS>MOLECULE
guest-4_confgen4.mol2 : confsearch ligand conformer 659
          16          16           1
SMALL
USER_CHARGES
 
@<TRIPOS>ATOM
       1    C1      18.526437   19.708797   22.255121 C.3        1 MOL1        -0.1689
       2    H1      18.513573   20.793927   22.425663 H          1 MOL1         0.0830
       3    H2      17.557020   19.416621   21.827938 H          1 MOL1         0.0830
       4    C2      18.781429   18.917848   23.545511 C.3        1 MOL1        -0.1689
       5    H3      19.536437   19.436771   24.152437 H          1 MOL1         0.0830
       6    H4      17.873240   18.800797   24.152253 H          1 MOL1         0.0830
       7    C3      19.345092   17.567900   23.064887 C.3        1 MOL1        -0.1765
       8    H5      18.521084   16.860249   22.905748 H          1 MOL1         0.0830
       9    H6      20.025359   17.126980   23.805728 H          1 MOL1         0.0830
      10    C4      20.043646   17.838062   21.716246 C.3        1 MOL1         0.1214
      11    H7      19.672752   17.124878   20.965696 H          1 MOL1         0.0787
      12    C5      19.663186   19.277604   21.310407 C.3        1 MOL1        -0.1765
      13    H8      20.521407   19.950199   21.444027 H          1 MOL1         0.0830
      14    H9      19.353024   19.331673   20.258874 H          1 MOL1         0.0830
      15    O1      21.454220   17.726071   21.863339 O.3        1 MOL1        -0.5512
      16    H10     21.844711   17.917536   20.984483 H          1 MOL1         0.3776
@<TRIPOS>BOND
    1     1     2    1
    2     1     3    1
    3     1     4    1
    4     4     5    1
    5     4     6    1
    6     4     7    1
    7     7     8    1
    8     7     9    1
    9     7    10    1
   10    10    11    1
   11     1    12    1
   12    10    12    1
   13    12    13    1
   14    12    14    1
   15    10    15    1
   16    15    16    1
@<TRIPOS>SUBSTRUCTURE
       1 MOL1            1 RESIDUE      1      MOL     
@<SCITEGIC>MOL_PROPERTY
VConf Rank
SciTegic.value.IntegerValue
659

@<SCITEGIC>MOL_PROPERTY
Conf_Id
SciTegic.value.IntegerValue
33

@<SCITEGIC>MOL_PROPERTY
Delta U+W
SciTegic.value.DoubleValue
0.015

@<SCITEGIC>MOL_PROPERTY
U+W
SciTegic.value.DoubleValue
3.025

@<SCITEGIC>MOL_PROPERTY
Grad RMS
SciTegic.value.DoubleValue
0.000000

@<SCITEGIC>MOL_PROPERTY
U
SciTegic.value.DoubleValue
5.843

@<SCITEGIC>MOL_PROPERTY
W
SciTegic.value.DoubleValue
-2.819

@<SCITEGIC>MOL_PROPERTY
W(PB)
SciTegic.value.DoubleValue
-4.568

@<SCITEGIC>MOL_PROPERTY
W(SA)
SciTegic.value.DoubleValue
1.750

@<SCITEGIC>MOL_PROPERTY
Valence
SciTegic.value.DoubleValue
13.789

@<SCITEGIC>MOL_PROPERTY
Coulomb
SciTegic.value.DoubleValue
-8.574

@<SCITEGIC>MOL_PROPERTY
VdW
SciTegic.value.DoubleValue
0.628

@<SCITEGIC>MOL_PROPERTY
VdW6
SciTegic.value.DoubleValue
-3.284

@<SCITEGIC>MOL_PROPERTY
VdW12
SciTegic.value.DoubleValue
3.913

@<SCITEGIC>MOL_PROPERTY
Bond
SciTegic.value.DoubleValue
0.054

@<SCITEGIC>MOL_PROPERTY
Angle
SciTegic.value.DoubleValue
4.033

@<SCITEGIC>MOL_PROPERTY
Pdih
SciTegic.value.DoubleValue
9.702

@<SCITEGIC>MOL_PROPERTY
Idih
SciTegic.value.DoubleValue
0.000

@<SCITEGIC>MOL_PROPERTY
Tether
SciTegic.value.DoubleValue
0.000

@<TRIPOS>MOLECULE
guest-4_confgen4.mol2 : confsearch ligand conformer 660
          16          16           1
SMALL
USER_CHARGES
 
@<TRIPOS>ATOM
       1    C1      18.109201   18.229336   22.086588 C.3        1 MOL1        -0.1689
       2    H1      17.448661   18.462980   22.932948 H          1 MOL1         0.0830
       3    H2      17.499070   17.746315   21.311071 H          1 MOL1         0.0830
       4    C2      19.260343   17.313110   22.556081 C.3        1 MOL1        -0.1689
       5    H3      19.156333   17.102467   23.629411 H          1 MOL1         0.0830
       6    H4      19.252985   16.351168   22.025408 H          1 MOL1         0.0830
       7    C3      20.570382   18.084261   22.288575 C.3        1 MOL1        -0.1765
       8    H5      21.006764   17.747755   21.338862 H          1 MOL1         0.0830
       9    H6      21.317905   17.920750   23.076280 H          1 MOL1         0.0830
      10    C4      20.175360   19.561540   22.159733 C.3        1 MOL1         0.1214
      11    H7      20.876801   20.113410   21.517547 H          1 MOL1         0.0787
      12    C5      18.766931   19.519232   21.551874 C.3        1 MOL1        -0.1765
      13    H8      18.181913   20.416323   21.794745 H          1 MOL1         0.0830
      14    H9      18.851991   19.461671   20.458680 H          1 MOL1         0.0830
      15    O1      20.108951   20.142501   23.453905 O.3        1 MOL1        -0.5512
      16    H10     19.468160   19.590943   23.948205 H          1 MOL1         0.3776
@<TRIPOS>BOND
    1     1     2    1
    2     1     3    1
    3     1     4    1
    4     4     5    1
    5     4     6    1
    6     4     7    1
    7     7     8    1
    8     7     9    1
    9     7    10    1
   10    10    11    1
   11     1    12    1
   12    10    12    1
   13    12    13    1
   14    12    14    1
   15    10    15    1
   16    15    16    1
@<TRIPOS>SUBSTRUCTURE
       1 MOL1            1 RESIDUE      1      MOL     
@<SCITEGIC>MOL_PROPERTY
VConf Rank
SciTegic.value.IntegerValue
660

@<SCITEGIC>MOL_PROPERTY
Conf_Id
SciTegic.value.IntegerValue
20

@<SCITEGIC>MOL_PROPERTY
Delta U+W
SciTegic.value.DoubleValue
-0.483

@<SCITEGIC>MOL_PROPERTY
U+W
SciTegic.value.DoubleValue
2.527

@<SCITEGIC>MOL_PROPERTY
Grad RMS
SciTegic.value.DoubleValue
0.000000

@<SCITEGIC>MOL_PROPERTY
U
SciTegic.value.DoubleValue
4.508

@<SCITEGIC>MOL_PROPERTY
W
SciTegic.value.DoubleValue
-1.981

@<SCITEGIC>MOL_PROPERTY
W(PB)
SciTegic.value.DoubleValue
-3.712

@<SCITEGIC>MOL_PROPERTY
W(SA)
SciTegic.value.DoubleValue
1.732

@<SCITEGIC>MOL_PROPERTY
Valence
SciTegic.value.DoubleValue
14.705

@<SCITEGIC>MOL_PROPERTY
Coulomb
SciTegic.value.DoubleValue
-10.687

@<SCITEGIC>MOL_PROPERTY
VdW
SciTegic.value.DoubleValue
0.490

@<SCITEGIC>MOL_PROPERTY
VdW6
SciTegic.value.DoubleValue
-3.745

@<SCITEGIC>MOL_PROPERTY
VdW12
SciTegic.value.DoubleValue
4.235

@<SCITEGIC>MOL_PROPERTY
Bond
SciTegic.value.DoubleValue
0.068

@<SCITEGIC>MOL_PROPERTY
Angle
SciTegic.value.DoubleValue
3.901

@<SCITEGIC>MOL_PROPERTY
Pdih
SciTegic.value.DoubleValue
10.737

@<SCITEGIC>MOL_PROPERTY
Idih
SciTegic.value.DoubleValue
0.000

@<SCITEGIC>MOL_PROPERTY
Tether
SciTegic.value.DoubleValue
0.000

@<TRIPOS>MOLECULE
guest-4_confgen4.mol2 : confsearch ligand conformer 661
          16          16           1
SMALL
USER_CHARGES
 
@<TRIPOS>ATOM
       1    C1      20.129523   18.611487   23.545136 C.3        1 MOL1        -0.1689
       2    H1      19.915749   17.663907   24.059013 H          1 MOL1         0.0830
       3    H2      20.866799   19.167075   24.140442 H          1 MOL1         0.0830
       4    C2      18.824769   19.395337   23.347844 C.3        1 MOL1        -0.1689
       5    H3      18.158879   19.324529   24.218668 H          1 MOL1         0.0830
       6    H4      19.053384   20.456305   23.175487 H          1 MOL1         0.0830
       7    C3      18.198940   18.784755   22.080529 C.3        1 MOL1        -0.1765
       8    H5      17.588511   19.519957   21.540436 H          1 MOL1         0.0830
       9    H6      17.546424   17.947917   22.364621 H          1 MOL1         0.0830
      10    C4      19.372996   18.277953   21.216571 C.3        1 MOL1         0.1214
      11    H7      19.521039   18.944540   20.354443 H          1 MOL1         0.0787
      12    C5      20.625390   18.322693   22.116205 C.3        1 MOL1        -0.1765
      13    H8      21.205250   17.391214   22.070043 H          1 MOL1         0.0830
      14    H9      21.278148   19.139035   21.780683 H          1 MOL1         0.0830
      15    O1      19.125787   16.944867   20.785691 O.3        1 MOL1        -0.5512
      16    H10     18.317977   16.973963   20.230598 H          1 MOL1         0.3776
@<TRIPOS>BOND
    1     1     2    1
    2     1     3    1
    3     1     4    1
    4     4     5    1
    5     4     6    1
    6     4     7    1
    7     7     8    1
    8     7     9    1
    9     7    10    1
   10    10    11    1
   11     1    12    1
   12    10    12    1
   13    12    13    1
   14    12    14    1
   15    10    15    1
   16    15    16    1
@<TRIPOS>SUBSTRUCTURE
       1 MOL1            1 RESIDUE      1      MOL     
@<SCITEGIC>MOL_PROPERTY
VConf Rank
SciTegic.value.IntegerValue
661

@<SCITEGIC>MOL_PROPERTY
Conf_Id
SciTegic.value.IntegerValue
59

@<SCITEGIC>MOL_PROPERTY
Delta U+W
SciTegic.value.DoubleValue
0.000

@<SCITEGIC>MOL_PROPERTY
U+W
SciTegic.value.DoubleValue
3.010

@<SCITEGIC>MOL_PROPERTY
Grad RMS
SciTegic.value.DoubleValue
0.000000

@<SCITEGIC>MOL_PROPERTY
U
SciTegic.value.DoubleValue
5.843

@<SCITEGIC>MOL_PROPERTY
W
SciTegic.value.DoubleValue
-2.833

@<SCITEGIC>MOL_PROPERTY
W(PB)
SciTegic.value.DoubleValue
-4.568

@<SCITEGIC>MOL_PROPERTY
W(SA)
SciTegic.value.DoubleValue
1.735

@<SCITEGIC>MOL_PROPERTY
Valence
SciTegic.value.DoubleValue
13.789

@<SCITEGIC>MOL_PROPERTY
Coulomb
SciTegic.value.DoubleValue
-8.574

@<SCITEGIC>MOL_PROPERTY
VdW
SciTegic.value.DoubleValue
0.628

@<SCITEGIC>MOL_PROPERTY
VdW6
SciTegic.value.DoubleValue
-3.284

@<SCITEGIC>MOL_PROPERTY
VdW12
SciTegic.value.DoubleValue
3.912

@<SCITEGIC>MOL_PROPERTY
Bond
SciTegic.value.DoubleValue
0.054

@<SCITEGIC>MOL_PROPERTY
Angle
SciTegic.value.DoubleValue
4.034

@<SCITEGIC>MOL_PROPERTY
Pdih
SciTegic.value.DoubleValue
9.702

@<SCITEGIC>MOL_PROPERTY
Idih
SciTegic.value.DoubleValue
0.000

@<SCITEGIC>MOL_PROPERTY
Tether
SciTegic.value.DoubleValue
0.000

@<TRIPOS>MOLECULE
guest-4_confgen4.mol2 : confsearch ligand conformer 662
          16          16           1
SMALL
USER_CHARGES
 
@<TRIPOS>ATOM
       1    C1      18.539185   18.274031   21.237474 C.3        1 MOL1        -0.1689
       2    H1      17.585078   18.621650   20.818428 H          1 MOL1         0.0830
       3    H2      18.948380   17.504511   20.568131 H          1 MOL1         0.0830
       4    C2      18.380628   17.697438   22.651025 C.3        1 MOL1        -0.1689
       5    H3      17.664743   18.307442   23.219428 H          1 MOL1         0.0830
       6    H4      18.018747   16.660317   22.642930 H          1 MOL1         0.0830
       7    C3      19.780669   17.826433   23.278975 C.3        1 MOL1        -0.1765
       8    H5      20.361040   16.917179   23.075234 H          1 MOL1         0.0830
       9    H6      19.725187   17.949811   24.368800 H          1 MOL1         0.0830
      10    C4      20.463885   19.024623   22.588066 C.3        1 MOL1         0.1214
      11    H7      21.453318   18.716067   22.220188 H          1 MOL1         0.0787
      12    C5      19.557943   19.416723   21.401785 C.3        1 MOL1        -0.1765
      13    H8      19.023674   20.350684   21.623267 H          1 MOL1         0.0830
      14    H9      20.139530   19.570628   20.483681 H          1 MOL1         0.0830
      15    O1      20.581490   20.113019   23.496615 O.3        1 MOL1        -0.5512
      16    H10     21.009121   20.845356   23.004331 H          1 MOL1         0.3776
@<TRIPOS>BOND
    1     1     2    1
    2     1     3    1
    3     1     4    1
    4     4     5    1
    5     4     6    1
    6     4     7    1
    7     7     8    1
    8     7     9    1
    9     7    10    1
   10    10    11    1
   11     1    12    1
   12    10    12    1
   13    12    13    1
   14    12    14    1
   15    10    15    1
   16    15    16    1
@<TRIPOS>SUBSTRUCTURE
       1 MOL1            1 RESIDUE      1      MOL     
@<SCITEGIC>MOL_PROPERTY
VConf Rank
SciTegic.value.IntegerValue
662

@<SCITEGIC>MOL_PROPERTY
Conf_Id
SciTegic.value.IntegerValue
33

@<SCITEGIC>MOL_PROPERTY
Delta U+W
SciTegic.value.DoubleValue
0.015

@<SCITEGIC>MOL_PROPERTY
U+W
SciTegic.value.DoubleValue
3.025

@<SCITEGIC>MOL_PROPERTY
Grad RMS
SciTegic.value.DoubleValue
0.000000

@<SCITEGIC>MOL_PROPERTY
U
SciTegic.value.DoubleValue
5.843

@<SCITEGIC>MOL_PROPERTY
W
SciTegic.value.DoubleValue
-2.819

@<SCITEGIC>MOL_PROPERTY
W(PB)
SciTegic.value.DoubleValue
-4.568

@<SCITEGIC>MOL_PROPERTY
W(SA)
SciTegic.value.DoubleValue
1.750

@<SCITEGIC>MOL_PROPERTY
Valence
SciTegic.value.DoubleValue
13.789

@<SCITEGIC>MOL_PROPERTY
Coulomb
SciTegic.value.DoubleValue
-8.574

@<SCITEGIC>MOL_PROPERTY
VdW
SciTegic.value.DoubleValue
0.628

@<SCITEGIC>MOL_PROPERTY
VdW6
SciTegic.value.DoubleValue
-3.284

@<SCITEGIC>MOL_PROPERTY
VdW12
SciTegic.value.DoubleValue
3.913

@<SCITEGIC>MOL_PROPERTY
Bond
SciTegic.value.DoubleValue
0.054

@<SCITEGIC>MOL_PROPERTY
Angle
SciTegic.value.DoubleValue
4.033

@<SCITEGIC>MOL_PROPERTY
Pdih
SciTegic.value.DoubleValue
9.702

@<SCITEGIC>MOL_PROPERTY
Idih
SciTegic.value.DoubleValue
0.000

@<SCITEGIC>MOL_PROPERTY
Tether
SciTegic.value.DoubleValue
0.000

@<TRIPOS>MOLECULE
guest-4_confgen4.mol2 : confsearch ligand conformer 663
          16          16           1
SMALL
USER_CHARGES
 
@<TRIPOS>ATOM
       1    C1      18.929141   17.591129   21.520089 C.3        1 MOL1        -0.1689
       2    H1      18.396282   17.893667   20.608080 H          1 MOL1         0.0830
       3    H2      18.949250   16.492975   21.545588 H          1 MOL1         0.0830
       4    C2      18.219462   18.175079   22.761209 C.3        1 MOL1        -0.1689
       5    H3      17.342549   18.759342   22.449942 H          1 MOL1         0.0830
       6    H4      17.869222   17.382387   23.436465 H          1 MOL1         0.0830
       7    C3      19.246698   19.088328   23.463490 C.3        1 MOL1        -0.1765
       8    H5      19.722241   18.539920   24.287339 H          1 MOL1         0.0830
       9    H6      18.782264   19.989314   23.886019 H          1 MOL1         0.0830
      10    C4      20.309660   19.422610   22.408331 C.3        1 MOL1         0.1214
      11    H7      21.286103   19.630139   22.869279 H          1 MOL1         0.0787
      12    C5      20.358963   18.172478   21.519681 C.3        1 MOL1        -0.1765
      13    H8      20.716925   18.396560   20.505948 H          1 MOL1         0.0830
      14    H9      21.050730   17.445418   21.965173 H          1 MOL1         0.0830
      15    O1      19.869101   20.529165   21.634865 O.3        1 MOL1        -0.5512
      16    H10     19.003162   20.255251   21.268418 H          1 MOL1         0.3776
@<TRIPOS>BOND
    1     1     2    1
    2     1     3    1
    3     1     4    1
    4     4     5    1
    5     4     6    1
    6     4     7    1
    7     7     8    1
    8     7     9    1
    9     7    10    1
   10    10    11    1
   11     1    12    1
   12    10    12    1
   13    12    13    1
   14    12    14    1
   15    10    15    1
   16    15    16    1
@<TRIPOS>SUBSTRUCTURE
       1 MOL1            1 RESIDUE      1      MOL     
@<SCITEGIC>MOL_PROPERTY
VConf Rank
SciTegic.value.IntegerValue
663

@<SCITEGIC>MOL_PROPERTY
Conf_Id
SciTegic.value.IntegerValue
20

@<SCITEGIC>MOL_PROPERTY
Delta U+W
SciTegic.value.DoubleValue
-0.483

@<SCITEGIC>MOL_PROPERTY
U+W
SciTegic.value.DoubleValue
2.527

@<SCITEGIC>MOL_PROPERTY
Grad RMS
SciTegic.value.DoubleValue
0.000000

@<SCITEGIC>MOL_PROPERTY
U
SciTegic.value.DoubleValue
4.508

@<SCITEGIC>MOL_PROPERTY
W
SciTegic.value.DoubleValue
-1.981

@<SCITEGIC>MOL_PROPERTY
W(PB)
SciTegic.value.DoubleValue
-3.712

@<SCITEGIC>MOL_PROPERTY
W(SA)
SciTegic.value.DoubleValue
1.732

@<SCITEGIC>MOL_PROPERTY
Valence
SciTegic.value.DoubleValue
14.705

@<SCITEGIC>MOL_PROPERTY
Coulomb
SciTegic.value.DoubleValue
-10.687

@<SCITEGIC>MOL_PROPERTY
VdW
SciTegic.value.DoubleValue
0.490

@<SCITEGIC>MOL_PROPERTY
VdW6
SciTegic.value.DoubleValue
-3.745

@<SCITEGIC>MOL_PROPERTY
VdW12
SciTegic.value.DoubleValue
4.235

@<SCITEGIC>MOL_PROPERTY
Bond
SciTegic.value.DoubleValue
0.068

@<SCITEGIC>MOL_PROPERTY
Angle
SciTegic.value.DoubleValue
3.901

@<SCITEGIC>MOL_PROPERTY
Pdih
SciTegic.value.DoubleValue
10.737

@<SCITEGIC>MOL_PROPERTY
Idih
SciTegic.value.DoubleValue
0.000

@<SCITEGIC>MOL_PROPERTY
Tether
SciTegic.value.DoubleValue
0.000

@<TRIPOS>MOLECULE
guest-4_confgen4.mol2 : confsearch ligand conformer 664
          16          16           1
SMALL
USER_CHARGES
 
@<TRIPOS>ATOM
       1    C1      19.947927   19.868232   22.511287 C.3        1 MOL1        -0.1689
       2    H1      20.198184   20.221900   21.501353 H          1 MOL1         0.0830
       3    H2      20.192247   20.666105   23.225675 H          1 MOL1         0.0830
       4    C2      20.707554   18.566958   22.803487 C.3        1 MOL1        -0.1689
       5    H3      21.734617   18.586112   22.414215 H          1 MOL1         0.0830
       6    H4      20.754534   18.402123   23.888958 H          1 MOL1         0.0830
       7    C3      19.852273   17.468259   22.146285 C.3        1 MOL1        -0.1765
       8    H5      19.956583   16.510414   22.672116 H          1 MOL1         0.0830
       9    H6      20.183560   17.321671   21.109200 H          1 MOL1         0.0830
      10    C4      18.395100   17.975676   22.175502 C.3        1 MOL1         0.1214
      11    H7      17.820925   17.427629   22.936742 H          1 MOL1         0.0787
      12    C5      18.462148   19.467187   22.563747 C.3        1 MOL1        -0.1765
      13    H8      17.849829   20.097315   21.904942 H          1 MOL1         0.0830
      14    H9      18.083804   19.588021   23.587142 H          1 MOL1         0.0830
      15    O1      17.798374   17.829033   20.892419 O.3        1 MOL1        -0.5512
      16    H10     17.791908   16.868899   20.693340 H          1 MOL1         0.3776
@<TRIPOS>BOND
    1     1     2    1
    2     1     3    1
    3     1     4    1
    4     4     5    1
    5     4     6    1
    6     4     7    1
    7     7     8    1
    8     7     9    1
    9     7    10    1
   10    10    11    1
   11     1    12    1
   12    10    12    1
   13    12    13    1
   14    12    14    1
   15    10    15    1
   16    15    16    1
@<TRIPOS>SUBSTRUCTURE
       1 MOL1            1 RESIDUE      1      MOL     
@<SCITEGIC>MOL_PROPERTY
VConf Rank
SciTegic.value.IntegerValue
664

@<SCITEGIC>MOL_PROPERTY
Conf_Id
SciTegic.value.IntegerValue
59

@<SCITEGIC>MOL_PROPERTY
Delta U+W
SciTegic.value.DoubleValue
0.000

@<SCITEGIC>MOL_PROPERTY
U+W
SciTegic.value.DoubleValue
3.010

@<SCITEGIC>MOL_PROPERTY
Grad RMS
SciTegic.value.DoubleValue
0.000000

@<SCITEGIC>MOL_PROPERTY
U
SciTegic.value.DoubleValue
5.843

@<SCITEGIC>MOL_PROPERTY
W
SciTegic.value.DoubleValue
-2.833

@<SCITEGIC>MOL_PROPERTY
W(PB)
SciTegic.value.DoubleValue
-4.568

@<SCITEGIC>MOL_PROPERTY
W(SA)
SciTegic.value.DoubleValue
1.735

@<SCITEGIC>MOL_PROPERTY
Valence
SciTegic.value.DoubleValue
13.789

@<SCITEGIC>MOL_PROPERTY
Coulomb
SciTegic.value.DoubleValue
-8.574

@<SCITEGIC>MOL_PROPERTY
VdW
SciTegic.value.DoubleValue
0.628

@<SCITEGIC>MOL_PROPERTY
VdW6
SciTegic.value.DoubleValue
-3.284

@<SCITEGIC>MOL_PROPERTY
VdW12
SciTegic.value.DoubleValue
3.912

@<SCITEGIC>MOL_PROPERTY
Bond
SciTegic.value.DoubleValue
0.054

@<SCITEGIC>MOL_PROPERTY
Angle
SciTegic.value.DoubleValue
4.034

@<SCITEGIC>MOL_PROPERTY
Pdih
SciTegic.value.DoubleValue
9.702

@<SCITEGIC>MOL_PROPERTY
Idih
SciTegic.value.DoubleValue
0.000

@<SCITEGIC>MOL_PROPERTY
Tether
SciTegic.value.DoubleValue
0.000

@<TRIPOS>MOLECULE
guest-4_confgen4.mol2 : confsearch ligand conformer 665
          16          16           1
SMALL
USER_CHARGES
 
@<TRIPOS>ATOM
       1    C1      18.469552   17.589215   22.071749 C.3        1 MOL1        -0.1689
       2    H1      18.167617   16.620069   22.491690 H          1 MOL1         0.0830
       3    H2      17.715000   17.893686   21.333121 H          1 MOL1         0.0830
       4    C2      19.850875   17.531932   21.405121 C.3        1 MOL1        -0.1689
       5    H3      20.524094   16.904782   22.006068 H          1 MOL1         0.0830
       6    H4      19.809433   17.116769   20.388969 H          1 MOL1         0.0830
       7    C3      20.348847   18.988885   21.424809 C.3        1 MOL1        -0.1765
       8    H5      20.031162   19.499262   20.506290 H          1 MOL1         0.0830
       9    H6      21.444710   19.040996   21.473672 H          1 MOL1         0.0830
      10    C4      19.675792   19.667394   22.635767 C.3        1 MOL1         0.1214
      11    H7      19.195310   20.600949   22.308458 H          1 MOL1         0.0787
      12    C5      18.610121   18.677529   23.151760 C.3        1 MOL1        -0.1765
      13    H8      18.942630   18.215933   24.091520 H          1 MOL1         0.0830
      14    H9      17.652593   19.179011   23.342812 H          1 MOL1         0.0830
      15    O1      20.638371   19.925638   23.650977 O.3        1 MOL1        -0.5512
      16    H10     20.156510   20.343861   24.395577 H          1 MOL1         0.3776
@<TRIPOS>BOND
    1     1     2    1
    2     1     3    1
    3     1     4    1
    4     4     5    1
    5     4     6    1
    6     4     7    1
    7     7     8    1
    8     7     9    1
    9     7    10    1
   10    10    11    1
   11     1    12    1
   12    10    12    1
   13    12    13    1
   14    12    14    1
   15    10    15    1
   16    15    16    1
@<TRIPOS>SUBSTRUCTURE
       1 MOL1            1 RESIDUE      1      MOL     
@<SCITEGIC>MOL_PROPERTY
VConf Rank
SciTegic.value.IntegerValue
665

@<SCITEGIC>MOL_PROPERTY
Conf_Id
SciTegic.value.IntegerValue
33

@<SCITEGIC>MOL_PROPERTY
Delta U+W
SciTegic.value.DoubleValue
0.015

@<SCITEGIC>MOL_PROPERTY
U+W
SciTegic.value.DoubleValue
3.025

@<SCITEGIC>MOL_PROPERTY
Grad RMS
SciTegic.value.DoubleValue
0.000000

@<SCITEGIC>MOL_PROPERTY
U
SciTegic.value.DoubleValue
5.843

@<SCITEGIC>MOL_PROPERTY
W
SciTegic.value.DoubleValue
-2.819

@<SCITEGIC>MOL_PROPERTY
W(PB)
SciTegic.value.DoubleValue
-4.568

@<SCITEGIC>MOL_PROPERTY
W(SA)
SciTegic.value.DoubleValue
1.750

@<SCITEGIC>MOL_PROPERTY
Valence
SciTegic.value.DoubleValue
13.789

@<SCITEGIC>MOL_PROPERTY
Coulomb
SciTegic.value.DoubleValue
-8.574

@<SCITEGIC>MOL_PROPERTY
VdW
SciTegic.value.DoubleValue
0.628

@<SCITEGIC>MOL_PROPERTY
VdW6
SciTegic.value.DoubleValue
-3.284

@<SCITEGIC>MOL_PROPERTY
VdW12
SciTegic.value.DoubleValue
3.913

@<SCITEGIC>MOL_PROPERTY
Bond
SciTegic.value.DoubleValue
0.054

@<SCITEGIC>MOL_PROPERTY
Angle
SciTegic.value.DoubleValue
4.033

@<SCITEGIC>MOL_PROPERTY
Pdih
SciTegic.value.DoubleValue
9.702

@<SCITEGIC>MOL_PROPERTY
Idih
SciTegic.value.DoubleValue
0.000

@<SCITEGIC>MOL_PROPERTY
Tether
SciTegic.value.DoubleValue
0.000

@<TRIPOS>MOLECULE
guest-4_confgen4.mol2 : confsearch ligand conformer 666
          16          16           1
SMALL
USER_CHARGES
 
@<TRIPOS>ATOM
       1    C1      18.865536   19.822893   22.485175 C.3        1 MOL1        -0.1689
       2    H1      17.848550   19.813214   22.900954 H          1 MOL1         0.0830
       3    H2      19.177480   20.872167   22.391841 H          1 MOL1         0.0830
       4    C2      18.881491   19.102074   21.119456 C.3        1 MOL1        -0.1689
       5    H3      17.872040   18.744475   20.873778 H          1 MOL1         0.0830
       6    H4      19.202771   19.774038   20.311840 H          1 MOL1         0.0830
       7    C3      19.849047   17.908410   21.265866 C.3        1 MOL1        -0.1765
       8    H5      20.833781   18.183113   20.865293 H          1 MOL1         0.0830
       9    H6      19.501595   17.021502   20.719352 H          1 MOL1         0.0830
      10    C4      19.978850   17.648736   22.772754 C.3        1 MOL1         0.1214
      11    H7      20.948774   17.195372   23.023136 H          1 MOL1         0.0787
      12    C5      19.824997   19.038449   23.405197 C.3        1 MOL1        -0.1765
      13    H8      19.460252   18.986614   24.439740 H          1 MOL1         0.0830
      14    H9      20.804934   19.533524   23.420842 H          1 MOL1         0.0830
      15    O1      18.907169   16.819871   23.198535 O.3        1 MOL1        -0.5512
      16    H10     18.094485   17.299312   22.936155 H          1 MOL1         0.3776
@<TRIPOS>BOND
    1     1     2    1
    2     1     3    1
    3     1     4    1
    4     4     5    1
    5     4     6    1
    6     4     7    1
    7     7     8    1
    8     7     9    1
    9     7    10    1
   10    10    11    1
   11     1    12    1
   12    10    12    1
   13    12    13    1
   14    12    14    1
   15    10    15    1
   16    15    16    1
@<TRIPOS>SUBSTRUCTURE
       1 MOL1            1 RESIDUE      1      MOL     
@<SCITEGIC>MOL_PROPERTY
VConf Rank
SciTegic.value.IntegerValue
666

@<SCITEGIC>MOL_PROPERTY
Conf_Id
SciTegic.value.IntegerValue
20

@<SCITEGIC>MOL_PROPERTY
Delta U+W
SciTegic.value.DoubleValue
-0.483

@<SCITEGIC>MOL_PROPERTY
U+W
SciTegic.value.DoubleValue
2.527

@<SCITEGIC>MOL_PROPERTY
Grad RMS
SciTegic.value.DoubleValue
0.000000

@<SCITEGIC>MOL_PROPERTY
U
SciTegic.value.DoubleValue
4.508

@<SCITEGIC>MOL_PROPERTY
W
SciTegic.value.DoubleValue
-1.981

@<SCITEGIC>MOL_PROPERTY
W(PB)
SciTegic.value.DoubleValue
-3.712

@<SCITEGIC>MOL_PROPERTY
W(SA)
SciTegic.value.DoubleValue
1.732

@<SCITEGIC>MOL_PROPERTY
Valence
SciTegic.value.DoubleValue
14.705

@<SCITEGIC>MOL_PROPERTY
Coulomb
SciTegic.value.DoubleValue
-10.687

@<SCITEGIC>MOL_PROPERTY
VdW
SciTegic.value.DoubleValue
0.490

@<SCITEGIC>MOL_PROPERTY
VdW6
SciTegic.value.DoubleValue
-3.745

@<SCITEGIC>MOL_PROPERTY
VdW12
SciTegic.value.DoubleValue
4.235

@<SCITEGIC>MOL_PROPERTY
Bond
SciTegic.value.DoubleValue
0.068

@<SCITEGIC>MOL_PROPERTY
Angle
SciTegic.value.DoubleValue
3.901

@<SCITEGIC>MOL_PROPERTY
Pdih
SciTegic.value.DoubleValue
10.737

@<SCITEGIC>MOL_PROPERTY
Idih
SciTegic.value.DoubleValue
0.000

@<SCITEGIC>MOL_PROPERTY
Tether
SciTegic.value.DoubleValue
0.000

@<TRIPOS>MOLECULE
guest-4_confgen4.mol2 : confsearch ligand conformer 667
          16          16           1
SMALL
USER_CHARGES
 
@<TRIPOS>ATOM
       1    C1      18.084007   19.251853   22.254637 C.3        1 MOL1        -0.1689
       2    H1      17.704440   19.239030   23.285870 H          1 MOL1         0.0830
       3    H2      17.380583   19.825718   21.636157 H          1 MOL1         0.0830
       4    C2      18.264038   17.811863   21.754893 C.3        1 MOL1        -0.1689
       5    H3      17.451359   17.150341   22.084589 H          1 MOL1         0.0830
       6    H4      18.290497   17.802422   20.656331 H          1 MOL1         0.0830
       7    C3      19.632947   17.381115   22.312656 C.3        1 MOL1        -0.1765
       8    H5      20.115530   16.639642   21.662904 H          1 MOL1         0.0830
       9    H6      19.494557   16.923742   23.301819 H          1 MOL1         0.0830
      10    C4      20.478217   18.666830   22.431550 C.3        1 MOL1         0.1214
      11    H7      21.241260   18.690141   21.639881 H          1 MOL1         0.0787
      12    C5      19.504125   19.846850   22.235257 C.3        1 MOL1        -0.1765
      13    H8      19.628202   20.621947   23.003275 H          1 MOL1         0.0830
      14    H9      19.695956   20.310753   21.259001 H          1 MOL1         0.0830
      15    O1      21.083800   18.739120   23.716825 O.3        1 MOL1        -0.5512
      16    H10     21.680050   17.964168   23.790764 H          1 MOL1         0.3776
@<TRIPOS>BOND
    1     1     2    1
    2     1     3    1
    3     1     4    1
    4     4     5    1
    5     4     6    1
    6     4     7    1
    7     7     8    1
    8     7     9    1
    9     7    10    1
   10    10    11    1
   11     1    12    1
   12    10    12    1
   13    12    13    1
   14    12    14    1
   15    10    15    1
   16    15    16    1
@<TRIPOS>SUBSTRUCTURE
       1 MOL1            1 RESIDUE      1      MOL     
@<SCITEGIC>MOL_PROPERTY
VConf Rank
SciTegic.value.IntegerValue
667

@<SCITEGIC>MOL_PROPERTY
Conf_Id
SciTegic.value.IntegerValue
59

@<SCITEGIC>MOL_PROPERTY
Delta U+W
SciTegic.value.DoubleValue
0.000

@<SCITEGIC>MOL_PROPERTY
U+W
SciTegic.value.DoubleValue
3.010

@<SCITEGIC>MOL_PROPERTY
Grad RMS
SciTegic.value.DoubleValue
0.000000

@<SCITEGIC>MOL_PROPERTY
U
SciTegic.value.DoubleValue
5.843

@<SCITEGIC>MOL_PROPERTY
W
SciTegic.value.DoubleValue
-2.833

@<SCITEGIC>MOL_PROPERTY
W(PB)
SciTegic.value.DoubleValue
-4.568

@<SCITEGIC>MOL_PROPERTY
W(SA)
SciTegic.value.DoubleValue
1.735

@<SCITEGIC>MOL_PROPERTY
Valence
SciTegic.value.DoubleValue
13.789

@<SCITEGIC>MOL_PROPERTY
Coulomb
SciTegic.value.DoubleValue
-8.574

@<SCITEGIC>MOL_PROPERTY
VdW
SciTegic.value.DoubleValue
0.628

@<SCITEGIC>MOL_PROPERTY
VdW6
SciTegic.value.DoubleValue
-3.284

@<SCITEGIC>MOL_PROPERTY
VdW12
SciTegic.value.DoubleValue
3.912

@<SCITEGIC>MOL_PROPERTY
Bond
SciTegic.value.DoubleValue
0.054

@<SCITEGIC>MOL_PROPERTY
Angle
SciTegic.value.DoubleValue
4.034

@<SCITEGIC>MOL_PROPERTY
Pdih
SciTegic.value.DoubleValue
9.702

@<SCITEGIC>MOL_PROPERTY
Idih
SciTegic.value.DoubleValue
0.000

@<SCITEGIC>MOL_PROPERTY
Tether
SciTegic.value.DoubleValue
0.000

@<TRIPOS>MOLECULE
guest-4_confgen4.mol2 : confsearch ligand conformer 668
          16          16           1
SMALL
USER_CHARGES
 
@<TRIPOS>ATOM
       1    C1      18.721518   17.384503   22.152599 C.3        1 MOL1        -0.1689
       2    H1      18.477767   16.643960   21.378686 H          1 MOL1         0.0830
       3    H2      18.383351   16.992479   23.121919 H          1 MOL1         0.0830
       4    C2      18.062134   18.744885   21.887455 C.3        1 MOL1        -0.1689
       5    H3      18.099767   18.969078   20.812280 H          1 MOL1         0.0830
       6    H4      17.011813   18.771614   22.208007 H          1 MOL1         0.0830
       7    C3      18.936733   19.753109   22.655332 C.3        1 MOL1        -0.1765
       8    H5      18.552006   19.871716   23.676607 H          1 MOL1         0.0830
       9    H6      18.927381   20.742165   22.178152 H          1 MOL1         0.0830
      10    C4      20.353921   19.147028   22.718923 C.3        1 MOL1         0.1214
      11    H7      20.705508   19.153746   23.760969 H          1 MOL1         0.0787
      12    C5      20.228474   17.694393   22.213107 C.3        1 MOL1        -0.1765
      13    H8      20.658787   17.603323   21.206470 H          1 MOL1         0.0830
      14    H9      20.756427   16.991374   22.870281 H          1 MOL1         0.0830
      15    O1      21.240023   19.882804   21.883845 O.3        1 MOL1        -0.5512
      16    H10     22.117005   19.449737   21.953726 H          1 MOL1         0.3776
@<TRIPOS>BOND
    1     1     2    1
    2     1     3    1
    3     1     4    1
    4     4     5    1
    5     4     6    1
    6     4     7    1
    7     7     8    1
    8     7     9    1
    9     7    10    1
   10    10    11    1
   11     1    12    1
   12    10    12    1
   13    12    13    1
   14    12    14    1
   15    10    15    1
   16    15    16    1
@<TRIPOS>SUBSTRUCTURE
       1 MOL1            1 RESIDUE      1      MOL     
@<SCITEGIC>MOL_PROPERTY
VConf Rank
SciTegic.value.IntegerValue
668

@<SCITEGIC>MOL_PROPERTY
Conf_Id
SciTegic.value.IntegerValue
33

@<SCITEGIC>MOL_PROPERTY
Delta U+W
SciTegic.value.DoubleValue
0.015

@<SCITEGIC>MOL_PROPERTY
U+W
SciTegic.value.DoubleValue
3.025

@<SCITEGIC>MOL_PROPERTY
Grad RMS
SciTegic.value.DoubleValue
0.000000

@<SCITEGIC>MOL_PROPERTY
U
SciTegic.value.DoubleValue
5.843

@<SCITEGIC>MOL_PROPERTY
W
SciTegic.value.DoubleValue
-2.819

@<SCITEGIC>MOL_PROPERTY
W(PB)
SciTegic.value.DoubleValue
-4.568

@<SCITEGIC>MOL_PROPERTY
W(SA)
SciTegic.value.DoubleValue
1.750

@<SCITEGIC>MOL_PROPERTY
Valence
SciTegic.value.DoubleValue
13.789

@<SCITEGIC>MOL_PROPERTY
Coulomb
SciTegic.value.DoubleValue
-8.574

@<SCITEGIC>MOL_PROPERTY
VdW
SciTegic.value.DoubleValue
0.628

@<SCITEGIC>MOL_PROPERTY
VdW6
SciTegic.value.DoubleValue
-3.284

@<SCITEGIC>MOL_PROPERTY
VdW12
SciTegic.value.DoubleValue
3.913

@<SCITEGIC>MOL_PROPERTY
Bond
SciTegic.value.DoubleValue
0.054

@<SCITEGIC>MOL_PROPERTY
Angle
SciTegic.value.DoubleValue
4.033

@<SCITEGIC>MOL_PROPERTY
Pdih
SciTegic.value.DoubleValue
9.702

@<SCITEGIC>MOL_PROPERTY
Idih
SciTegic.value.DoubleValue
0.000

@<SCITEGIC>MOL_PROPERTY
Tether
SciTegic.value.DoubleValue
0.000

@<TRIPOS>MOLECULE
guest-4_confgen4.mol2 : confsearch ligand conformer 669
          16          16           1
SMALL
USER_CHARGES
 
@<TRIPOS>ATOM
       1    C1      20.183595   19.270754   21.421423 C.3        1 MOL1        -0.1689
       2    H1      21.059319   18.696449   21.088995 H          1 MOL1         0.0830
       3    H2      20.224265   20.253604   20.932189 H          1 MOL1         0.0830
       4    C2      20.194467   19.401482   22.960193 C.3        1 MOL1        -0.1689
       5    H3      21.075996   18.891365   23.372398 H          1 MOL1         0.0830
       6    H4      20.239798   20.452800   23.275906 H          1 MOL1         0.0830
       7    C3      18.902278   18.725573   23.465992 C.3        1 MOL1        -0.1765
       8    H5      18.133942   19.489607   23.643564 H          1 MOL1         0.0830
       9    H6      19.057696   18.182779   24.407918 H          1 MOL1         0.0830
      10    C4      18.434210   17.802009   22.333325 C.3        1 MOL1         0.1214
      11    H7      17.344434   17.657222   22.353532 H          1 MOL1         0.0787
      12    C5      18.884640   18.521843   21.055081 C.3        1 MOL1        -0.1765
      13    H8      19.026548   17.828594   20.215277 H          1 MOL1         0.0830
      14    H9      18.113138   19.246607   20.763322 H          1 MOL1         0.0830
      15    O1      19.112474   16.558329   22.433454 O.3        1 MOL1        -0.5512
      16    H10     20.064953   16.784745   22.407346 H          1 MOL1         0.3776
@<TRIPOS>BOND
    1     1     2    1
    2     1     3    1
    3     1     4    1
    4     4     5    1
    5     4     6    1
    6     4     7    1
    7     7     8    1
    8     7     9    1
    9     7    10    1
   10    10    11    1
   11     1    12    1
   12    10    12    1
   13    12    13    1
   14    12    14    1
   15    10    15    1
   16    15    16    1
@<TRIPOS>SUBSTRUCTURE
       1 MOL1            1 RESIDUE      1      MOL     
@<SCITEGIC>MOL_PROPERTY
VConf Rank
SciTegic.value.IntegerValue
669

@<SCITEGIC>MOL_PROPERTY
Conf_Id
SciTegic.value.IntegerValue
20

@<SCITEGIC>MOL_PROPERTY
Delta U+W
SciTegic.value.DoubleValue
-0.483

@<SCITEGIC>MOL_PROPERTY
U+W
SciTegic.value.DoubleValue
2.527

@<SCITEGIC>MOL_PROPERTY
Grad RMS
SciTegic.value.DoubleValue
0.000000

@<SCITEGIC>MOL_PROPERTY
U
SciTegic.value.DoubleValue
4.508

@<SCITEGIC>MOL_PROPERTY
W
SciTegic.value.DoubleValue
-1.981

@<SCITEGIC>MOL_PROPERTY
W(PB)
SciTegic.value.DoubleValue
-3.712

@<SCITEGIC>MOL_PROPERTY
W(SA)
SciTegic.value.DoubleValue
1.732

@<SCITEGIC>MOL_PROPERTY
Valence
SciTegic.value.DoubleValue
14.705

@<SCITEGIC>MOL_PROPERTY
Coulomb
SciTegic.value.DoubleValue
-10.687

@<SCITEGIC>MOL_PROPERTY
VdW
SciTegic.value.DoubleValue
0.490

@<SCITEGIC>MOL_PROPERTY
VdW6
SciTegic.value.DoubleValue
-3.745

@<SCITEGIC>MOL_PROPERTY
VdW12
SciTegic.value.DoubleValue
4.235

@<SCITEGIC>MOL_PROPERTY
Bond
SciTegic.value.DoubleValue
0.068

@<SCITEGIC>MOL_PROPERTY
Angle
SciTegic.value.DoubleValue
3.901

@<SCITEGIC>MOL_PROPERTY
Pdih
SciTegic.value.DoubleValue
10.737

@<SCITEGIC>MOL_PROPERTY
Idih
SciTegic.value.DoubleValue
0.000

@<SCITEGIC>MOL_PROPERTY
Tether
SciTegic.value.DoubleValue
0.000

@<TRIPOS>MOLECULE
guest-4_confgen4.mol2 : confsearch ligand conformer 670
          16          16           1
SMALL
USER_CHARGES
 
@<TRIPOS>ATOM
       1    C1      19.209755   17.512570   21.310690 C.3        1 MOL1        -0.1689
       2    H1      18.773745   16.659370   21.848854 H          1 MOL1         0.0830
       3    H2      19.294920   17.242776   20.249275 H          1 MOL1         0.0830
       4    C2      20.564621   17.875676   21.933763 C.3        1 MOL1        -0.1689
       5    H3      21.145717   16.987596   22.217314 H          1 MOL1         0.0830
       6    H4      21.157304   18.459177   21.215516 H          1 MOL1         0.0830
       7    C3      20.205530   18.752864   23.147085 C.3        1 MOL1        -0.1765
       8    H5      21.001527   19.475216   23.369441 H          1 MOL1         0.0830
       9    H6      20.073222   18.113902   24.030831 H          1 MOL1         0.0830
      10    C4      18.879751   19.460118   22.795259 C.3        1 MOL1         0.1214
      11    H7      19.066593   20.520759   22.572435 H          1 MOL1         0.0787
      12    C5      18.336974   18.761861   21.531272 C.3        1 MOL1        -0.1765
      13    H8      17.274059   18.501394   21.622877 H          1 MOL1         0.0830
      14    H9      18.441606   19.440356   20.674663 H          1 MOL1         0.0830
      15    O1      17.952735   19.326298   23.866063 O.3        1 MOL1        -0.5512
      16    H10     18.351508   19.775600   24.641073 H          1 MOL1         0.3776
@<TRIPOS>BOND
    1     1     2    1
    2     1     3    1
    3     1     4    1
    4     4     5    1
    5     4     6    1
    6     4     7    1
    7     7     8    1
    8     7     9    1
    9     7    10    1
   10    10    11    1
   11     1    12    1
   12    10    12    1
   13    12    13    1
   14    12    14    1
   15    10    15    1
   16    15    16    1
@<TRIPOS>SUBSTRUCTURE
       1 MOL1            1 RESIDUE      1      MOL     
@<SCITEGIC>MOL_PROPERTY
VConf Rank
SciTegic.value.IntegerValue
670

@<SCITEGIC>MOL_PROPERTY
Conf_Id
SciTegic.value.IntegerValue
59

@<SCITEGIC>MOL_PROPERTY
Delta U+W
SciTegic.value.DoubleValue
0.000

@<SCITEGIC>MOL_PROPERTY
U+W
SciTegic.value.DoubleValue
3.010

@<SCITEGIC>MOL_PROPERTY
Grad RMS
SciTegic.value.DoubleValue
0.000000

@<SCITEGIC>MOL_PROPERTY
U
SciTegic.value.DoubleValue
5.843

@<SCITEGIC>MOL_PROPERTY
W
SciTegic.value.DoubleValue
-2.833

@<SCITEGIC>MOL_PROPERTY
W(PB)
SciTegic.value.DoubleValue
-4.568

@<SCITEGIC>MOL_PROPERTY
W(SA)
SciTegic.value.DoubleValue
1.735

@<SCITEGIC>MOL_PROPERTY
Valence
SciTegic.value.DoubleValue
13.789

@<SCITEGIC>MOL_PROPERTY
Coulomb
SciTegic.value.DoubleValue
-8.574

@<SCITEGIC>MOL_PROPERTY
VdW
SciTegic.value.DoubleValue
0.628

@<SCITEGIC>MOL_PROPERTY
VdW6
SciTegic.value.DoubleValue
-3.284

@<SCITEGIC>MOL_PROPERTY
VdW12
SciTegic.value.DoubleValue
3.912

@<SCITEGIC>MOL_PROPERTY
Bond
SciTegic.value.DoubleValue
0.054

@<SCITEGIC>MOL_PROPERTY
Angle
SciTegic.value.DoubleValue
4.034

@<SCITEGIC>MOL_PROPERTY
Pdih
SciTegic.value.DoubleValue
9.702

@<SCITEGIC>MOL_PROPERTY
Idih
SciTegic.value.DoubleValue
0.000

@<SCITEGIC>MOL_PROPERTY
Tether
SciTegic.value.DoubleValue
0.000

@<TRIPOS>MOLECULE
guest-4_confgen4.mol2 : confsearch ligand conformer 671
          16          16           1
SMALL
USER_CHARGES
 
@<TRIPOS>ATOM
       1    C1      20.704482   18.191389   21.731308 C.3        1 MOL1        -0.1689
       2    H1      21.772875   18.189676   21.986830 H          1 MOL1         0.0830
       3    H2      20.568378   17.593634   20.819285 H          1 MOL1         0.0830
       4    C2      20.160287   19.608664   21.505671 C.3        1 MOL1        -0.1689
       5    H3      20.599614   20.293749   22.244136 H          1 MOL1         0.0830
       6    H4      20.389861   19.991361   20.501938 H          1 MOL1         0.0830
       7    C3      18.645879   19.484043   21.754896 C.3        1 MOL1        -0.1765
       8    H5      18.136406   19.240333   20.813553 H          1 MOL1         0.0830
       9    H6      18.219492   20.423294   22.131753 H          1 MOL1         0.0830
      10    C4      18.457787   18.316544   22.745536 C.3        1 MOL1         0.1214
      11    H7      17.713350   17.614466   22.342524 H          1 MOL1         0.0787
      12    C5      19.830413   17.621003   22.863242 C.3        1 MOL1        -0.1765
      13    H8      20.293225   17.853644   23.831986 H          1 MOL1         0.0830
      14    H9      19.737622   16.529915   22.787319 H          1 MOL1         0.0830
      15    O1      18.047778   18.811388   24.014756 O.3        1 MOL1        -0.5512
      16    H10     17.955168   18.032808   24.603625 H          1 MOL1         0.3776
@<TRIPOS>BOND
    1     1     2    1
    2     1     3    1
    3     1     4    1
    4     4     5    1
    5     4     6    1
    6     4     7    1
    7     7     8    1
    8     7     9    1
    9     7    10    1
   10    10    11    1
   11     1    12    1
   12    10    12    1
   13    12    13    1
   14    12    14    1
   15    10    15    1
   16    15    16    1
@<TRIPOS>SUBSTRUCTURE
       1 MOL1            1 RESIDUE      1      MOL     
@<SCITEGIC>MOL_PROPERTY
VConf Rank
SciTegic.value.IntegerValue
671

@<SCITEGIC>MOL_PROPERTY
Conf_Id
SciTegic.value.IntegerValue
33

@<SCITEGIC>MOL_PROPERTY
Delta U+W
SciTegic.value.DoubleValue
0.015

@<SCITEGIC>MOL_PROPERTY
U+W
SciTegic.value.DoubleValue
3.025

@<SCITEGIC>MOL_PROPERTY
Grad RMS
SciTegic.value.DoubleValue
0.000000

@<SCITEGIC>MOL_PROPERTY
U
SciTegic.value.DoubleValue
5.843

@<SCITEGIC>MOL_PROPERTY
W
SciTegic.value.DoubleValue
-2.819

@<SCITEGIC>MOL_PROPERTY
W(PB)
SciTegic.value.DoubleValue
-4.568

@<SCITEGIC>MOL_PROPERTY
W(SA)
SciTegic.value.DoubleValue
1.750

@<SCITEGIC>MOL_PROPERTY
Valence
SciTegic.value.DoubleValue
13.789

@<SCITEGIC>MOL_PROPERTY
Coulomb
SciTegic.value.DoubleValue
-8.574

@<SCITEGIC>MOL_PROPERTY
VdW
SciTegic.value.DoubleValue
0.628

@<SCITEGIC>MOL_PROPERTY
VdW6
SciTegic.value.DoubleValue
-3.284

@<SCITEGIC>MOL_PROPERTY
VdW12
SciTegic.value.DoubleValue
3.913

@<SCITEGIC>MOL_PROPERTY
Bond
SciTegic.value.DoubleValue
0.054

@<SCITEGIC>MOL_PROPERTY
Angle
SciTegic.value.DoubleValue
4.033

@<SCITEGIC>MOL_PROPERTY
Pdih
SciTegic.value.DoubleValue
9.702

@<SCITEGIC>MOL_PROPERTY
Idih
SciTegic.value.DoubleValue
0.000

@<SCITEGIC>MOL_PROPERTY
Tether
SciTegic.value.DoubleValue
0.000

@<TRIPOS>MOLECULE
guest-4_confgen4.mol2 : confsearch ligand conformer 672
          16          16           1
SMALL
USER_CHARGES
 
@<TRIPOS>ATOM
       1    C1      20.598911   18.866284   21.779226 C.3        1 MOL1        -0.1689
       2    H1      21.193744   17.970139   21.554888 H          1 MOL1         0.0830
       3    H2      21.205456   19.743540   21.515555 H          1 MOL1         0.0830
       4    C2      20.206072   18.875612   23.272749 C.3        1 MOL1        -0.1689
       5    H3      20.611668   17.984541   23.771458 H          1 MOL1         0.0830
       6    H4      20.606282   19.758305   23.790132 H          1 MOL1         0.0830
       7    C3      18.663382   18.857090   23.319647 C.3        1 MOL1        -0.1765
       8    H5      18.288293   19.879615   23.458836 H          1 MOL1         0.0830
       9    H6      18.279405   18.244892   24.146557 H          1 MOL1         0.0830
      10    C4      18.202629   18.339373   21.950462 C.3        1 MOL1         0.1214
      11    H7      17.207100   18.724324   21.686418 H          1 MOL1         0.0787
      12    C5      19.278833   18.843719   20.979701 C.3        1 MOL1        -0.1765
      13    H8      19.349336   18.221957   20.077235 H          1 MOL1         0.0830
      14    H9      19.023951   19.863857   20.663512 H          1 MOL1         0.0830
      15    O1      18.210385   16.919287   21.960612 O.3        1 MOL1        -0.5512
      16    H10     19.126306   16.671228   22.202928 H          1 MOL1         0.3776
@<TRIPOS>BOND
    1     1     2    1
    2     1     3    1
    3     1     4    1
    4     4     5    1
    5     4     6    1
    6     4     7    1
    7     7     8    1
    8     7     9    1
    9     7    10    1
   10    10    11    1
   11     1    12    1
   12    10    12    1
   13    12    13    1
   14    12    14    1
   15    10    15    1
   16    15    16    1
@<TRIPOS>SUBSTRUCTURE
       1 MOL1            1 RESIDUE      1      MOL     
@<SCITEGIC>MOL_PROPERTY
VConf Rank
SciTegic.value.IntegerValue
672

@<SCITEGIC>MOL_PROPERTY
Conf_Id
SciTegic.value.IntegerValue
20

@<SCITEGIC>MOL_PROPERTY
Delta U+W
SciTegic.value.DoubleValue
-0.483

@<SCITEGIC>MOL_PROPERTY
U+W
SciTegic.value.DoubleValue
2.527

@<SCITEGIC>MOL_PROPERTY
Grad RMS
SciTegic.value.DoubleValue
0.000000

@<SCITEGIC>MOL_PROPERTY
U
SciTegic.value.DoubleValue
4.508

@<SCITEGIC>MOL_PROPERTY
W
SciTegic.value.DoubleValue
-1.981

@<SCITEGIC>MOL_PROPERTY
W(PB)
SciTegic.value.DoubleValue
-3.712

@<SCITEGIC>MOL_PROPERTY
W(SA)
SciTegic.value.DoubleValue
1.732

@<SCITEGIC>MOL_PROPERTY
Valence
SciTegic.value.DoubleValue
14.705

@<SCITEGIC>MOL_PROPERTY
Coulomb
SciTegic.value.DoubleValue
-10.687

@<SCITEGIC>MOL_PROPERTY
VdW
SciTegic.value.DoubleValue
0.490

@<SCITEGIC>MOL_PROPERTY
VdW6
SciTegic.value.DoubleValue
-3.745

@<SCITEGIC>MOL_PROPERTY
VdW12
SciTegic.value.DoubleValue
4.235

@<SCITEGIC>MOL_PROPERTY
Bond
SciTegic.value.DoubleValue
0.068

@<SCITEGIC>MOL_PROPERTY
Angle
SciTegic.value.DoubleValue
3.901

@<SCITEGIC>MOL_PROPERTY
Pdih
SciTegic.value.DoubleValue
10.737

@<SCITEGIC>MOL_PROPERTY
Idih
SciTegic.value.DoubleValue
0.000

@<SCITEGIC>MOL_PROPERTY
Tether
SciTegic.value.DoubleValue
0.000

@<TRIPOS>MOLECULE
guest-4_confgen4.mol2 : confsearch ligand conformer 673
          16          16           1
SMALL
USER_CHARGES
 
@<TRIPOS>ATOM
       1    C1      20.242367   19.155619   21.329289 C.3        1 MOL1        -0.1689
       2    H1      21.094941   19.537232   21.908224 H          1 MOL1         0.0830
       3    H2      20.441450   19.335802   20.264139 H          1 MOL1         0.0830
       4    C2      18.951209   19.833994   21.807250 C.3        1 MOL1        -0.1689
       5    H3      19.095788   20.900791   22.025884 H          1 MOL1         0.0830
       6    H4      18.177504   19.743903   21.032079 H          1 MOL1         0.0830
       7    C3      18.535634   19.031503   23.053790 C.3        1 MOL1        -0.1765
       8    H5      17.446886   19.041887   23.192950 H          1 MOL1         0.0830
       9    H6      18.994010   19.481486   23.944964 H          1 MOL1         0.0830
      10    C4      19.067198   17.597769   22.845162 C.3        1 MOL1         0.1214
      11    H7      18.235426   16.918993   22.606547 H          1 MOL1         0.0787
      12    C5      20.032484   17.662868   21.643572 C.3        1 MOL1        -0.1765
      13    H8      20.984705   17.154558   21.845857 H          1 MOL1         0.0830
      14    H9      19.565969   17.167069   20.782394 H          1 MOL1         0.0830
      15    O1      19.759372   17.156864   24.007224 O.3        1 MOL1        -0.5512
      16    H10     19.104622   17.145197   24.737087 H          1 MOL1         0.3776
@<TRIPOS>BOND
    1     1     2    1
    2     1     3    1
    3     1     4    1
    4     4     5    1
    5     4     6    1
    6     4     7    1
    7     7     8    1
    8     7     9    1
    9     7    10    1
   10    10    11    1
   11     1    12    1
   12    10    12    1
   13    12    13    1
   14    12    14    1
   15    10    15    1
   16    15    16    1
@<TRIPOS>SUBSTRUCTURE
       1 MOL1            1 RESIDUE      1      MOL     
@<SCITEGIC>MOL_PROPERTY
VConf Rank
SciTegic.value.IntegerValue
673

@<SCITEGIC>MOL_PROPERTY
Conf_Id
SciTegic.value.IntegerValue
59

@<SCITEGIC>MOL_PROPERTY
Delta U+W
SciTegic.value.DoubleValue
0.000

@<SCITEGIC>MOL_PROPERTY
U+W
SciTegic.value.DoubleValue
3.010

@<SCITEGIC>MOL_PROPERTY
Grad RMS
SciTegic.value.DoubleValue
0.000000

@<SCITEGIC>MOL_PROPERTY
U
SciTegic.value.DoubleValue
5.843

@<SCITEGIC>MOL_PROPERTY
W
SciTegic.value.DoubleValue
-2.833

@<SCITEGIC>MOL_PROPERTY
W(PB)
SciTegic.value.DoubleValue
-4.568

@<SCITEGIC>MOL_PROPERTY
W(SA)
SciTegic.value.DoubleValue
1.735

@<SCITEGIC>MOL_PROPERTY
Valence
SciTegic.value.DoubleValue
13.789

@<SCITEGIC>MOL_PROPERTY
Coulomb
SciTegic.value.DoubleValue
-8.574

@<SCITEGIC>MOL_PROPERTY
VdW
SciTegic.value.DoubleValue
0.628

@<SCITEGIC>MOL_PROPERTY
VdW6
SciTegic.value.DoubleValue
-3.284

@<SCITEGIC>MOL_PROPERTY
VdW12
SciTegic.value.DoubleValue
3.912

@<SCITEGIC>MOL_PROPERTY
Bond
SciTegic.value.DoubleValue
0.054

@<SCITEGIC>MOL_PROPERTY
Angle
SciTegic.value.DoubleValue
4.034

@<SCITEGIC>MOL_PROPERTY
Pdih
SciTegic.value.DoubleValue
9.702

@<SCITEGIC>MOL_PROPERTY
Idih
SciTegic.value.DoubleValue
0.000

@<SCITEGIC>MOL_PROPERTY
Tether
SciTegic.value.DoubleValue
0.000

@<TRIPOS>MOLECULE
guest-4_confgen4.mol2 : confsearch ligand conformer 674
          16          16           1
SMALL
USER_CHARGES
 
@<TRIPOS>ATOM
       1    C1      20.205779   18.456136   23.504032 C.3        1 MOL1        -0.1689
       2    H1      20.270263   17.773978   24.362671 H          1 MOL1         0.0830
       3    H2      21.048992   19.158675   23.559281 H          1 MOL1         0.0830
       4    C2      18.884498   19.236628   23.476225 C.3        1 MOL1        -0.1689
       5    H3      18.059988   18.575812   23.778191 H          1 MOL1         0.0830
       6    H4      18.895161   20.103738   24.150502 H          1 MOL1         0.0830
       7    C3      18.707135   19.641389   22.001170 C.3        1 MOL1        -0.1765
       8    H5      19.178284   20.617629   21.827797 H          1 MOL1         0.0830
       9    H6      17.646405   19.729981   21.730941 H          1 MOL1         0.0830
      10    C4      19.438191   18.573783   21.161186 C.3        1 MOL1         0.1214
      11    H7      20.124049   19.070539   20.459509 H          1 MOL1         0.0787
      12    C5      20.237757   17.708779   22.158281 C.3        1 MOL1        -0.1765
      13    H8      19.761291   16.726103   22.277057 H          1 MOL1         0.0830
      14    H9      21.267358   17.544909   21.814893 H          1 MOL1         0.0830
      15    O1      18.495696   17.770813   20.460588 O.3        1 MOL1        -0.5512
      16    H10     19.011769   17.107020   19.956032 H          1 MOL1         0.3776
@<TRIPOS>BOND
    1     1     2    1
    2     1     3    1
    3     1     4    1
    4     4     5    1
    5     4     6    1
    6     4     7    1
    7     7     8    1
    8     7     9    1
    9     7    10    1
   10    10    11    1
   11     1    12    1
   12    10    12    1
   13    12    13    1
   14    12    14    1
   15    10    15    1
   16    15    16    1
@<TRIPOS>SUBSTRUCTURE
       1 MOL1            1 RESIDUE      1      MOL     
@<SCITEGIC>MOL_PROPERTY
VConf Rank
SciTegic.value.IntegerValue
674

@<SCITEGIC>MOL_PROPERTY
Conf_Id
SciTegic.value.IntegerValue
33

@<SCITEGIC>MOL_PROPERTY
Delta U+W
SciTegic.value.DoubleValue
0.015

@<SCITEGIC>MOL_PROPERTY
U+W
SciTegic.value.DoubleValue
3.025

@<SCITEGIC>MOL_PROPERTY
Grad RMS
SciTegic.value.DoubleValue
0.000000

@<SCITEGIC>MOL_PROPERTY
U
SciTegic.value.DoubleValue
5.843

@<SCITEGIC>MOL_PROPERTY
W
SciTegic.value.DoubleValue
-2.819

@<SCITEGIC>MOL_PROPERTY
W(PB)
SciTegic.value.DoubleValue
-4.568

@<SCITEGIC>MOL_PROPERTY
W(SA)
SciTegic.value.DoubleValue
1.750

@<SCITEGIC>MOL_PROPERTY
Valence
SciTegic.value.DoubleValue
13.789

@<SCITEGIC>MOL_PROPERTY
Coulomb
SciTegic.value.DoubleValue
-8.574

@<SCITEGIC>MOL_PROPERTY
VdW
SciTegic.value.DoubleValue
0.628

@<SCITEGIC>MOL_PROPERTY
VdW6
SciTegic.value.DoubleValue
-3.284

@<SCITEGIC>MOL_PROPERTY
VdW12
SciTegic.value.DoubleValue
3.913

@<SCITEGIC>MOL_PROPERTY
Bond
SciTegic.value.DoubleValue
0.054

@<SCITEGIC>MOL_PROPERTY
Angle
SciTegic.value.DoubleValue
4.033

@<SCITEGIC>MOL_PROPERTY
Pdih
SciTegic.value.DoubleValue
9.702

@<SCITEGIC>MOL_PROPERTY
Idih
SciTegic.value.DoubleValue
0.000

@<SCITEGIC>MOL_PROPERTY
Tether
SciTegic.value.DoubleValue
0.000

@<TRIPOS>MOLECULE
guest-4_confgen4.mol2 : confsearch ligand conformer 675
          16          16           1
SMALL
USER_CHARGES
 
@<TRIPOS>ATOM
       1    C1      18.276175   19.333159   22.476743 C.3        1 MOL1        -0.1689
       2    H1      17.521377   18.830505   23.097103 H          1 MOL1         0.0830
       3    H2      17.889879   20.330168   22.224263 H          1 MOL1         0.0830
       4    C2      18.557443   18.495611   21.210085 C.3        1 MOL1        -0.1689
       5    H3      17.938011   17.588151   21.216897 H          1 MOL1         0.0830
       6    H4      18.319231   19.054885   20.294953 H          1 MOL1         0.0830
       7    C3      20.053840   18.120080   21.257072 C.3        1 MOL1        -0.1765
       8    H5      20.627250   18.819207   20.634141 H          1 MOL1         0.0830
       9    H6      20.240516   17.105858   20.879564 H          1 MOL1         0.0830
      10    C4      20.487774   18.284882   22.719787 C.3        1 MOL1         0.1214
      11    H7      21.558261   18.522836   22.799902 H          1 MOL1         0.0787
      12    C5      19.613454   19.433322   23.240947 C.3        1 MOL1        -0.1765
      13    H8      19.475094   19.389857   24.329511 H          1 MOL1         0.0830
      14    H9      20.100784   20.388294   23.003966 H          1 MOL1         0.0830
      15    O1      20.177470   17.098590   23.436186 O.3        1 MOL1        -0.5512
      16    H10     19.215195   16.968357   23.308794 H          1 MOL1         0.3776
@<TRIPOS>BOND
    1     1     2    1
    2     1     3    1
    3     1     4    1
    4     4     5    1
    5     4     6    1
    6     4     7    1
    7     7     8    1
    8     7     9    1
    9     7    10    1
   10    10    11    1
   11     1    12    1
   12    10    12    1
   13    12    13    1
   14    12    14    1
   15    10    15    1
   16    15    16    1
@<TRIPOS>SUBSTRUCTURE
       1 MOL1            1 RESIDUE      1      MOL     
@<SCITEGIC>MOL_PROPERTY
VConf Rank
SciTegic.value.IntegerValue
675

@<SCITEGIC>MOL_PROPERTY
Conf_Id
SciTegic.value.IntegerValue
20

@<SCITEGIC>MOL_PROPERTY
Delta U+W
SciTegic.value.DoubleValue
-0.483

@<SCITEGIC>MOL_PROPERTY
U+W
SciTegic.value.DoubleValue
2.527

@<SCITEGIC>MOL_PROPERTY
Grad RMS
SciTegic.value.DoubleValue
0.000000

@<SCITEGIC>MOL_PROPERTY
U
SciTegic.value.DoubleValue
4.508

@<SCITEGIC>MOL_PROPERTY
W
SciTegic.value.DoubleValue
-1.981

@<SCITEGIC>MOL_PROPERTY
W(PB)
SciTegic.value.DoubleValue
-3.712

@<SCITEGIC>MOL_PROPERTY
W(SA)
SciTegic.value.DoubleValue
1.732

@<SCITEGIC>MOL_PROPERTY
Valence
SciTegic.value.DoubleValue
14.705

@<SCITEGIC>MOL_PROPERTY
Coulomb
SciTegic.value.DoubleValue
-10.687

@<SCITEGIC>MOL_PROPERTY
VdW
SciTegic.value.DoubleValue
0.490

@<SCITEGIC>MOL_PROPERTY
VdW6
SciTegic.value.DoubleValue
-3.745

@<SCITEGIC>MOL_PROPERTY
VdW12
SciTegic.value.DoubleValue
4.235

@<SCITEGIC>MOL_PROPERTY
Bond
SciTegic.value.DoubleValue
0.068

@<SCITEGIC>MOL_PROPERTY
Angle
SciTegic.value.DoubleValue
3.901

@<SCITEGIC>MOL_PROPERTY
Pdih
SciTegic.value.DoubleValue
10.737

@<SCITEGIC>MOL_PROPERTY
Idih
SciTegic.value.DoubleValue
0.000

@<SCITEGIC>MOL_PROPERTY
Tether
SciTegic.value.DoubleValue
0.000

@<TRIPOS>MOLECULE
guest-4_confgen4.mol2 : confsearch ligand conformer 676
          16          16           1
SMALL
USER_CHARGES
 
@<TRIPOS>ATOM
       1    C1      18.425667   18.469177   23.426390 C.3        1 MOL1        -0.1689
       2    H1      17.435913   18.365218   22.960282 H          1 MOL1         0.0830
       3    H2      18.300915   18.408766   24.516083 H          1 MOL1         0.0830
       4    C2      19.067103   19.790906   22.982184 C.3        1 MOL1        -0.1689
       5    H3      18.339906   20.612846   22.933599 H          1 MOL1         0.0830
       6    H4      19.858692   20.073870   23.689957 H          1 MOL1         0.0830
       7    C3      19.685643   19.473864   21.608339 C.3        1 MOL1        -0.1765
       8    H5      20.565512   20.099606   21.410541 H          1 MOL1         0.0830
       9    H6      18.945419   19.674182   20.821747 H          1 MOL1         0.0830
      10    C4      20.049499   17.974270   21.630832 C.3        1 MOL1         0.1214
      11    H7      21.139061   17.852622   21.717868 H          1 MOL1         0.0787
      12    C5      19.369017   17.380827   22.881673 C.3        1 MOL1        -0.1765
      13    H8      18.828311   16.450935   22.660408 H          1 MOL1         0.0830
      14    H9      20.136962   17.149937   23.631360 H          1 MOL1         0.0830
      15    O1      19.563477   17.333514   20.457332 O.3        1 MOL1        -0.5512
      16    H10     20.018470   17.754995   19.697815 H          1 MOL1         0.3776
@<TRIPOS>BOND
    1     1     2    1
    2     1     3    1
    3     1     4    1
    4     4     5    1
    5     4     6    1
    6     4     7    1
    7     7     8    1
    8     7     9    1
    9     7    10    1
   10    10    11    1
   11     1    12    1
   12    10    12    1
   13    12    13    1
   14    12    14    1
   15    10    15    1
   16    15    16    1
@<TRIPOS>SUBSTRUCTURE
       1 MOL1            1 RESIDUE      1      MOL     
@<SCITEGIC>MOL_PROPERTY
VConf Rank
SciTegic.value.IntegerValue
676

@<SCITEGIC>MOL_PROPERTY
Conf_Id
SciTegic.value.IntegerValue
59

@<SCITEGIC>MOL_PROPERTY
Delta U+W
SciTegic.value.DoubleValue
0.000

@<SCITEGIC>MOL_PROPERTY
U+W
SciTegic.value.DoubleValue
3.010

@<SCITEGIC>MOL_PROPERTY
Grad RMS
SciTegic.value.DoubleValue
0.000000

@<SCITEGIC>MOL_PROPERTY
U
SciTegic.value.DoubleValue
5.843

@<SCITEGIC>MOL_PROPERTY
W
SciTegic.value.DoubleValue
-2.833

@<SCITEGIC>MOL_PROPERTY
W(PB)
SciTegic.value.DoubleValue
-4.568

@<SCITEGIC>MOL_PROPERTY
W(SA)
SciTegic.value.DoubleValue
1.735

@<SCITEGIC>MOL_PROPERTY
Valence
SciTegic.value.DoubleValue
13.789

@<SCITEGIC>MOL_PROPERTY
Coulomb
SciTegic.value.DoubleValue
-8.574

@<SCITEGIC>MOL_PROPERTY
VdW
SciTegic.value.DoubleValue
0.628

@<SCITEGIC>MOL_PROPERTY
VdW6
SciTegic.value.DoubleValue
-3.284

@<SCITEGIC>MOL_PROPERTY
VdW12
SciTegic.value.DoubleValue
3.912

@<SCITEGIC>MOL_PROPERTY
Bond
SciTegic.value.DoubleValue
0.054

@<SCITEGIC>MOL_PROPERTY
Angle
SciTegic.value.DoubleValue
4.034

@<SCITEGIC>MOL_PROPERTY
Pdih
SciTegic.value.DoubleValue
9.702

@<SCITEGIC>MOL_PROPERTY
Idih
SciTegic.value.DoubleValue
0.000

@<SCITEGIC>MOL_PROPERTY
Tether
SciTegic.value.DoubleValue
0.000

@<TRIPOS>MOLECULE
guest-4_confgen4.mol2 : confsearch ligand conformer 677
          16          16           1
SMALL
USER_CHARGES
 
@<TRIPOS>ATOM
       1    C1      19.912256   19.706458   23.099522 C.3        1 MOL1        -0.1689
       2    H1      19.789688   20.795580   23.174019 H          1 MOL1         0.0830
       3    H2      20.474387   19.363009   23.979109 H          1 MOL1         0.0830
       4    C2      20.649409   19.287932   21.820003 C.3        1 MOL1        -0.1689
       5    H3      20.311398   19.910500   20.979862 H          1 MOL1         0.0830
       6    H4      21.739086   19.393521   21.909984 H          1 MOL1         0.0830
       7    C3      20.217718   17.828397   21.586599 C.3        1 MOL1        -0.1765
       8    H5      20.915304   17.151740   22.097085 H          1 MOL1         0.0830
       9    H6      20.223738   17.570760   20.519076 H          1 MOL1         0.0830
      10    C4      18.818083   17.677472   22.217503 C.3        1 MOL1         0.1214
      11    H7      18.814669   16.807364   22.890125 H          1 MOL1         0.0787
      12    C5      18.562915   18.968866   23.023062 C.3        1 MOL1        -0.1765
      13    H8      17.831199   19.602936   22.504092 H          1 MOL1         0.0830
      14    H9      18.168793   18.748951   24.023638 H          1 MOL1         0.0830
      15    O1      17.834569   17.531175   21.200058 O.3        1 MOL1        -0.5512
      16    H10     16.969403   17.451251   21.654623 H          1 MOL1         0.3776
@<TRIPOS>BOND
    1     1     2    1
    2     1     3    1
    3     1     4    1
    4     4     5    1
    5     4     6    1
    6     4     7    1
    7     7     8    1
    8     7     9    1
    9     7    10    1
   10    10    11    1
   11     1    12    1
   12    10    12    1
   13    12    13    1
   14    12    14    1
   15    10    15    1
   16    15    16    1
@<TRIPOS>SUBSTRUCTURE
       1 MOL1            1 RESIDUE      1      MOL     
@<SCITEGIC>MOL_PROPERTY
VConf Rank
SciTegic.value.IntegerValue
677

@<SCITEGIC>MOL_PROPERTY
Conf_Id
SciTegic.value.IntegerValue
33

@<SCITEGIC>MOL_PROPERTY
Delta U+W
SciTegic.value.DoubleValue
0.015

@<SCITEGIC>MOL_PROPERTY
U+W
SciTegic.value.DoubleValue
3.025

@<SCITEGIC>MOL_PROPERTY
Grad RMS
SciTegic.value.DoubleValue
0.000000

@<SCITEGIC>MOL_PROPERTY
U
SciTegic.value.DoubleValue
5.843

@<SCITEGIC>MOL_PROPERTY
W
SciTegic.value.DoubleValue
-2.819

@<SCITEGIC>MOL_PROPERTY
W(PB)
SciTegic.value.DoubleValue
-4.568

@<SCITEGIC>MOL_PROPERTY
W(SA)
SciTegic.value.DoubleValue
1.750

@<SCITEGIC>MOL_PROPERTY
Valence
SciTegic.value.DoubleValue
13.789

@<SCITEGIC>MOL_PROPERTY
Coulomb
SciTegic.value.DoubleValue
-8.574

@<SCITEGIC>MOL_PROPERTY
VdW
SciTegic.value.DoubleValue
0.628

@<SCITEGIC>MOL_PROPERTY
VdW6
SciTegic.value.DoubleValue
-3.284

@<SCITEGIC>MOL_PROPERTY
VdW12
SciTegic.value.DoubleValue
3.913

@<SCITEGIC>MOL_PROPERTY
Bond
SciTegic.value.DoubleValue
0.054

@<SCITEGIC>MOL_PROPERTY
Angle
SciTegic.value.DoubleValue
4.033

@<SCITEGIC>MOL_PROPERTY
Pdih
SciTegic.value.DoubleValue
9.702

@<SCITEGIC>MOL_PROPERTY
Idih
SciTegic.value.DoubleValue
0.000

@<SCITEGIC>MOL_PROPERTY
Tether
SciTegic.value.DoubleValue
0.000

@<TRIPOS>MOLECULE
guest-4_confgen4.mol2 : confsearch ligand conformer 678
          16          16           1
SMALL
USER_CHARGES
 
@<TRIPOS>ATOM
       1    C1      19.760807   18.407415   23.522024 C.3        1 MOL1        -0.1689
       2    H1      18.998080   17.932846   24.154684 H          1 MOL1         0.0830
       3    H2      20.655377   18.565131   24.139979 H          1 MOL1         0.0830
       4    C2      19.219705   19.738525   22.956006 C.3        1 MOL1        -0.1689
       5    H3      18.195507   19.908693   23.315573 H          1 MOL1         0.0830
       6    H4      19.831841   20.592465   23.277056 H          1 MOL1         0.0830
       7    C3      19.228483   19.596328   21.419080 C.3        1 MOL1        -0.1765
       8    H5      20.134058   20.065562   21.012419 H          1 MOL1         0.0830
       9    H6      18.361675   20.081840   20.951183 H          1 MOL1         0.0830
      10    C4      19.276025   18.089607   21.131812 C.3        1 MOL1         0.1214
      11    H7      19.759892   17.876585   20.167718 H          1 MOL1         0.0787
      12    C5      20.077397   17.511306   22.305834 C.3        1 MOL1        -0.1765
      13    H8      19.838299   16.455923   22.492925 H          1 MOL1         0.0830
      14    H9      21.148368   17.574904   22.072171 H          1 MOL1         0.0830
      15    O1      17.956444   17.565648   21.163114 O.3        1 MOL1        -0.5512
      16    H10     17.609797   17.800986   22.048334 H          1 MOL1         0.3776
@<TRIPOS>BOND
    1     1     2    1
    2     1     3    1
    3     1     4    1
    4     4     5    1
    5     4     6    1
    6     4     7    1
    7     7     8    1
    8     7     9    1
    9     7    10    1
   10    10    11    1
   11     1    12    1
   12    10    12    1
   13    12    13    1
   14    12    14    1
   15    10    15    1
   16    15    16    1
@<TRIPOS>SUBSTRUCTURE
       1 MOL1            1 RESIDUE      1      MOL     
@<SCITEGIC>MOL_PROPERTY
VConf Rank
SciTegic.value.IntegerValue
678

@<SCITEGIC>MOL_PROPERTY
Conf_Id
SciTegic.value.IntegerValue
20

@<SCITEGIC>MOL_PROPERTY
Delta U+W
SciTegic.value.DoubleValue
-0.483

@<SCITEGIC>MOL_PROPERTY
U+W
SciTegic.value.DoubleValue
2.527

@<SCITEGIC>MOL_PROPERTY
Grad RMS
SciTegic.value.DoubleValue
0.000000

@<SCITEGIC>MOL_PROPERTY
U
SciTegic.value.DoubleValue
4.508

@<SCITEGIC>MOL_PROPERTY
W
SciTegic.value.DoubleValue
-1.981

@<SCITEGIC>MOL_PROPERTY
W(PB)
SciTegic.value.DoubleValue
-3.712

@<SCITEGIC>MOL_PROPERTY
W(SA)
SciTegic.value.DoubleValue
1.732

@<SCITEGIC>MOL_PROPERTY
Valence
SciTegic.value.DoubleValue
14.705

@<SCITEGIC>MOL_PROPERTY
Coulomb
SciTegic.value.DoubleValue
-10.687

@<SCITEGIC>MOL_PROPERTY
VdW
SciTegic.value.DoubleValue
0.490

@<SCITEGIC>MOL_PROPERTY
VdW6
SciTegic.value.DoubleValue
-3.745

@<SCITEGIC>MOL_PROPERTY
VdW12
SciTegic.value.DoubleValue
4.235

@<SCITEGIC>MOL_PROPERTY
Bond
SciTegic.value.DoubleValue
0.068

@<SCITEGIC>MOL_PROPERTY
Angle
SciTegic.value.DoubleValue
3.901

@<SCITEGIC>MOL_PROPERTY
Pdih
SciTegic.value.DoubleValue
10.737

@<SCITEGIC>MOL_PROPERTY
Idih
SciTegic.value.DoubleValue
0.000

@<SCITEGIC>MOL_PROPERTY
Tether
SciTegic.value.DoubleValue
0.000

@<TRIPOS>MOLECULE
guest-4_confgen4.mol2 : confsearch ligand conformer 679
          16          16           1
SMALL
USER_CHARGES
 
@<TRIPOS>ATOM
       1    C1      18.769014   18.704057   23.634835 C.3        1 MOL1        -0.1689
       2    H1      19.471485   19.342448   24.188610 H          1 MOL1         0.0830
       3    H2      17.905915   18.499379   24.282763 H          1 MOL1         0.0830
       4    C2      19.483089   17.421362   23.187042 C.3        1 MOL1        -0.1689
       5    H3      20.165617   17.033020   23.955224 H          1 MOL1         0.0830
       6    H4      18.739862   16.643562   22.962838 H          1 MOL1         0.0830
       7    C3      20.220990   17.824071   21.897126 C.3        1 MOL1        -0.1765
       8    H5      20.332541   16.970763   21.215753 H          1 MOL1         0.0830
       9    H6      21.226375   18.186228   22.151740 H          1 MOL1         0.0830
      10    C4      19.390931   18.956597   21.256761 C.3        1 MOL1         0.1214
      11    H7      18.856479   18.578155   20.373210 H          1 MOL1         0.0787
      12    C5      18.365987   19.399332   22.321331 C.3        1 MOL1        -0.1765
      13    H8      18.329601   20.490875   22.436357 H          1 MOL1         0.0830
      14    H9      17.366322   19.062322   22.017726 H          1 MOL1         0.0830
      15    O1      20.235588   20.046231   20.905847 O.3        1 MOL1        -0.5512
      16    H10     20.869770   19.707130   20.239247 H          1 MOL1         0.3776
@<TRIPOS>BOND
    1     1     2    1
    2     1     3    1
    3     1     4    1
    4     4     5    1
    5     4     6    1
    6     4     7    1
    7     7     8    1
    8     7     9    1
    9     7    10    1
   10    10    11    1
   11     1    12    1
   12    10    12    1
   13    12    13    1
   14    12    14    1
   15    10    15    1
   16    15    16    1
@<TRIPOS>SUBSTRUCTURE
       1 MOL1            1 RESIDUE      1      MOL     
@<SCITEGIC>MOL_PROPERTY
VConf Rank
SciTegic.value.IntegerValue
679

@<SCITEGIC>MOL_PROPERTY
Conf_Id
SciTegic.value.IntegerValue
59

@<SCITEGIC>MOL_PROPERTY
Delta U+W
SciTegic.value.DoubleValue
0.000

@<SCITEGIC>MOL_PROPERTY
U+W
SciTegic.value.DoubleValue
3.010

@<SCITEGIC>MOL_PROPERTY
Grad RMS
SciTegic.value.DoubleValue
0.000000

@<SCITEGIC>MOL_PROPERTY
U
SciTegic.value.DoubleValue
5.843

@<SCITEGIC>MOL_PROPERTY
W
SciTegic.value.DoubleValue
-2.833

@<SCITEGIC>MOL_PROPERTY
W(PB)
SciTegic.value.DoubleValue
-4.568

@<SCITEGIC>MOL_PROPERTY
W(SA)
SciTegic.value.DoubleValue
1.735

@<SCITEGIC>MOL_PROPERTY
Valence
SciTegic.value.DoubleValue
13.789

@<SCITEGIC>MOL_PROPERTY
Coulomb
SciTegic.value.DoubleValue
-8.574

@<SCITEGIC>MOL_PROPERTY
VdW
SciTegic.value.DoubleValue
0.628

@<SCITEGIC>MOL_PROPERTY
VdW6
SciTegic.value.DoubleValue
-3.284

@<SCITEGIC>MOL_PROPERTY
VdW12
SciTegic.value.DoubleValue
3.912

@<SCITEGIC>MOL_PROPERTY
Bond
SciTegic.value.DoubleValue
0.054

@<SCITEGIC>MOL_PROPERTY
Angle
SciTegic.value.DoubleValue
4.034

@<SCITEGIC>MOL_PROPERTY
Pdih
SciTegic.value.DoubleValue
9.702

@<SCITEGIC>MOL_PROPERTY
Idih
SciTegic.value.DoubleValue
0.000

@<SCITEGIC>MOL_PROPERTY
Tether
SciTegic.value.DoubleValue
0.000

@<TRIPOS>MOLECULE
guest-4_confgen4.mol2 : confsearch ligand conformer 680
          16          16           1
SMALL
USER_CHARGES
 
@<TRIPOS>ATOM
       1    C1      19.679359   19.812944   21.539271 C.3        1 MOL1        -0.1689
       2    H1      19.359342   20.278095   20.596942 H          1 MOL1         0.0830
       3    H2      20.264523   20.550991   22.105391 H          1 MOL1         0.0830
       4    C2      20.522566   18.550997   21.310753 C.3        1 MOL1        -0.1689
       5    H3      20.105875   17.976604   20.471635 H          1 MOL1         0.0830
       6    H4      21.571517   18.783096   21.081678 H          1 MOL1         0.0830
       7    C3      20.370134   17.744661   22.613697 C.3        1 MOL1        -0.1765
       8    H5      21.161104   18.031156   23.318942 H          1 MOL1         0.0830
       9    H6      20.458472   16.664936   22.433673 H          1 MOL1         0.0830
      10    C4      19.000538   18.128608   23.210848 C.3        1 MOL1         0.1214
      11    H7      19.132039   18.421401   24.262750 H          1 MOL1         0.0787
      12    C5      18.489066   19.329958   22.388115 C.3        1 MOL1        -0.1765
      13    H8      17.672538   19.016227   21.723558 H          1 MOL1         0.0830
      14    H9      18.107897   20.129717   23.036145 H          1 MOL1         0.0830
      15    O1      18.094415   17.037333   23.101494 O.3        1 MOL1        -0.5512
      16    H10     17.243232   17.339187   23.483464 H          1 MOL1         0.3776
@<TRIPOS>BOND
    1     1     2    1
    2     1     3    1
    3     1     4    1
    4     4     5    1
    5     4     6    1
    6     4     7    1
    7     7     8    1
    8     7     9    1
    9     7    10    1
   10    10    11    1
   11     1    12    1
   12    10    12    1
   13    12    13    1
   14    12    14    1
   15    10    15    1
   16    15    16    1
@<TRIPOS>SUBSTRUCTURE
       1 MOL1            1 RESIDUE      1      MOL     
@<SCITEGIC>MOL_PROPERTY
VConf Rank
SciTegic.value.IntegerValue
680

@<SCITEGIC>MOL_PROPERTY
Conf_Id
SciTegic.value.IntegerValue
33

@<SCITEGIC>MOL_PROPERTY
Delta U+W
SciTegic.value.DoubleValue
0.015

@<SCITEGIC>MOL_PROPERTY
U+W
SciTegic.value.DoubleValue
3.025

@<SCITEGIC>MOL_PROPERTY
Grad RMS
SciTegic.value.DoubleValue
0.000000

@<SCITEGIC>MOL_PROPERTY
U
SciTegic.value.DoubleValue
5.843

@<SCITEGIC>MOL_PROPERTY
W
SciTegic.value.DoubleValue
-2.819

@<SCITEGIC>MOL_PROPERTY
W(PB)
SciTegic.value.DoubleValue
-4.568

@<SCITEGIC>MOL_PROPERTY
W(SA)
SciTegic.value.DoubleValue
1.750

@<SCITEGIC>MOL_PROPERTY
Valence
SciTegic.value.DoubleValue
13.789

@<SCITEGIC>MOL_PROPERTY
Coulomb
SciTegic.value.DoubleValue
-8.574

@<SCITEGIC>MOL_PROPERTY
VdW
SciTegic.value.DoubleValue
0.628

@<SCITEGIC>MOL_PROPERTY
VdW6
SciTegic.value.DoubleValue
-3.284

@<SCITEGIC>MOL_PROPERTY
VdW12
SciTegic.value.DoubleValue
3.913

@<SCITEGIC>MOL_PROPERTY
Bond
SciTegic.value.DoubleValue
0.054

@<SCITEGIC>MOL_PROPERTY
Angle
SciTegic.value.DoubleValue
4.033

@<SCITEGIC>MOL_PROPERTY
Pdih
SciTegic.value.DoubleValue
9.702

@<SCITEGIC>MOL_PROPERTY
Idih
SciTegic.value.DoubleValue
0.000

@<SCITEGIC>MOL_PROPERTY
Tether
SciTegic.value.DoubleValue
0.000

@<TRIPOS>MOLECULE
guest-4_confgen4.mol2 : confsearch ligand conformer 681
          16          16           1
SMALL
USER_CHARGES
 
@<TRIPOS>ATOM
       1    C1      19.662748   18.696150   20.955575 C.3        1 MOL1        -0.1689
       2    H1      20.717406   18.510212   20.709912 H          1 MOL1         0.0830
       3    H2      19.130252   18.889062   20.014177 H          1 MOL1         0.0830
       4    C2      19.552506   19.892588   21.925834 C.3        1 MOL1        -0.1689
       5    H3      20.553711   20.286354   22.148913 H          1 MOL1         0.0830
       6    H4      18.961464   20.710985   21.492364 H          1 MOL1         0.0830
       7    C3      18.892835   19.353082   23.212770 C.3        1 MOL1        -0.1765
       8    H5      17.817441   19.573992   23.194129 H          1 MOL1         0.0830
       9    H6      19.312249   19.810546   24.118764 H          1 MOL1         0.0830
      10    C4      19.089489   17.831380   23.185525 C.3        1 MOL1         0.1214
      11    H7      18.293864   17.310630   23.737596 H          1 MOL1         0.0787
      12    C5      19.064428   17.478867   21.692185 C.3        1 MOL1        -0.1765
      13    H8      19.610207   16.551093   21.474554 H          1 MOL1         0.0830
      14    H9      18.022425   17.335248   21.377186 H          1 MOL1         0.0830
      15    O1      20.366957   17.515249   23.719325 O.3        1 MOL1        -0.5512
      16    H10     21.003770   18.018326   23.171105 H          1 MOL1         0.3776
@<TRIPOS>BOND
    1     1     2    1
    2     1     3    1
    3     1     4    1
    4     4     5    1
    5     4     6    1
    6     4     7    1
    7     7     8    1
    8     7     9    1
    9     7    10    1
   10    10    11    1
   11     1    12    1
   12    10    12    1
   13    12    13    1
   14    12    14    1
   15    10    15    1
   16    15    16    1
@<TRIPOS>SUBSTRUCTURE
       1 MOL1            1 RESIDUE      1      MOL     
@<SCITEGIC>MOL_PROPERTY
VConf Rank
SciTegic.value.IntegerValue
681

@<SCITEGIC>MOL_PROPERTY
Conf_Id
SciTegic.value.IntegerValue
20

@<SCITEGIC>MOL_PROPERTY
Delta U+W
SciTegic.value.DoubleValue
-0.483

@<SCITEGIC>MOL_PROPERTY
U+W
SciTegic.value.DoubleValue
2.527

@<SCITEGIC>MOL_PROPERTY
Grad RMS
SciTegic.value.DoubleValue
0.000000

@<SCITEGIC>MOL_PROPERTY
U
SciTegic.value.DoubleValue
4.508

@<SCITEGIC>MOL_PROPERTY
W
SciTegic.value.DoubleValue
-1.981

@<SCITEGIC>MOL_PROPERTY
W(PB)
SciTegic.value.DoubleValue
-3.712

@<SCITEGIC>MOL_PROPERTY
W(SA)
SciTegic.value.DoubleValue
1.732

@<SCITEGIC>MOL_PROPERTY
Valence
SciTegic.value.DoubleValue
14.705

@<SCITEGIC>MOL_PROPERTY
Coulomb
SciTegic.value.DoubleValue
-10.687

@<SCITEGIC>MOL_PROPERTY
VdW
SciTegic.value.DoubleValue
0.490

@<SCITEGIC>MOL_PROPERTY
VdW6
SciTegic.value.DoubleValue
-3.745

@<SCITEGIC>MOL_PROPERTY
VdW12
SciTegic.value.DoubleValue
4.235

@<SCITEGIC>MOL_PROPERTY
Bond
SciTegic.value.DoubleValue
0.068

@<SCITEGIC>MOL_PROPERTY
Angle
SciTegic.value.DoubleValue
3.901

@<SCITEGIC>MOL_PROPERTY
Pdih
SciTegic.value.DoubleValue
10.737

@<SCITEGIC>MOL_PROPERTY
Idih
SciTegic.value.DoubleValue
0.000

@<SCITEGIC>MOL_PROPERTY
Tether
SciTegic.value.DoubleValue
0.000

@<TRIPOS>MOLECULE
guest-4_confgen4.mol2 : confsearch ligand conformer 682
          16          16           1
SMALL
USER_CHARGES
 
@<TRIPOS>ATOM
       1    C1      20.277134   17.451286   22.544148 C.3        1 MOL1        -0.1689
       2    H1      19.700355   16.546419   22.307040 H          1 MOL1         0.0830
       3    H2      21.303036   17.149467   22.795290 H          1 MOL1         0.0830
       4    C2      19.593197   18.212066   23.688338 C.3        1 MOL1        -0.1689
       5    H3      19.194712   17.538138   24.458915 H          1 MOL1         0.0830
       6    H4      20.314917   18.890133   24.164752 H          1 MOL1         0.0830
       7    C3      18.487401   19.030524   22.997036 C.3        1 MOL1        -0.1765
       8    H5      18.271773   19.956752   23.545171 H          1 MOL1         0.0830
       9    H6      17.563981   18.436521   22.961826 H          1 MOL1         0.0830
      10    C4      18.990895   19.321465   21.567516 C.3        1 MOL1         0.1214
      11    H7      19.289527   20.376391   21.481092 H          1 MOL1         0.0787
      12    C5      20.225941   18.422883   21.350620 C.3        1 MOL1        -0.1765
      13    H8      20.187726   17.885804   20.393484 H          1 MOL1         0.0830
      14    H9      21.127712   19.048878   21.346169 H          1 MOL1         0.0830
      15    O1      17.980690   19.004677   20.617242 O.3        1 MOL1        -0.5512
      16    H10     17.220572   19.594128   20.807771 H          1 MOL1         0.3776
@<TRIPOS>BOND
    1     1     2    1
    2     1     3    1
    3     1     4    1
    4     4     5    1
    5     4     6    1
    6     4     7    1
    7     7     8    1
    8     7     9    1
    9     7    10    1
   10    10    11    1
   11     1    12    1
   12    10    12    1
   13    12    13    1
   14    12    14    1
   15    10    15    1
   16    15    16    1
@<TRIPOS>SUBSTRUCTURE
       1 MOL1            1 RESIDUE      1      MOL     
@<SCITEGIC>MOL_PROPERTY
VConf Rank
SciTegic.value.IntegerValue
682

@<SCITEGIC>MOL_PROPERTY
Conf_Id
SciTegic.value.IntegerValue
59

@<SCITEGIC>MOL_PROPERTY
Delta U+W
SciTegic.value.DoubleValue
0.000

@<SCITEGIC>MOL_PROPERTY
U+W
SciTegic.value.DoubleValue
3.010

@<SCITEGIC>MOL_PROPERTY
Grad RMS
SciTegic.value.DoubleValue
0.000000

@<SCITEGIC>MOL_PROPERTY
U
SciTegic.value.DoubleValue
5.843

@<SCITEGIC>MOL_PROPERTY
W
SciTegic.value.DoubleValue
-2.833

@<SCITEGIC>MOL_PROPERTY
W(PB)
SciTegic.value.DoubleValue
-4.568

@<SCITEGIC>MOL_PROPERTY
W(SA)
SciTegic.value.DoubleValue
1.735

@<SCITEGIC>MOL_PROPERTY
Valence
SciTegic.value.DoubleValue
13.789

@<SCITEGIC>MOL_PROPERTY
Coulomb
SciTegic.value.DoubleValue
-8.574

@<SCITEGIC>MOL_PROPERTY
VdW
SciTegic.value.DoubleValue
0.628

@<SCITEGIC>MOL_PROPERTY
VdW6
SciTegic.value.DoubleValue
-3.284

@<SCITEGIC>MOL_PROPERTY
VdW12
SciTegic.value.DoubleValue
3.912

@<SCITEGIC>MOL_PROPERTY
Bond
SciTegic.value.DoubleValue
0.054

@<SCITEGIC>MOL_PROPERTY
Angle
SciTegic.value.DoubleValue
4.034

@<SCITEGIC>MOL_PROPERTY
Pdih
SciTegic.value.DoubleValue
9.702

@<SCITEGIC>MOL_PROPERTY
Idih
SciTegic.value.DoubleValue
0.000

@<SCITEGIC>MOL_PROPERTY
Tether
SciTegic.value.DoubleValue
0.000

@<TRIPOS>MOLECULE
guest-4_confgen4.mol2 : confsearch ligand conformer 683
          16          16           1
SMALL
USER_CHARGES
 
@<TRIPOS>ATOM
       1    C1      20.016170   18.259111   21.020546 C.3        1 MOL1        -0.1689
       2    H1      20.833004   17.648336   20.612507 H          1 MOL1         0.0830
       3    H2      19.396857   18.608543   20.182710 H          1 MOL1         0.0830
       4    C2      20.531040   19.464117   21.819667 C.3        1 MOL1        -0.1689
       5    H3      21.407981   19.166221   22.411200 H          1 MOL1         0.0830
       6    H4      20.821070   20.303400   21.173038 H          1 MOL1         0.0830
       7    C3      19.369823   19.824304   22.764610 C.3        1 MOL1        -0.1765
       8    H5      18.708494   20.551113   22.275247 H          1 MOL1         0.0830
       9    H6      19.732751   20.277881   23.696582 H          1 MOL1         0.0830
      10    C4      18.585653   18.519622   23.014966 C.3        1 MOL1         0.1214
      11    H7      17.518073   18.693552   22.816114 H          1 MOL1         0.0787
      12    C5      19.145190   17.478919   22.022197 C.3        1 MOL1        -0.1765
      13    H8      19.768546   16.745073   22.551045 H          1 MOL1         0.0830
      14    H9      18.340114   16.933097   21.513495 H          1 MOL1         0.0830
      15    O1      18.783124   18.077621   24.352702 O.3        1 MOL1        -0.5512
      16    H10     18.274726   17.245002   24.451731 H          1 MOL1         0.3776
@<TRIPOS>BOND
    1     1     2    1
    2     1     3    1
    3     1     4    1
    4     4     5    1
    5     4     6    1
    6     4     7    1
    7     7     8    1
    8     7     9    1
    9     7    10    1
   10    10    11    1
   11     1    12    1
   12    10    12    1
   13    12    13    1
   14    12    14    1
   15    10    15    1
   16    15    16    1
@<TRIPOS>SUBSTRUCTURE
       1 MOL1            1 RESIDUE      1      MOL     
@<SCITEGIC>MOL_PROPERTY
VConf Rank
SciTegic.value.IntegerValue
683

@<SCITEGIC>MOL_PROPERTY
Conf_Id
SciTegic.value.IntegerValue
33

@<SCITEGIC>MOL_PROPERTY
Delta U+W
SciTegic.value.DoubleValue
0.015

@<SCITEGIC>MOL_PROPERTY
U+W
SciTegic.value.DoubleValue
3.025

@<SCITEGIC>MOL_PROPERTY
Grad RMS
SciTegic.value.DoubleValue
0.000000

@<SCITEGIC>MOL_PROPERTY
U
SciTegic.value.DoubleValue
5.843

@<SCITEGIC>MOL_PROPERTY
W
SciTegic.value.DoubleValue
-2.819

@<SCITEGIC>MOL_PROPERTY
W(PB)
SciTegic.value.DoubleValue
-4.568

@<SCITEGIC>MOL_PROPERTY
W(SA)
SciTegic.value.DoubleValue
1.750

@<SCITEGIC>MOL_PROPERTY
Valence
SciTegic.value.DoubleValue
13.789

@<SCITEGIC>MOL_PROPERTY
Coulomb
SciTegic.value.DoubleValue
-8.574

@<SCITEGIC>MOL_PROPERTY
VdW
SciTegic.value.DoubleValue
0.628

@<SCITEGIC>MOL_PROPERTY
VdW6
SciTegic.value.DoubleValue
-3.284

@<SCITEGIC>MOL_PROPERTY
VdW12
SciTegic.value.DoubleValue
3.913

@<SCITEGIC>MOL_PROPERTY
Bond
SciTegic.value.DoubleValue
0.054

@<SCITEGIC>MOL_PROPERTY
Angle
SciTegic.value.DoubleValue
4.033

@<SCITEGIC>MOL_PROPERTY
Pdih
SciTegic.value.DoubleValue
9.702

@<SCITEGIC>MOL_PROPERTY
Idih
SciTegic.value.DoubleValue
0.000

@<SCITEGIC>MOL_PROPERTY
Tether
SciTegic.value.DoubleValue
0.000

@<TRIPOS>MOLECULE
guest-4_confgen4.mol2 : confsearch ligand conformer 684
          16          16           1
SMALL
USER_CHARGES
 
@<TRIPOS>ATOM
       1    C1      19.808463   17.368654   22.016599 C.3        1 MOL1        -0.1689
       2    H1      20.600044   17.024195   22.696286 H          1 MOL1         0.0830
       3    H2      19.585367   16.547608   21.321539 H          1 MOL1         0.0830
       4    C2      20.274322   18.636197   21.267379 C.3        1 MOL1        -0.1689
       5    H3      21.291747   18.904579   21.583675 H          1 MOL1         0.0830
       6    H4      20.293943   18.478517   20.180295 H          1 MOL1         0.0830
       7    C3      19.284490   19.757891   21.647473 C.3        1 MOL1        -0.1765
       8    H5      18.525461   19.859530   20.860602 H          1 MOL1         0.0830
       9    H6      19.781223   20.730799   21.760219 H          1 MOL1         0.0830
      10    C4      18.600933   19.300644   22.943107 C.3        1 MOL1         0.1214
      11    H7      17.593467   19.729784   23.042275 H          1 MOL1         0.0787
      12    C5      18.553897   17.771700   22.820325 C.3        1 MOL1        -0.1765
      13    H8      18.510241   17.276867   23.799733 H          1 MOL1         0.0830
      14    H9      17.652852   17.486446   22.261424 H          1 MOL1         0.0830
      15    O1      19.414363   19.656021   24.051640 O.3        1 MOL1        -0.5512
      16    H10     20.280943   19.234332   23.877343 H          1 MOL1         0.3776
@<TRIPOS>BOND
    1     1     2    1
    2     1     3    1
    3     1     4    1
    4     4     5    1
    5     4     6    1
    6     4     7    1
    7     7     8    1
    8     7     9    1
    9     7    10    1
   10    10    11    1
   11     1    12    1
   12    10    12    1
   13    12    13    1
   14    12    14    1
   15    10    15    1
   16    15    16    1
@<TRIPOS>SUBSTRUCTURE
       1 MOL1            1 RESIDUE      1      MOL     
@<SCITEGIC>MOL_PROPERTY
VConf Rank
SciTegic.value.IntegerValue
684

@<SCITEGIC>MOL_PROPERTY
Conf_Id
SciTegic.value.IntegerValue
20

@<SCITEGIC>MOL_PROPERTY
Delta U+W
SciTegic.value.DoubleValue
-0.483

@<SCITEGIC>MOL_PROPERTY
U+W
SciTegic.value.DoubleValue
2.527

@<SCITEGIC>MOL_PROPERTY
Grad RMS
SciTegic.value.DoubleValue
0.000000

@<SCITEGIC>MOL_PROPERTY
U
SciTegic.value.DoubleValue
4.508

@<SCITEGIC>MOL_PROPERTY
W
SciTegic.value.DoubleValue
-1.981

@<SCITEGIC>MOL_PROPERTY
W(PB)
SciTegic.value.DoubleValue
-3.712

@<SCITEGIC>MOL_PROPERTY
W(SA)
SciTegic.value.DoubleValue
1.732

@<SCITEGIC>MOL_PROPERTY
Valence
SciTegic.value.DoubleValue
14.705

@<SCITEGIC>MOL_PROPERTY
Coulomb
SciTegic.value.DoubleValue
-10.687

@<SCITEGIC>MOL_PROPERTY
VdW
SciTegic.value.DoubleValue
0.490

@<SCITEGIC>MOL_PROPERTY
VdW6
SciTegic.value.DoubleValue
-3.745

@<SCITEGIC>MOL_PROPERTY
VdW12
SciTegic.value.DoubleValue
4.235

@<SCITEGIC>MOL_PROPERTY
Bond
SciTegic.value.DoubleValue
0.068

@<SCITEGIC>MOL_PROPERTY
Angle
SciTegic.value.DoubleValue
3.901

@<SCITEGIC>MOL_PROPERTY
Pdih
SciTegic.value.DoubleValue
10.737

@<SCITEGIC>MOL_PROPERTY
Idih
SciTegic.value.DoubleValue
0.000

@<SCITEGIC>MOL_PROPERTY
Tether
SciTegic.value.DoubleValue
0.000

@<TRIPOS>MOLECULE
guest-4_confgen4.mol2 : confsearch ligand conformer 685
          16          16           1
SMALL
USER_CHARGES
 
@<TRIPOS>ATOM
       1    C1      19.699610   18.470694   23.724870 C.3        1 MOL1        -0.1689
       2    H1      20.459307   19.249465   23.879959 H          1 MOL1         0.0830
       3    H2      19.481397   18.004705   24.695375 H          1 MOL1         0.0830
       4    C2      20.205566   17.457684   22.688749 C.3        1 MOL1        -0.1689
       5    H3      21.274370   17.234538   22.809683 H          1 MOL1         0.0830
       6    H4      19.645055   16.517540   22.786638 H          1 MOL1         0.0830
       7    C3      19.893529   18.111144   21.330008 C.3        1 MOL1        -0.1765
       8    H5      19.715354   17.356239   20.553336 H          1 MOL1         0.0830
       9    H6      20.750225   18.722812   21.015813 H          1 MOL1         0.0830
      10    C4      18.652735   19.001914   21.550554 C.3        1 MOL1         0.1214
      11    H7      17.768268   18.535268   21.092866 H          1 MOL1         0.0787
      12    C5      18.448669   19.092406   23.076988 C.3        1 MOL1        -0.1765
      13    H8      18.288716   20.124754   23.415654 H          1 MOL1         0.0830
      14    H9      17.561281   18.508881   23.354697 H          1 MOL1         0.0830
      15    O1      18.875983   20.297826   21.007726 O.3        1 MOL1        -0.5512
      16    H10     19.009501   20.179662   20.043494 H          1 MOL1         0.3776
@<TRIPOS>BOND
    1     1     2    1
    2     1     3    1
    3     1     4    1
    4     4     5    1
    5     4     6    1
    6     4     7    1
    7     7     8    1
    8     7     9    1
    9     7    10    1
   10    10    11    1
   11     1    12    1
   12    10    12    1
   13    12    13    1
   14    12    14    1
   15    10    15    1
   16    15    16    1
@<TRIPOS>SUBSTRUCTURE
       1 MOL1            1 RESIDUE      1      MOL     
@<SCITEGIC>MOL_PROPERTY
VConf Rank
SciTegic.value.IntegerValue
685

@<SCITEGIC>MOL_PROPERTY
Conf_Id
SciTegic.value.IntegerValue
59

@<SCITEGIC>MOL_PROPERTY
Delta U+W
SciTegic.value.DoubleValue
0.000

@<SCITEGIC>MOL_PROPERTY
U+W
SciTegic.value.DoubleValue
3.010

@<SCITEGIC>MOL_PROPERTY
Grad RMS
SciTegic.value.DoubleValue
0.000000

@<SCITEGIC>MOL_PROPERTY
U
SciTegic.value.DoubleValue
5.843

@<SCITEGIC>MOL_PROPERTY
W
SciTegic.value.DoubleValue
-2.833

@<SCITEGIC>MOL_PROPERTY
W(PB)
SciTegic.value.DoubleValue
-4.568

@<SCITEGIC>MOL_PROPERTY
W(SA)
SciTegic.value.DoubleValue
1.735

@<SCITEGIC>MOL_PROPERTY
Valence
SciTegic.value.DoubleValue
13.789

@<SCITEGIC>MOL_PROPERTY
Coulomb
SciTegic.value.DoubleValue
-8.574

@<SCITEGIC>MOL_PROPERTY
VdW
SciTegic.value.DoubleValue
0.628

@<SCITEGIC>MOL_PROPERTY
VdW6
SciTegic.value.DoubleValue
-3.284

@<SCITEGIC>MOL_PROPERTY
VdW12
SciTegic.value.DoubleValue
3.912

@<SCITEGIC>MOL_PROPERTY
Bond
SciTegic.value.DoubleValue
0.054

@<SCITEGIC>MOL_PROPERTY
Angle
SciTegic.value.DoubleValue
4.034

@<SCITEGIC>MOL_PROPERTY
Pdih
SciTegic.value.DoubleValue
9.702

@<SCITEGIC>MOL_PROPERTY
Idih
SciTegic.value.DoubleValue
0.000

@<SCITEGIC>MOL_PROPERTY
Tether
SciTegic.value.DoubleValue
0.000

@<TRIPOS>MOLECULE
guest-4_confgen4.mol2 : confsearch ligand conformer 686
          16          16           1
SMALL
USER_CHARGES
 
@<TRIPOS>ATOM
       1    C1      19.241745   17.494058   23.167606 C.3        1 MOL1        -0.1689
       2    H1      18.411091   16.926506   23.608806 H          1 MOL1         0.0830
       3    H2      20.177832   16.964525   23.393345 H          1 MOL1         0.0830
       4    C2      19.318333   18.929801   23.704731 C.3        1 MOL1        -0.1689
       5    H3      18.303602   19.338606   23.809042 H          1 MOL1         0.0830
       6    H4      19.814163   18.985750   24.683334 H          1 MOL1         0.0830
       7    C3      20.078536   19.708603   22.615403 C.3        1 MOL1        -0.1765
       8    H5      21.156122   19.674273   22.822075 H          1 MOL1         0.0830
       9    H6      19.777303   20.764325   22.588419 H          1 MOL1         0.0830
      10    C4      19.798888   18.985615   21.281655 C.3        1 MOL1         0.1214
      11    H7      20.752272   18.776869   20.774701 H          1 MOL1         0.0787
      12    C5      19.092669   17.662211   21.644415 C.3        1 MOL1        -0.1765
      13    H8      18.025971   17.717146   21.387668 H          1 MOL1         0.0830
      14    H9      19.526436   16.811793   21.102676 H          1 MOL1         0.0830
      15    O1      18.955237   19.782780   20.459051 O.3        1 MOL1        -0.5512
      16    H10     18.802417   19.273049   19.635431 H          1 MOL1         0.3776
@<TRIPOS>BOND
    1     1     2    1
    2     1     3    1
    3     1     4    1
    4     4     5    1
    5     4     6    1
    6     4     7    1
    7     7     8    1
    8     7     9    1
    9     7    10    1
   10    10    11    1
   11     1    12    1
   12    10    12    1
   13    12    13    1
   14    12    14    1
   15    10    15    1
   16    15    16    1
@<TRIPOS>SUBSTRUCTURE
       1 MOL1            1 RESIDUE      1      MOL     
@<SCITEGIC>MOL_PROPERTY
VConf Rank
SciTegic.value.IntegerValue
686

@<SCITEGIC>MOL_PROPERTY
Conf_Id
SciTegic.value.IntegerValue
33

@<SCITEGIC>MOL_PROPERTY
Delta U+W
SciTegic.value.DoubleValue
0.015

@<SCITEGIC>MOL_PROPERTY
U+W
SciTegic.value.DoubleValue
3.025

@<SCITEGIC>MOL_PROPERTY
Grad RMS
SciTegic.value.DoubleValue
0.000000

@<SCITEGIC>MOL_PROPERTY
U
SciTegic.value.DoubleValue
5.843

@<SCITEGIC>MOL_PROPERTY
W
SciTegic.value.DoubleValue
-2.819

@<SCITEGIC>MOL_PROPERTY
W(PB)
SciTegic.value.DoubleValue
-4.568

@<SCITEGIC>MOL_PROPERTY
W(SA)
SciTegic.value.DoubleValue
1.750

@<SCITEGIC>MOL_PROPERTY
Valence
SciTegic.value.DoubleValue
13.789

@<SCITEGIC>MOL_PROPERTY
Coulomb
SciTegic.value.DoubleValue
-8.574

@<SCITEGIC>MOL_PROPERTY
VdW
SciTegic.value.DoubleValue
0.628

@<SCITEGIC>MOL_PROPERTY
VdW6
SciTegic.value.DoubleValue
-3.284

@<SCITEGIC>MOL_PROPERTY
VdW12
SciTegic.value.DoubleValue
3.913

@<SCITEGIC>MOL_PROPERTY
Bond
SciTegic.value.DoubleValue
0.054

@<SCITEGIC>MOL_PROPERTY
Angle
SciTegic.value.DoubleValue
4.033

@<SCITEGIC>MOL_PROPERTY
Pdih
SciTegic.value.DoubleValue
9.702

@<SCITEGIC>MOL_PROPERTY
Idih
SciTegic.value.DoubleValue
0.000

@<SCITEGIC>MOL_PROPERTY
Tether
SciTegic.value.DoubleValue
0.000

@<TRIPOS>MOLECULE
guest-4_confgen4.mol2 : confsearch ligand conformer 687
          16          16           1
SMALL
USER_CHARGES
 
@<TRIPOS>ATOM
       1    C1      18.251696   19.195715   21.842095 C.3        1 MOL1        -0.1689
       2    H1      18.361888   20.258989   21.588057 H          1 MOL1         0.0830
       3    H2      17.206392   18.914702   21.654036 H          1 MOL1         0.0830
       4    C2      18.645218   18.964689   23.317489 C.3        1 MOL1        -0.1689
       5    H3      18.944845   19.916305   23.777790 H          1 MOL1         0.0830
       6    H4      17.806031   18.561853   23.901002 H          1 MOL1         0.0830
       7    C3      19.834571   17.980969   23.304338 C.3        1 MOL1        -0.1765
       8    H5      19.469864   16.961948   23.489285 H          1 MOL1         0.0830
       9    H6      20.577397   18.215616   24.078389 H          1 MOL1         0.0830
      10    C4      20.427083   18.049203   21.890384 C.3        1 MOL1         0.1214
      11    H7      20.918763   17.106014   21.611766 H          1 MOL1         0.0787
      12    C5      19.217242   18.341963   20.992868 C.3        1 MOL1        -0.1765
      13    H8      19.503905   18.842920   20.058593 H          1 MOL1         0.0830
      14    H9      18.731927   17.393311   20.728008 H          1 MOL1         0.0830
      15    O1      21.337890   19.136326   21.816909 O.3        1 MOL1        -0.5512
      16    H10     20.817040   19.923241   22.078904 H          1 MOL1         0.3776
@<TRIPOS>BOND
    1     1     2    1
    2     1     3    1
    3     1     4    1
    4     4     5    1
    5     4     6    1
    6     4     7    1
    7     7     8    1
    8     7     9    1
    9     7    10    1
   10    10    11    1
   11     1    12    1
   12    10    12    1
   13    12    13    1
   14    12    14    1
   15    10    15    1
   16    15    16    1
@<TRIPOS>SUBSTRUCTURE
       1 MOL1            1 RESIDUE      1      MOL     
@<SCITEGIC>MOL_PROPERTY
VConf Rank
SciTegic.value.IntegerValue
687

@<SCITEGIC>MOL_PROPERTY
Conf_Id
SciTegic.value.IntegerValue
20

@<SCITEGIC>MOL_PROPERTY
Delta U+W
SciTegic.value.DoubleValue
-0.483

@<SCITEGIC>MOL_PROPERTY
U+W
SciTegic.value.DoubleValue
2.527

@<SCITEGIC>MOL_PROPERTY
Grad RMS
SciTegic.value.DoubleValue
0.000000

@<SCITEGIC>MOL_PROPERTY
U
SciTegic.value.DoubleValue
4.508

@<SCITEGIC>MOL_PROPERTY
W
SciTegic.value.DoubleValue
-1.981

@<SCITEGIC>MOL_PROPERTY
W(PB)
SciTegic.value.DoubleValue
-3.712

@<SCITEGIC>MOL_PROPERTY
W(SA)
SciTegic.value.DoubleValue
1.732

@<SCITEGIC>MOL_PROPERTY
Valence
SciTegic.value.DoubleValue
14.705

@<SCITEGIC>MOL_PROPERTY
Coulomb
SciTegic.value.DoubleValue
-10.687

@<SCITEGIC>MOL_PROPERTY
VdW
SciTegic.value.DoubleValue
0.490

@<SCITEGIC>MOL_PROPERTY
VdW6
SciTegic.value.DoubleValue
-3.745

@<SCITEGIC>MOL_PROPERTY
VdW12
SciTegic.value.DoubleValue
4.235

@<SCITEGIC>MOL_PROPERTY
Bond
SciTegic.value.DoubleValue
0.068

@<SCITEGIC>MOL_PROPERTY
Angle
SciTegic.value.DoubleValue
3.901

@<SCITEGIC>MOL_PROPERTY
Pdih
SciTegic.value.DoubleValue
10.737

@<SCITEGIC>MOL_PROPERTY
Idih
SciTegic.value.DoubleValue
0.000

@<SCITEGIC>MOL_PROPERTY
Tether
SciTegic.value.DoubleValue
0.000

@<TRIPOS>MOLECULE
guest-4_confgen4.mol2 : confsearch ligand conformer 688
          16          16           1
SMALL
USER_CHARGES
 
@<TRIPOS>ATOM
       1    C1      19.276630   17.102618   22.331171 C.3        1 MOL1        -0.1689
       2    H1      20.110245   16.763700   21.700381 H          1 MOL1         0.0830
       3    H2      18.777406   16.216827   22.746855 H          1 MOL1         0.0830
       4    C2      18.325738   17.976031   21.501304 C.3        1 MOL1        -0.1689
       5    H3      18.185867   17.590099   20.482357 H          1 MOL1         0.0830
       6    H4      17.342514   18.019670   21.990173 H          1 MOL1         0.0830
       7    C3      18.976778   19.371205   21.515178 C.3        1 MOL1        -0.1765
       8    H5      18.224239   20.165866   21.431247 H          1 MOL1         0.0830
       9    H6      19.659984   19.461776   20.659719 H          1 MOL1         0.0830
      10    C4      19.762281   19.471422   22.839800 C.3        1 MOL1         0.1214
      11    H7      19.235319   20.135341   23.540543 H          1 MOL1         0.0787
      12    C5      19.808804   18.045331   23.426258 C.3        1 MOL1        -0.1765
      13    H8      20.818957   17.760219   23.749248 H          1 MOL1         0.0830
      14    H9      19.151872   17.997851   24.304476 H          1 MOL1         0.0830
      15    O1      21.081377   19.944020   22.593783 O.3        1 MOL1        -0.5512
      16    H10     20.991556   20.843557   22.213918 H          1 MOL1         0.3776
@<TRIPOS>BOND
    1     1     2    1
    2     1     3    1
    3     1     4    1
    4     4     5    1
    5     4     6    1
    6     4     7    1
    7     7     8    1
    8     7     9    1
    9     7    10    1
   10    10    11    1
   11     1    12    1
   12    10    12    1
   13    12    13    1
   14    12    14    1
   15    10    15    1
   16    15    16    1
@<TRIPOS>SUBSTRUCTURE
       1 MOL1            1 RESIDUE      1      MOL     
@<SCITEGIC>MOL_PROPERTY
VConf Rank
SciTegic.value.IntegerValue
688

@<SCITEGIC>MOL_PROPERTY
Conf_Id
SciTegic.value.IntegerValue
59

@<SCITEGIC>MOL_PROPERTY
Delta U+W
SciTegic.value.DoubleValue
0.000

@<SCITEGIC>MOL_PROPERTY
U+W
SciTegic.value.DoubleValue
3.010

@<SCITEGIC>MOL_PROPERTY
Grad RMS
SciTegic.value.DoubleValue
0.000000

@<SCITEGIC>MOL_PROPERTY
U
SciTegic.value.DoubleValue
5.843

@<SCITEGIC>MOL_PROPERTY
W
SciTegic.value.DoubleValue
-2.833

@<SCITEGIC>MOL_PROPERTY
W(PB)
SciTegic.value.DoubleValue
-4.568

@<SCITEGIC>MOL_PROPERTY
W(SA)
SciTegic.value.DoubleValue
1.735

@<SCITEGIC>MOL_PROPERTY
Valence
SciTegic.value.DoubleValue
13.789

@<SCITEGIC>MOL_PROPERTY
Coulomb
SciTegic.value.DoubleValue
-8.574

@<SCITEGIC>MOL_PROPERTY
VdW
SciTegic.value.DoubleValue
0.628

@<SCITEGIC>MOL_PROPERTY
VdW6
SciTegic.value.DoubleValue
-3.284

@<SCITEGIC>MOL_PROPERTY
VdW12
SciTegic.value.DoubleValue
3.912

@<SCITEGIC>MOL_PROPERTY
Bond
SciTegic.value.DoubleValue
0.054

@<SCITEGIC>MOL_PROPERTY
Angle
SciTegic.value.DoubleValue
4.034

@<SCITEGIC>MOL_PROPERTY
Pdih
SciTegic.value.DoubleValue
9.702

@<SCITEGIC>MOL_PROPERTY
Idih
SciTegic.value.DoubleValue
0.000

@<SCITEGIC>MOL_PROPERTY
Tether
SciTegic.value.DoubleValue
0.000

@<TRIPOS>MOLECULE
guest-4_confgen4.mol2 : confsearch ligand conformer 689
          16          16           1
SMALL
USER_CHARGES
 
@<TRIPOS>ATOM
       1    C1      20.669392   19.189678   22.787549 C.3        1 MOL1        -0.1689
       2    H1      21.689516   18.881059   23.053746 H          1 MOL1         0.0830
       3    H2      20.623758   20.287252   22.817055 H          1 MOL1         0.0830
       4    C2      19.615463   18.603441   23.736911 C.3        1 MOL1        -0.1689
       5    H3      19.880610   17.566550   23.986377 H          1 MOL1         0.0830
       6    H4      19.531541   19.171941   24.673077 H          1 MOL1         0.0830
       7    C3      18.309988   18.619682   22.920488 C.3        1 MOL1        -0.1765
       8    H5      17.787391   19.571770   23.080193 H          1 MOL1         0.0830
       9    H6      17.632057   17.811484   23.225847 H          1 MOL1         0.0830
      10    C4      18.717891   18.512528   21.436598 C.3        1 MOL1         0.1214
      11    H7      18.230557   19.317139   20.866839 H          1 MOL1         0.0787
      12    C5      20.250538   18.688197   21.393387 C.3        1 MOL1        -0.1765
      13    H8      20.738593   17.724837   21.192084 H          1 MOL1         0.0830
      14    H9      20.554046   19.390785   20.606558 H          1 MOL1         0.0830
      15    O1      18.355080   17.238051   20.918935 O.3        1 MOL1        -0.5512
      16    H10     18.646196   17.221517   19.982715 H          1 MOL1         0.3776
@<TRIPOS>BOND
    1     1     2    1
    2     1     3    1
    3     1     4    1
    4     4     5    1
    5     4     6    1
    6     4     7    1
    7     7     8    1
    8     7     9    1
    9     7    10    1
   10    10    11    1
   11     1    12    1
   12    10    12    1
   13    12    13    1
   14    12    14    1
   15    10    15    1
   16    15    16    1
@<TRIPOS>SUBSTRUCTURE
       1 MOL1            1 RESIDUE      1      MOL     
@<SCITEGIC>MOL_PROPERTY
VConf Rank
SciTegic.value.IntegerValue
689

@<SCITEGIC>MOL_PROPERTY
Conf_Id
SciTegic.value.IntegerValue
33

@<SCITEGIC>MOL_PROPERTY
Delta U+W
SciTegic.value.DoubleValue
0.015

@<SCITEGIC>MOL_PROPERTY
U+W
SciTegic.value.DoubleValue
3.025

@<SCITEGIC>MOL_PROPERTY
Grad RMS
SciTegic.value.DoubleValue
0.000000

@<SCITEGIC>MOL_PROPERTY
U
SciTegic.value.DoubleValue
5.843

@<SCITEGIC>MOL_PROPERTY
W
SciTegic.value.DoubleValue
-2.819

@<SCITEGIC>MOL_PROPERTY
W(PB)
SciTegic.value.DoubleValue
-4.568

@<SCITEGIC>MOL_PROPERTY
W(SA)
SciTegic.value.DoubleValue
1.750

@<SCITEGIC>MOL_PROPERTY
Valence
SciTegic.value.DoubleValue
13.789

@<SCITEGIC>MOL_PROPERTY
Coulomb
SciTegic.value.DoubleValue
-8.574

@<SCITEGIC>MOL_PROPERTY
VdW
SciTegic.value.DoubleValue
0.628

@<SCITEGIC>MOL_PROPERTY
VdW6
SciTegic.value.DoubleValue
-3.284

@<SCITEGIC>MOL_PROPERTY
VdW12
SciTegic.value.DoubleValue
3.913

@<SCITEGIC>MOL_PROPERTY
Bond
SciTegic.value.DoubleValue
0.054

@<SCITEGIC>MOL_PROPERTY
Angle
SciTegic.value.DoubleValue
4.033

@<SCITEGIC>MOL_PROPERTY
Pdih
SciTegic.value.DoubleValue
9.702

@<SCITEGIC>MOL_PROPERTY
Idih
SciTegic.value.DoubleValue
0.000

@<SCITEGIC>MOL_PROPERTY
Tether
SciTegic.value.DoubleValue
0.000

@<TRIPOS>MOLECULE
guest-4_confgen4.mol2 : confsearch ligand conformer 690
          16          16           1
SMALL
USER_CHARGES
 
@<TRIPOS>ATOM
       1    C1      18.107128   18.837750   22.600871 C.3        1 MOL1        -0.1689
       2    H1      17.981752   19.309335   23.585307 H          1 MOL1         0.0830
       3    H2      17.107263   18.703479   22.165856 H          1 MOL1         0.0830
       4    C2      18.845332   17.489962   22.754322 C.3        1 MOL1        -0.1689
       5    H3      19.076282   17.308759   23.813121 H          1 MOL1         0.0830
       6    H4      18.231993   16.650741   22.398622 H          1 MOL1         0.0830
       7    C3      20.149271   17.609617   21.937095 C.3        1 MOL1        -0.1765
       8    H5      20.007467   17.148979   20.950522 H          1 MOL1         0.0830
       9    H6      20.993553   17.103467   22.423927 H          1 MOL1         0.0830
      10    C4      20.399804   19.112509   21.753951 C.3        1 MOL1         0.1214
      11    H7      20.968150   19.319009   20.835624 H          1 MOL1         0.0787
      12    C5      18.992126   19.720786   21.695672 C.3        1 MOL1        -0.1765
      13    H8      18.981362   20.774854   22.003615 H          1 MOL1         0.0830
      14    H9      18.624665   19.670881   20.662181 H          1 MOL1         0.0830
      15    O1      21.079880   19.615708   22.894606 O.3        1 MOL1        -0.5512
      16    H10     20.505726   19.387928   23.654623 H          1 MOL1         0.3776
@<TRIPOS>BOND
    1     1     2    1
    2     1     3    1
    3     1     4    1
    4     4     5    1
    5     4     6    1
    6     4     7    1
    7     7     8    1
    8     7     9    1
    9     7    10    1
   10    10    11    1
   11     1    12    1
   12    10    12    1
   13    12    13    1
   14    12    14    1
   15    10    15    1
   16    15    16    1
@<TRIPOS>SUBSTRUCTURE
       1 MOL1            1 RESIDUE      1      MOL     
@<SCITEGIC>MOL_PROPERTY
VConf Rank
SciTegic.value.IntegerValue
690

@<SCITEGIC>MOL_PROPERTY
Conf_Id
SciTegic.value.IntegerValue
20

@<SCITEGIC>MOL_PROPERTY
Delta U+W
SciTegic.value.DoubleValue
-0.483

@<SCITEGIC>MOL_PROPERTY
U+W
SciTegic.value.DoubleValue
2.527

@<SCITEGIC>MOL_PROPERTY
Grad RMS
SciTegic.value.DoubleValue
0.000000

@<SCITEGIC>MOL_PROPERTY
U
SciTegic.value.DoubleValue
4.508

@<SCITEGIC>MOL_PROPERTY
W
SciTegic.value.DoubleValue
-1.981

@<SCITEGIC>MOL_PROPERTY
W(PB)
SciTegic.value.DoubleValue
-3.712

@<SCITEGIC>MOL_PROPERTY
W(SA)
SciTegic.value.DoubleValue
1.732

@<SCITEGIC>MOL_PROPERTY
Valence
SciTegic.value.DoubleValue
14.705

@<SCITEGIC>MOL_PROPERTY
Coulomb
SciTegic.value.DoubleValue
-10.687

@<SCITEGIC>MOL_PROPERTY
VdW
SciTegic.value.DoubleValue
0.490

@<SCITEGIC>MOL_PROPERTY
VdW6
SciTegic.value.DoubleValue
-3.745

@<SCITEGIC>MOL_PROPERTY
VdW12
SciTegic.value.DoubleValue
4.235

@<SCITEGIC>MOL_PROPERTY
Bond
SciTegic.value.DoubleValue
0.068

@<SCITEGIC>MOL_PROPERTY
Angle
SciTegic.value.DoubleValue
3.901

@<SCITEGIC>MOL_PROPERTY
Pdih
SciTegic.value.DoubleValue
10.737

@<SCITEGIC>MOL_PROPERTY
Idih
SciTegic.value.DoubleValue
0.000

@<SCITEGIC>MOL_PROPERTY
Tether
SciTegic.value.DoubleValue
0.000

@<TRIPOS>MOLECULE
guest-4_confgen4.mol2 : confsearch ligand conformer 691
          16          16           1
SMALL
USER_CHARGES
 
@<TRIPOS>ATOM
       1    C1      19.229719   19.487250   21.206696 C.3        1 MOL1        -0.1689
       2    H1      19.231171   20.482748   21.672163 H          1 MOL1         0.0830
       3    H2      19.190091   19.617115   20.116646 H          1 MOL1         0.0830
       4    C2      18.046209   18.670380   21.743123 C.3        1 MOL1        -0.1689
       5    H3      17.137954   19.277279   21.859342 H          1 MOL1         0.0830
       6    H4      17.822467   17.845998   21.051778 H          1 MOL1         0.0830
       7    C3      18.548037   18.104071   23.084026 C.3        1 MOL1        -0.1765
       8    H5      18.066161   17.146638   23.320589 H          1 MOL1         0.0830
       9    H6      18.307506   18.811033   23.889716 H          1 MOL1         0.0830
      10    C4      20.077457   17.950601   22.946190 C.3        1 MOL1         0.1214
      11    H7      20.341125   16.888092   22.840968 H          1 MOL1         0.0787
      12    C5      20.475558   18.704137   21.660292 C.3        1 MOL1        -0.1765
      13    H8      21.336107   19.368407   21.815923 H          1 MOL1         0.0830
      14    H9      20.752881   17.974007   20.888875 H          1 MOL1         0.0830
      15    O1      20.731738   18.522584   24.072530 O.3        1 MOL1        -0.5512
      16    H10     20.435385   18.015196   24.857555 H          1 MOL1         0.3776
@<TRIPOS>BOND
    1     1     2    1
    2     1     3    1
    3     1     4    1
    4     4     5    1
    5     4     6    1
    6     4     7    1
    7     7     8    1
    8     7     9    1
    9     7    10    1
   10    10    11    1
   11     1    12    1
   12    10    12    1
   13    12    13    1
   14    12    14    1
   15    10    15    1
   16    15    16    1
@<TRIPOS>SUBSTRUCTURE
       1 MOL1            1 RESIDUE      1      MOL     
@<SCITEGIC>MOL_PROPERTY
VConf Rank
SciTegic.value.IntegerValue
691

@<SCITEGIC>MOL_PROPERTY
Conf_Id
SciTegic.value.IntegerValue
59

@<SCITEGIC>MOL_PROPERTY
Delta U+W
SciTegic.value.DoubleValue
0.000

@<SCITEGIC>MOL_PROPERTY
U+W
SciTegic.value.DoubleValue
3.010

@<SCITEGIC>MOL_PROPERTY
Grad RMS
SciTegic.value.DoubleValue
0.000000

@<SCITEGIC>MOL_PROPERTY
U
SciTegic.value.DoubleValue
5.843

@<SCITEGIC>MOL_PROPERTY
W
SciTegic.value.DoubleValue
-2.833

@<SCITEGIC>MOL_PROPERTY
W(PB)
SciTegic.value.DoubleValue
-4.568

@<SCITEGIC>MOL_PROPERTY
W(SA)
SciTegic.value.DoubleValue
1.735

@<SCITEGIC>MOL_PROPERTY
Valence
SciTegic.value.DoubleValue
13.789

@<SCITEGIC>MOL_PROPERTY
Coulomb
SciTegic.value.DoubleValue
-8.574

@<SCITEGIC>MOL_PROPERTY
VdW
SciTegic.value.DoubleValue
0.628

@<SCITEGIC>MOL_PROPERTY
VdW6
SciTegic.value.DoubleValue
-3.284

@<SCITEGIC>MOL_PROPERTY
VdW12
SciTegic.value.DoubleValue
3.912

@<SCITEGIC>MOL_PROPERTY
Bond
SciTegic.value.DoubleValue
0.054

@<SCITEGIC>MOL_PROPERTY
Angle
SciTegic.value.DoubleValue
4.034

@<SCITEGIC>MOL_PROPERTY
Pdih
SciTegic.value.DoubleValue
9.702

@<SCITEGIC>MOL_PROPERTY
Idih
SciTegic.value.DoubleValue
0.000

@<SCITEGIC>MOL_PROPERTY
Tether
SciTegic.value.DoubleValue
0.000

@<TRIPOS>MOLECULE
guest-4_confgen4.mol2 : confsearch ligand conformer 692
          16          16           1
SMALL
USER_CHARGES
 
@<TRIPOS>ATOM
       1    C1      18.365144   19.444526   22.724281 C.3        1 MOL1        -0.1689
       2    H1      18.144586   20.190207   23.500214 H          1 MOL1         0.0830
       3    H2      17.523958   19.425100   22.017422 H          1 MOL1         0.0830
       4    C2      18.581891   18.041460   23.307510 C.3        1 MOL1        -0.1689
       5    H3      19.151488   18.116014   24.244356 H          1 MOL1         0.0830
       6    H4      17.636117   17.524729   23.519980 H          1 MOL1         0.0830
       7    C3      19.426023   17.309880   22.247649 C.3        1 MOL1        -0.1765
       8    H5      18.763153   16.806999   21.531549 H          1 MOL1         0.0830
       9    H6      20.069591   16.544309   22.701236 H          1 MOL1         0.0830
      10    C4      20.237280   18.393058   21.507119 C.3        1 MOL1         0.1214
      11    H7      20.094750   18.275995   20.422914 H          1 MOL1         0.0787
      12    C5      19.671951   19.752252   21.970509 C.3        1 MOL1        -0.1765
      13    H8      20.377553   20.245268   22.653035 H          1 MOL1         0.0830
      14    H9      19.496466   20.426499   21.122310 H          1 MOL1         0.0830
      15    O1      21.614927   18.292623   21.847559 O.3        1 MOL1        -0.5512
      16    H10     22.077736   19.006992   21.360717 H          1 MOL1         0.3776
@<TRIPOS>BOND
    1     1     2    1
    2     1     3    1
    3     1     4    1
    4     4     5    1
    5     4     6    1
    6     4     7    1
    7     7     8    1
    8     7     9    1
    9     7    10    1
   10    10    11    1
   11     1    12    1
   12    10    12    1
   13    12    13    1
   14    12    14    1
   15    10    15    1
   16    15    16    1
@<TRIPOS>SUBSTRUCTURE
       1 MOL1            1 RESIDUE      1      MOL     
@<SCITEGIC>MOL_PROPERTY
VConf Rank
SciTegic.value.IntegerValue
692

@<SCITEGIC>MOL_PROPERTY
Conf_Id
SciTegic.value.IntegerValue
33

@<SCITEGIC>MOL_PROPERTY
Delta U+W
SciTegic.value.DoubleValue
0.015

@<SCITEGIC>MOL_PROPERTY
U+W
SciTegic.value.DoubleValue
3.025

@<SCITEGIC>MOL_PROPERTY
Grad RMS
SciTegic.value.DoubleValue
0.000000

@<SCITEGIC>MOL_PROPERTY
U
SciTegic.value.DoubleValue
5.843

@<SCITEGIC>MOL_PROPERTY
W
SciTegic.value.DoubleValue
-2.819

@<SCITEGIC>MOL_PROPERTY
W(PB)
SciTegic.value.DoubleValue
-4.568

@<SCITEGIC>MOL_PROPERTY
W(SA)
SciTegic.value.DoubleValue
1.750

@<SCITEGIC>MOL_PROPERTY
Valence
SciTegic.value.DoubleValue
13.789

@<SCITEGIC>MOL_PROPERTY
Coulomb
SciTegic.value.DoubleValue
-8.574

@<SCITEGIC>MOL_PROPERTY
VdW
SciTegic.value.DoubleValue
0.628

@<SCITEGIC>MOL_PROPERTY
VdW6
SciTegic.value.DoubleValue
-3.284

@<SCITEGIC>MOL_PROPERTY
VdW12
SciTegic.value.DoubleValue
3.913

@<SCITEGIC>MOL_PROPERTY
Bond
SciTegic.value.DoubleValue
0.054

@<SCITEGIC>MOL_PROPERTY
Angle
SciTegic.value.DoubleValue
4.033

@<SCITEGIC>MOL_PROPERTY
Pdih
SciTegic.value.DoubleValue
9.702

@<SCITEGIC>MOL_PROPERTY
Idih
SciTegic.value.DoubleValue
0.000

@<SCITEGIC>MOL_PROPERTY
Tether
SciTegic.value.DoubleValue
0.000

@<TRIPOS>MOLECULE
guest-4_confgen4.mol2 : confsearch ligand conformer 693
          16          16           1
SMALL
USER_CHARGES
 
@<TRIPOS>ATOM
       1    C1      19.037195   17.930798   23.356759 C.3        1 MOL1        -0.1689
       2    H1      18.114142   17.343268   23.256716 H          1 MOL1         0.0830
       3    H2      19.430551   17.763761   24.368869 H          1 MOL1         0.0830
       4    C2      18.739066   19.424658   23.102746 C.3        1 MOL1        -0.1689
       5    H3      17.671551   19.560250   22.880814 H          1 MOL1         0.0830
       6    H4      18.977438   20.039215   23.981664 H          1 MOL1         0.0830
       7    C3      19.593534   19.840836   21.886556 C.3        1 MOL1        -0.1765
       8    H5      20.514086   20.327877   22.234401 H          1 MOL1         0.0830
       9    H6      19.068201   20.548459   21.231346 H          1 MOL1         0.0830
      10    C4      19.961779   18.539936   21.160576 C.3        1 MOL1         0.1214
      11    H7      20.910690   18.636509   20.613561 H          1 MOL1         0.0787
      12    C5      20.061552   17.500691   22.285285 C.3        1 MOL1        -0.1765
      13    H8      19.882569   16.478966   21.924664 H          1 MOL1         0.0830
      14    H9      21.073097   17.532265   22.711200 H          1 MOL1         0.0830
      15    O1      18.905391   18.179083   20.282717 O.3        1 MOL1        -0.5512
      16    H10     18.110909   18.117190   20.852041 H          1 MOL1         0.3776
@<TRIPOS>BOND
    1     1     2    1
    2     1     3    1
    3     1     4    1
    4     4     5    1
    5     4     6    1
    6     4     7    1
    7     7     8    1
    8     7     9    1
    9     7    10    1
   10    10    11    1
   11     1    12    1
   12    10    12    1
   13    12    13    1
   14    12    14    1
   15    10    15    1
   16    15    16    1
@<TRIPOS>SUBSTRUCTURE
       1 MOL1            1 RESIDUE      1      MOL     
@<SCITEGIC>MOL_PROPERTY
VConf Rank
SciTegic.value.IntegerValue
693

@<SCITEGIC>MOL_PROPERTY
Conf_Id
SciTegic.value.IntegerValue
20

@<SCITEGIC>MOL_PROPERTY
Delta U+W
SciTegic.value.DoubleValue
-0.483

@<SCITEGIC>MOL_PROPERTY
U+W
SciTegic.value.DoubleValue
2.527

@<SCITEGIC>MOL_PROPERTY
Grad RMS
SciTegic.value.DoubleValue
0.000000

@<SCITEGIC>MOL_PROPERTY
U
SciTegic.value.DoubleValue
4.508

@<SCITEGIC>MOL_PROPERTY
W
SciTegic.value.DoubleValue
-1.981

@<SCITEGIC>MOL_PROPERTY
W(PB)
SciTegic.value.DoubleValue
-3.712

@<SCITEGIC>MOL_PROPERTY
W(SA)
SciTegic.value.DoubleValue
1.732

@<SCITEGIC>MOL_PROPERTY
Valence
SciTegic.value.DoubleValue
14.705

@<SCITEGIC>MOL_PROPERTY
Coulomb
SciTegic.value.DoubleValue
-10.687

@<SCITEGIC>MOL_PROPERTY
VdW
SciTegic.value.DoubleValue
0.490

@<SCITEGIC>MOL_PROPERTY
VdW6
SciTegic.value.DoubleValue
-3.745

@<SCITEGIC>MOL_PROPERTY
VdW12
SciTegic.value.DoubleValue
4.235

@<SCITEGIC>MOL_PROPERTY
Bond
SciTegic.value.DoubleValue
0.068

@<SCITEGIC>MOL_PROPERTY
Angle
SciTegic.value.DoubleValue
3.901

@<SCITEGIC>MOL_PROPERTY
Pdih
SciTegic.value.DoubleValue
10.737

@<SCITEGIC>MOL_PROPERTY
Idih
SciTegic.value.DoubleValue
0.000

@<SCITEGIC>MOL_PROPERTY
Tether
SciTegic.value.DoubleValue
0.000

@<TRIPOS>MOLECULE
guest-4_confgen4.mol2 : confsearch ligand conformer 694
          16          16           1
SMALL
USER_CHARGES
 
@<TRIPOS>ATOM
       1    C1      18.949108   18.776417   23.691472 C.3        1 MOL1        -0.1689
       2    H1      18.330261   17.905378   23.948370 H          1 MOL1         0.0830
       3    H2      19.042749   19.407722   24.585525 H          1 MOL1         0.0830
       4    C2      18.318487   19.524607   22.508993 C.3        1 MOL1        -0.1689
       5    H3      17.223098   19.569261   22.578906 H          1 MOL1         0.0830
       6    H4      18.702859   20.553560   22.475251 H          1 MOL1         0.0830
       7    C3      18.795212   18.749454   21.267048 C.3        1 MOL1        -0.1765
       8    H5      18.871771   19.405014   20.389993 H          1 MOL1         0.0830
       9    H6      18.071388   17.956748   21.033636 H          1 MOL1         0.0830
      10    C4      20.161493   18.134184   21.636369 C.3        1 MOL1         0.1214
      11    H7      20.969801   18.680211   21.128420 H          1 MOL1         0.0787
      12    C5      20.314702   18.300689   23.162356 C.3        1 MOL1        -0.1765
      13    H8      20.637139   17.372425   23.652643 H          1 MOL1         0.0830
      14    H9      21.075120   19.066229   23.364335 H          1 MOL1         0.0830
      15    O1      20.189141   16.755121   21.288074 O.3        1 MOL1        -0.5512
      16    H10     20.077240   16.708515   20.315018 H          1 MOL1         0.3776
@<TRIPOS>BOND
    1     1     2    1
    2     1     3    1
    3     1     4    1
    4     4     5    1
    5     4     6    1
    6     4     7    1
    7     7     8    1
    8     7     9    1
    9     7    10    1
   10    10    11    1
   11     1    12    1
   12    10    12    1
   13    12    13    1
   14    12    14    1
   15    10    15    1
   16    15    16    1
@<TRIPOS>SUBSTRUCTURE
       1 MOL1            1 RESIDUE      1      MOL     
@<SCITEGIC>MOL_PROPERTY
VConf Rank
SciTegic.value.IntegerValue
694

@<SCITEGIC>MOL_PROPERTY
Conf_Id
SciTegic.value.IntegerValue
59

@<SCITEGIC>MOL_PROPERTY
Delta U+W
SciTegic.value.DoubleValue
0.000

@<SCITEGIC>MOL_PROPERTY
U+W
SciTegic.value.DoubleValue
3.010

@<SCITEGIC>MOL_PROPERTY
Grad RMS
SciTegic.value.DoubleValue
0.000000

@<SCITEGIC>MOL_PROPERTY
U
SciTegic.value.DoubleValue
5.843

@<SCITEGIC>MOL_PROPERTY
W
SciTegic.value.DoubleValue
-2.833

@<SCITEGIC>MOL_PROPERTY
W(PB)
SciTegic.value.DoubleValue
-4.568

@<SCITEGIC>MOL_PROPERTY
W(SA)
SciTegic.value.DoubleValue
1.735

@<SCITEGIC>MOL_PROPERTY
Valence
SciTegic.value.DoubleValue
13.789

@<SCITEGIC>MOL_PROPERTY
Coulomb
SciTegic.value.DoubleValue
-8.574

@<SCITEGIC>MOL_PROPERTY
VdW
SciTegic.value.DoubleValue
0.628

@<SCITEGIC>MOL_PROPERTY
VdW6
SciTegic.value.DoubleValue
-3.284

@<SCITEGIC>MOL_PROPERTY
VdW12
SciTegic.value.DoubleValue
3.912

@<SCITEGIC>MOL_PROPERTY
Bond
SciTegic.value.DoubleValue
0.054

@<SCITEGIC>MOL_PROPERTY
Angle
SciTegic.value.DoubleValue
4.034

@<SCITEGIC>MOL_PROPERTY
Pdih
SciTegic.value.DoubleValue
9.702

@<SCITEGIC>MOL_PROPERTY
Idih
SciTegic.value.DoubleValue
0.000

@<SCITEGIC>MOL_PROPERTY
Tether
SciTegic.value.DoubleValue
0.000

@<TRIPOS>MOLECULE
guest-4_confgen4.mol2 : confsearch ligand conformer 695
          16          16           1
SMALL
USER_CHARGES
 
@<TRIPOS>ATOM
       1    C1      18.385643   17.774848   21.821097 C.3        1 MOL1        -0.1689
       2    H1      17.819150   17.587831   20.898672 H          1 MOL1         0.0830
       3    H2      18.106605   17.008008   22.557110 H          1 MOL1         0.0830
       4    C2      18.113836   19.169830   22.400644 C.3        1 MOL1        -0.1689
       5    H3      18.043885   19.901001   21.583224 H          1 MOL1         0.0830
       6    H4      17.180555   19.209470   22.978621 H          1 MOL1         0.0830
       7    C3      19.352327   19.476919   23.262567 C.3        1 MOL1        -0.1765
       8    H5      19.184982   19.121810   24.287739 H          1 MOL1         0.0830
       9    H6      19.553519   20.555409   23.311560 H          1 MOL1         0.0830
      10    C4      20.525556   18.689958   22.642869 C.3        1 MOL1         0.1214
      11    H7      21.024445   18.103280   23.428005 H          1 MOL1         0.0787
      12    C5      19.907612   17.745773   21.590066 C.3        1 MOL1        -0.1765
      13    H8      20.128269   18.108769   20.576988 H          1 MOL1         0.0830
      14    H9      20.307181   16.727187   21.677670 H          1 MOL1         0.0830
      15    O1      21.442475   19.583634   22.022790 O.3        1 MOL1        -0.5512
      16    H10     22.156575   19.032186   21.638737 H          1 MOL1         0.3776
@<TRIPOS>BOND
    1     1     2    1
    2     1     3    1
    3     1     4    1
    4     4     5    1
    5     4     6    1
    6     4     7    1
    7     7     8    1
    8     7     9    1
    9     7    10    1
   10    10    11    1
   11     1    12    1
   12    10    12    1
   13    12    13    1
   14    12    14    1
   15    10    15    1
   16    15    16    1
@<TRIPOS>SUBSTRUCTURE
       1 MOL1            1 RESIDUE      1      MOL     
@<SCITEGIC>MOL_PROPERTY
VConf Rank
SciTegic.value.IntegerValue
695

@<SCITEGIC>MOL_PROPERTY
Conf_Id
SciTegic.value.IntegerValue
33

@<SCITEGIC>MOL_PROPERTY
Delta U+W
SciTegic.value.DoubleValue
0.015

@<SCITEGIC>MOL_PROPERTY
U+W
SciTegic.value.DoubleValue
3.025

@<SCITEGIC>MOL_PROPERTY
Grad RMS
SciTegic.value.DoubleValue
0.000000

@<SCITEGIC>MOL_PROPERTY
U
SciTegic.value.DoubleValue
5.843

@<SCITEGIC>MOL_PROPERTY
W
SciTegic.value.DoubleValue
-2.819

@<SCITEGIC>MOL_PROPERTY
W(PB)
SciTegic.value.DoubleValue
-4.568

@<SCITEGIC>MOL_PROPERTY
W(SA)
SciTegic.value.DoubleValue
1.750

@<SCITEGIC>MOL_PROPERTY
Valence
SciTegic.value.DoubleValue
13.789

@<SCITEGIC>MOL_PROPERTY
Coulomb
SciTegic.value.DoubleValue
-8.574

@<SCITEGIC>MOL_PROPERTY
VdW
SciTegic.value.DoubleValue
0.628

@<SCITEGIC>MOL_PROPERTY
VdW6
SciTegic.value.DoubleValue
-3.284

@<SCITEGIC>MOL_PROPERTY
VdW12
SciTegic.value.DoubleValue
3.913

@<SCITEGIC>MOL_PROPERTY
Bond
SciTegic.value.DoubleValue
0.054

@<SCITEGIC>MOL_PROPERTY
Angle
SciTegic.value.DoubleValue
4.033

@<SCITEGIC>MOL_PROPERTY
Pdih
SciTegic.value.DoubleValue
9.702

@<SCITEGIC>MOL_PROPERTY
Idih
SciTegic.value.DoubleValue
0.000

@<SCITEGIC>MOL_PROPERTY
Tether
SciTegic.value.DoubleValue
0.000

@<TRIPOS>MOLECULE
guest-4_confgen4.mol2 : confsearch ligand conformer 696
          16          16           1
SMALL
USER_CHARGES
 
@<TRIPOS>ATOM
       1    C1      20.212948   19.608561   22.560694 C.3        1 MOL1        -0.1689
       2    H1      19.725022   20.486796   23.005507 H          1 MOL1         0.0830
       3    H2      21.290727   19.815671   22.510741 H          1 MOL1         0.0830
       4    C2      19.622275   19.332348   21.160754 C.3        1 MOL1        -0.1689
       5    H3      18.849239   20.077520   20.927600 H          1 MOL1         0.0830
       6    H4      20.391299   19.393970   20.378576 H          1 MOL1         0.0830
       7    C3      19.001556   17.920322   21.218444 C.3        1 MOL1        -0.1765
       8    H5      19.709573   17.191101   20.803029 H          1 MOL1         0.0830
       9    H6      18.071417   17.850521   20.638812 H          1 MOL1         0.0830
      10    C4      18.784011   17.612021   22.705931 C.3        1 MOL1         0.1214
      11    H7      18.818595   16.531094   22.904383 H          1 MOL1         0.0787
      12    C5      19.928060   18.352576   23.411399 C.3        1 MOL1        -0.1765
      13    H8      19.682802   18.601768   24.452435 H          1 MOL1         0.0830
      14    H9      20.816739   17.707794   23.422664 H          1 MOL1         0.0830
      15    O1      17.543210   18.163952   23.121372 O.3        1 MOL1        -0.5512
      16    H10     17.604282   19.117746   22.907573 H          1 MOL1         0.3776
@<TRIPOS>BOND
    1     1     2    1
    2     1     3    1
    3     1     4    1
    4     4     5    1
    5     4     6    1
    6     4     7    1
    7     7     8    1
    8     7     9    1
    9     7    10    1
   10    10    11    1
   11     1    12    1
   12    10    12    1
   13    12    13    1
   14    12    14    1
   15    10    15    1
   16    15    16    1
@<TRIPOS>SUBSTRUCTURE
       1 MOL1            1 RESIDUE      1      MOL     
@<SCITEGIC>MOL_PROPERTY
VConf Rank
SciTegic.value.IntegerValue
696

@<SCITEGIC>MOL_PROPERTY
Conf_Id
SciTegic.value.IntegerValue
20

@<SCITEGIC>MOL_PROPERTY
Delta U+W
SciTegic.value.DoubleValue
-0.483

@<SCITEGIC>MOL_PROPERTY
U+W
SciTegic.value.DoubleValue
2.527

@<SCITEGIC>MOL_PROPERTY
Grad RMS
SciTegic.value.DoubleValue
0.000000

@<SCITEGIC>MOL_PROPERTY
U
SciTegic.value.DoubleValue
4.508

@<SCITEGIC>MOL_PROPERTY
W
SciTegic.value.DoubleValue
-1.981

@<SCITEGIC>MOL_PROPERTY
W(PB)
SciTegic.value.DoubleValue
-3.712

@<SCITEGIC>MOL_PROPERTY
W(SA)
SciTegic.value.DoubleValue
1.732

@<SCITEGIC>MOL_PROPERTY
Valence
SciTegic.value.DoubleValue
14.705

@<SCITEGIC>MOL_PROPERTY
Coulomb
SciTegic.value.DoubleValue
-10.687

@<SCITEGIC>MOL_PROPERTY
VdW
SciTegic.value.DoubleValue
0.490

@<SCITEGIC>MOL_PROPERTY
VdW6
SciTegic.value.DoubleValue
-3.745

@<SCITEGIC>MOL_PROPERTY
VdW12
SciTegic.value.DoubleValue
4.235

@<SCITEGIC>MOL_PROPERTY
Bond
SciTegic.value.DoubleValue
0.068

@<SCITEGIC>MOL_PROPERTY
Angle
SciTegic.value.DoubleValue
3.901

@<SCITEGIC>MOL_PROPERTY
Pdih
SciTegic.value.DoubleValue
10.737

@<SCITEGIC>MOL_PROPERTY
Idih
SciTegic.value.DoubleValue
0.000

@<SCITEGIC>MOL_PROPERTY
Tether
SciTegic.value.DoubleValue
0.000

@<TRIPOS>MOLECULE
guest-4_confgen4.mol2 : confsearch ligand conformer 697
          16          16           1
SMALL
USER_CHARGES
 
@<TRIPOS>ATOM
       1    C1      19.233561   17.119429   22.513988 C.3        1 MOL1        -0.1689
       2    H1      19.255994   16.688626   21.503254 H          1 MOL1         0.0830
       3    H2      19.184863   16.295109   23.238398 H          1 MOL1         0.0830
       4    C2      18.042482   18.079528   22.637550 C.3        1 MOL1        -0.1689
       5    H3      17.145466   17.700293   22.129316 H          1 MOL1         0.0830
       6    H4      17.798267   18.230989   23.698231 H          1 MOL1         0.0830
       7    C3      18.548766   19.398728   22.026041 C.3        1 MOL1        -0.1765
       8    H5      18.053825   20.267114   22.479676 H          1 MOL1         0.0830
       9    H6      18.328058   19.408574   20.949948 H          1 MOL1         0.0830
      10    C4      20.073991   19.429113   22.259378 C.3        1 MOL1         0.1214
      11    H7      20.319236   20.151614   23.051442 H          1 MOL1         0.0787
      12    C5      20.471080   18.011921   22.721676 C.3        1 MOL1        -0.1765
      13    H8      21.343879   17.625581   22.178551 H          1 MOL1         0.0830
      14    H9      20.728549   18.042395   23.788382 H          1 MOL1         0.0830
      15    O1      20.749022   19.758173   21.051098 O.3        1 MOL1        -0.5512
      16    H10     20.452526   20.658346   20.799482 H          1 MOL1         0.3776
@<TRIPOS>BOND
    1     1     2    1
    2     1     3    1
    3     1     4    1
    4     4     5    1
    5     4     6    1
    6     4     7    1
    7     7     8    1
    8     7     9    1
    9     7    10    1
   10    10    11    1
   11     1    12    1
   12    10    12    1
   13    12    13    1
   14    12    14    1
   15    10    15    1
   16    15    16    1
@<TRIPOS>SUBSTRUCTURE
       1 MOL1            1 RESIDUE      1      MOL     
@<SCITEGIC>MOL_PROPERTY
VConf Rank
SciTegic.value.IntegerValue
697

@<SCITEGIC>MOL_PROPERTY
Conf_Id
SciTegic.value.IntegerValue
59

@<SCITEGIC>MOL_PROPERTY
Delta U+W
SciTegic.value.DoubleValue
0.000

@<SCITEGIC>MOL_PROPERTY
U+W
SciTegic.value.DoubleValue
3.010

@<SCITEGIC>MOL_PROPERTY
Grad RMS
SciTegic.value.DoubleValue
0.000000

@<SCITEGIC>MOL_PROPERTY
U
SciTegic.value.DoubleValue
5.843

@<SCITEGIC>MOL_PROPERTY
W
SciTegic.value.DoubleValue
-2.833

@<SCITEGIC>MOL_PROPERTY
W(PB)
SciTegic.value.DoubleValue
-4.568

@<SCITEGIC>MOL_PROPERTY
W(SA)
SciTegic.value.DoubleValue
1.735

@<SCITEGIC>MOL_PROPERTY
Valence
SciTegic.value.DoubleValue
13.789

@<SCITEGIC>MOL_PROPERTY
Coulomb
SciTegic.value.DoubleValue
-8.574

@<SCITEGIC>MOL_PROPERTY
VdW
SciTegic.value.DoubleValue
0.628

@<SCITEGIC>MOL_PROPERTY
VdW6
SciTegic.value.DoubleValue
-3.284

@<SCITEGIC>MOL_PROPERTY
VdW12
SciTegic.value.DoubleValue
3.912

@<SCITEGIC>MOL_PROPERTY
Bond
SciTegic.value.DoubleValue
0.054

@<SCITEGIC>MOL_PROPERTY
Angle
SciTegic.value.DoubleValue
4.034

@<SCITEGIC>MOL_PROPERTY
Pdih
SciTegic.value.DoubleValue
9.702

@<SCITEGIC>MOL_PROPERTY
Idih
SciTegic.value.DoubleValue
0.000

@<SCITEGIC>MOL_PROPERTY
Tether
SciTegic.value.DoubleValue
0.000

@<TRIPOS>MOLECULE
guest-4_confgen4.mol2 : confsearch ligand conformer 698
          16          16           1
SMALL
USER_CHARGES
 
@<TRIPOS>ATOM
       1    C1      19.280410   17.409813   21.527377 C.3        1 MOL1        -0.1689
       2    H1      19.809978   16.468922   21.324789 H          1 MOL1         0.0830
       3    H2      18.276331   17.340827   21.086143 H          1 MOL1         0.0830
       4    C2      20.014545   18.628702   20.951979 C.3        1 MOL1        -0.1689
       5    H3      21.097267   18.508732   21.096895 H          1 MOL1         0.0830
       6    H4      19.824014   18.765139   19.878795 H          1 MOL1         0.0830
       7    C3      19.509963   19.815146   21.793895 C.3        1 MOL1        -0.1765
       8    H5      18.618044   20.248294   21.322779 H          1 MOL1         0.0830
       9    H6      20.266064   20.608026   21.869201 H          1 MOL1         0.0830
      10    C4      19.122550   19.242579   23.172980 C.3        1 MOL1         0.1214
      11    H7      18.103254   19.567475   23.427927 H          1 MOL1         0.0787
      12    C5      19.168050   17.706229   23.034070 C.3        1 MOL1        -0.1765
      13    H8      20.050021   17.303281   23.550347 H          1 MOL1         0.0830
      14    H9      18.277673   17.235188   23.470184 H          1 MOL1         0.0830
      15    O1      20.050444   19.673794   24.161394 O.3        1 MOL1        -0.5512
      16    H10     19.764007   19.273764   25.009603 H          1 MOL1         0.3776
@<TRIPOS>BOND
    1     1     2    1
    2     1     3    1
    3     1     4    1
    4     4     5    1
    5     4     6    1
    6     4     7    1
    7     7     8    1
    8     7     9    1
    9     7    10    1
   10    10    11    1
   11     1    12    1
   12    10    12    1
   13    12    13    1
   14    12    14    1
   15    10    15    1
   16    15    16    1
@<TRIPOS>SUBSTRUCTURE
       1 MOL1            1 RESIDUE      1      MOL     
@<SCITEGIC>MOL_PROPERTY
VConf Rank
SciTegic.value.IntegerValue
698

@<SCITEGIC>MOL_PROPERTY
Conf_Id
SciTegic.value.IntegerValue
33

@<SCITEGIC>MOL_PROPERTY
Delta U+W
SciTegic.value.DoubleValue
0.015

@<SCITEGIC>MOL_PROPERTY
U+W
SciTegic.value.DoubleValue
3.025

@<SCITEGIC>MOL_PROPERTY
Grad RMS
SciTegic.value.DoubleValue
0.000000

@<SCITEGIC>MOL_PROPERTY
U
SciTegic.value.DoubleValue
5.843

@<SCITEGIC>MOL_PROPERTY
W
SciTegic.value.DoubleValue
-2.819

@<SCITEGIC>MOL_PROPERTY
W(PB)
SciTegic.value.DoubleValue
-4.568

@<SCITEGIC>MOL_PROPERTY
W(SA)
SciTegic.value.DoubleValue
1.750

@<SCITEGIC>MOL_PROPERTY
Valence
SciTegic.value.DoubleValue
13.789

@<SCITEGIC>MOL_PROPERTY
Coulomb
SciTegic.value.DoubleValue
-8.574

@<SCITEGIC>MOL_PROPERTY
VdW
SciTegic.value.DoubleValue
0.628

@<SCITEGIC>MOL_PROPERTY
VdW6
SciTegic.value.DoubleValue
-3.284

@<SCITEGIC>MOL_PROPERTY
VdW12
SciTegic.value.DoubleValue
3.913

@<SCITEGIC>MOL_PROPERTY
Bond
SciTegic.value.DoubleValue
0.054

@<SCITEGIC>MOL_PROPERTY
Angle
SciTegic.value.DoubleValue
4.033

@<SCITEGIC>MOL_PROPERTY
Pdih
SciTegic.value.DoubleValue
9.702

@<SCITEGIC>MOL_PROPERTY
Idih
SciTegic.value.DoubleValue
0.000

@<SCITEGIC>MOL_PROPERTY
Tether
SciTegic.value.DoubleValue
0.000

@<TRIPOS>MOLECULE
guest-4_confgen4.mol2 : confsearch ligand conformer 699
          16          16           1
SMALL
USER_CHARGES
 
@<TRIPOS>ATOM
       1    C1      18.750293   17.510145   22.682905 C.3        1 MOL1        -0.1689
       2    H1      19.218478   17.029816   23.553142 H          1 MOL1         0.0830
       3    H2      17.857096   16.926710   22.420604 H          1 MOL1         0.0830
       4    C2      19.754868   17.568248   21.511378 C.3        1 MOL1        -0.1689
       5    H3      20.708875   17.115095   21.814279 H          1 MOL1         0.0830
       6    H4      19.386695   17.016039   20.635870 H          1 MOL1         0.0830
       7    C3      19.955581   19.062495   21.180658 C.3        1 MOL1        -0.1765
       8    H5      19.314624   19.340020   20.333442 H          1 MOL1         0.0830
       9    H6      20.993248   19.291790   20.903752 H          1 MOL1         0.0830
      10    C4      19.500967   19.837977   22.424420 C.3        1 MOL1         0.1214
      11    H7      19.140294   20.843697   22.164755 H          1 MOL1         0.0787
      12    C5      18.380750   18.971414   23.015301 C.3        1 MOL1        -0.1765
      13    H8      18.254310   19.133748   24.094034 H          1 MOL1         0.0830
      14    H9      17.433108   19.230780   22.525071 H          1 MOL1         0.0830
      15    O1      20.575495   19.908477   23.350286 O.3        1 MOL1        -0.5512
      16    H10     20.827073   18.977315   23.520017 H          1 MOL1         0.3776
@<TRIPOS>BOND
    1     1     2    1
    2     1     3    1
    3     1     4    1
    4     4     5    1
    5     4     6    1
    6     4     7    1
    7     7     8    1
    8     7     9    1
    9     7    10    1
   10    10    11    1
   11     1    12    1
   12    10    12    1
   13    12    13    1
   14    12    14    1
   15    10    15    1
   16    15    16    1
@<TRIPOS>SUBSTRUCTURE
       1 MOL1            1 RESIDUE      1      MOL     
@<SCITEGIC>MOL_PROPERTY
VConf Rank
SciTegic.value.IntegerValue
699

@<SCITEGIC>MOL_PROPERTY
Conf_Id
SciTegic.value.IntegerValue
20

@<SCITEGIC>MOL_PROPERTY
Delta U+W
SciTegic.value.DoubleValue
-0.483

@<SCITEGIC>MOL_PROPERTY
U+W
SciTegic.value.DoubleValue
2.527

@<SCITEGIC>MOL_PROPERTY
Grad RMS
SciTegic.value.DoubleValue
0.000000

@<SCITEGIC>MOL_PROPERTY
U
SciTegic.value.DoubleValue
4.508

@<SCITEGIC>MOL_PROPERTY
W
SciTegic.value.DoubleValue
-1.981

@<SCITEGIC>MOL_PROPERTY
W(PB)
SciTegic.value.DoubleValue
-3.712

@<SCITEGIC>MOL_PROPERTY
W(SA)
SciTegic.value.DoubleValue
1.732

@<SCITEGIC>MOL_PROPERTY
Valence
SciTegic.value.DoubleValue
14.705

@<SCITEGIC>MOL_PROPERTY
Coulomb
SciTegic.value.DoubleValue
-10.687

@<SCITEGIC>MOL_PROPERTY
VdW
SciTegic.value.DoubleValue
0.490

@<SCITEGIC>MOL_PROPERTY
VdW6
SciTegic.value.DoubleValue
-3.745

@<SCITEGIC>MOL_PROPERTY
VdW12
SciTegic.value.DoubleValue
4.235

@<SCITEGIC>MOL_PROPERTY
Bond
SciTegic.value.DoubleValue
0.068

@<SCITEGIC>MOL_PROPERTY
Angle
SciTegic.value.DoubleValue
3.901

@<SCITEGIC>MOL_PROPERTY
Pdih
SciTegic.value.DoubleValue
10.737

@<SCITEGIC>MOL_PROPERTY
Idih
SciTegic.value.DoubleValue
0.000

@<SCITEGIC>MOL_PROPERTY
Tether
SciTegic.value.DoubleValue
0.000

@<TRIPOS>MOLECULE
guest-4_confgen4.mol2 : confsearch ligand conformer 700
          16          16           1
SMALL
USER_CHARGES
 
@<TRIPOS>ATOM
       1    C1      18.534793   18.885388   21.162574 C.3        1 MOL1        -0.1689
       2    H1      17.712788   18.156263   21.181614 H          1 MOL1         0.0830
       3    H2      18.359585   19.579814   20.329676 H          1 MOL1         0.0830
       4    C2      19.874542   18.146930   21.038162 C.3        1 MOL1        -0.1689
       5    H3      19.818123   17.291594   20.351156 H          1 MOL1         0.0830
       6    H4      20.643852   18.837226   20.664962 H          1 MOL1         0.0830
       7    C3      20.212001   17.720273   22.478524 C.3        1 MOL1        -0.1765
       8    H5      21.296709   17.658628   22.634905 H          1 MOL1         0.0830
       9    H6      19.786152   16.726322   22.672169 H          1 MOL1         0.0830
      10    C4      19.563877   18.769667   23.406095 C.3        1 MOL1         0.1214
      11    H7      20.337693   19.425694   23.830778 H          1 MOL1         0.0787
      12    C5      18.616580   19.605813   22.521040 C.3        1 MOL1        -0.1765
      13    H8      17.623641   19.729042   22.973707 H          1 MOL1         0.0830
      14    H9      19.046477   20.606312   22.382221 H          1 MOL1         0.0830
      15    O1      18.828420   18.124484   24.438921 O.3        1 MOL1        -0.5512
      16    H10     19.474334   17.602085   24.959907 H          1 MOL1         0.3776
@<TRIPOS>BOND
    1     1     2    1
    2     1     3    1
    3     1     4    1
    4     4     5    1
    5     4     6    1
    6     4     7    1
    7     7     8    1
    8     7     9    1
    9     7    10    1
   10    10    11    1
   11     1    12    1
   12    10    12    1
   13    12    13    1
   14    12    14    1
   15    10    15    1
   16    15    16    1
@<TRIPOS>SUBSTRUCTURE
       1 MOL1            1 RESIDUE      1      MOL     
@<SCITEGIC>MOL_PROPERTY
VConf Rank
SciTegic.value.IntegerValue
700

@<SCITEGIC>MOL_PROPERTY
Conf_Id
SciTegic.value.IntegerValue
59

@<SCITEGIC>MOL_PROPERTY
Delta U+W
SciTegic.value.DoubleValue
0.000

@<SCITEGIC>MOL_PROPERTY
U+W
SciTegic.value.DoubleValue
3.010

@<SCITEGIC>MOL_PROPERTY
Grad RMS
SciTegic.value.DoubleValue
0.000000

@<SCITEGIC>MOL_PROPERTY
U
SciTegic.value.DoubleValue
5.843

@<SCITEGIC>MOL_PROPERTY
W
SciTegic.value.DoubleValue
-2.833

@<SCITEGIC>MOL_PROPERTY
W(PB)
SciTegic.value.DoubleValue
-4.568

@<SCITEGIC>MOL_PROPERTY
W(SA)
SciTegic.value.DoubleValue
1.735

@<SCITEGIC>MOL_PROPERTY
Valence
SciTegic.value.DoubleValue
13.789

@<SCITEGIC>MOL_PROPERTY
Coulomb
SciTegic.value.DoubleValue
-8.574

@<SCITEGIC>MOL_PROPERTY
VdW
SciTegic.value.DoubleValue
0.628

@<SCITEGIC>MOL_PROPERTY
VdW6
SciTegic.value.DoubleValue
-3.284

@<SCITEGIC>MOL_PROPERTY
VdW12
SciTegic.value.DoubleValue
3.912

@<SCITEGIC>MOL_PROPERTY
Bond
SciTegic.value.DoubleValue
0.054

@<SCITEGIC>MOL_PROPERTY
Angle
SciTegic.value.DoubleValue
4.034

@<SCITEGIC>MOL_PROPERTY
Pdih
SciTegic.value.DoubleValue
9.702

@<SCITEGIC>MOL_PROPERTY
Idih
SciTegic.value.DoubleValue
0.000

@<SCITEGIC>MOL_PROPERTY
Tether
SciTegic.value.DoubleValue
0.000

@<TRIPOS>MOLECULE
guest-4_confgen4.mol2 : confsearch ligand conformer 701
          16          16           1
SMALL
USER_CHARGES
 
@<TRIPOS>ATOM
       1    C1      18.084617   18.234497   22.511532 C.3        1 MOL1        -0.1689
       2    H1      17.088524   18.432750   22.092898 H          1 MOL1         0.0830
       3    H2      17.993167   17.422250   23.246048 H          1 MOL1         0.0830
       4    C2      18.692366   19.472938   23.184311 C.3        1 MOL1        -0.1689
       5    H3      18.461391   20.366656   22.587991 H          1 MOL1         0.0830
       6    H4      18.307887   19.629046   24.201390 H          1 MOL1         0.0830
       7    C3      20.210620   19.216965   23.162858 C.3        1 MOL1        -0.1765
       8    H5      20.508353   18.689855   24.078606 H          1 MOL1         0.0830
       9    H6      20.778379   20.155960   23.118619 H          1 MOL1         0.0830
      10    C4      20.486286   18.308186   21.947158 C.3        1 MOL1         0.1214
      11    H7      21.078394   17.439397   22.269855 H          1 MOL1         0.0787
      12    C5      19.108183   17.845263   21.429209 C.3        1 MOL1        -0.1765
      13    H8      18.860396   18.362282   20.492153 H          1 MOL1         0.0830
      14    H9      19.093005   16.765458   21.232644 H          1 MOL1         0.0830
      15    O1      21.171521   19.036744   20.935450 O.3        1 MOL1        -0.5512
      16    H10     21.309526   18.417665   20.187636 H          1 MOL1         0.3776
@<TRIPOS>BOND
    1     1     2    1
    2     1     3    1
    3     1     4    1
    4     4     5    1
    5     4     6    1
    6     4     7    1
    7     7     8    1
    8     7     9    1
    9     7    10    1
   10    10    11    1
   11     1    12    1
   12    10    12    1
   13    12    13    1
   14    12    14    1
   15    10    15    1
   16    15    16    1
@<TRIPOS>SUBSTRUCTURE
       1 MOL1            1 RESIDUE      1      MOL     
@<SCITEGIC>MOL_PROPERTY
VConf Rank
SciTegic.value.IntegerValue
701

@<SCITEGIC>MOL_PROPERTY
Conf_Id
SciTegic.value.IntegerValue
33

@<SCITEGIC>MOL_PROPERTY
Delta U+W
SciTegic.value.DoubleValue
0.015

@<SCITEGIC>MOL_PROPERTY
U+W
SciTegic.value.DoubleValue
3.025

@<SCITEGIC>MOL_PROPERTY
Grad RMS
SciTegic.value.DoubleValue
0.000000

@<SCITEGIC>MOL_PROPERTY
U
SciTegic.value.DoubleValue
5.843

@<SCITEGIC>MOL_PROPERTY
W
SciTegic.value.DoubleValue
-2.819

@<SCITEGIC>MOL_PROPERTY
W(PB)
SciTegic.value.DoubleValue
-4.568

@<SCITEGIC>MOL_PROPERTY
W(SA)
SciTegic.value.DoubleValue
1.750

@<SCITEGIC>MOL_PROPERTY
Valence
SciTegic.value.DoubleValue
13.789

@<SCITEGIC>MOL_PROPERTY
Coulomb
SciTegic.value.DoubleValue
-8.574

@<SCITEGIC>MOL_PROPERTY
VdW
SciTegic.value.DoubleValue
0.628

@<SCITEGIC>MOL_PROPERTY
VdW6
SciTegic.value.DoubleValue
-3.284

@<SCITEGIC>MOL_PROPERTY
VdW12
SciTegic.value.DoubleValue
3.913

@<SCITEGIC>MOL_PROPERTY
Bond
SciTegic.value.DoubleValue
0.054

@<SCITEGIC>MOL_PROPERTY
Angle
SciTegic.value.DoubleValue
4.033

@<SCITEGIC>MOL_PROPERTY
Pdih
SciTegic.value.DoubleValue
9.702

@<SCITEGIC>MOL_PROPERTY
Idih
SciTegic.value.DoubleValue
0.000

@<SCITEGIC>MOL_PROPERTY
Tether
SciTegic.value.DoubleValue
0.000

@<TRIPOS>MOLECULE
guest-4_confgen4.mol2 : confsearch ligand conformer 702
          16          16           1
SMALL
USER_CHARGES
 
@<TRIPOS>ATOM
       1    C1      18.389416   19.386770   22.709987 C.3        1 MOL1        -0.1689
       2    H1      17.448112   19.291094   22.151398 H          1 MOL1         0.0830
       3    H2      18.224655   20.111472   23.519095 H          1 MOL1         0.0830
       4    C2      19.519363   19.842352   21.760942 C.3        1 MOL1        -0.1689
       5    H3      19.124702   19.968186   20.743281 H          1 MOL1         0.0830
       6    H4      19.946383   20.804912   22.074200 H          1 MOL1         0.0830
       7    C3      20.586915   18.727810   21.784769 C.3        1 MOL1        -0.1765
       8    H5      21.387363   19.001434   22.484792 H          1 MOL1         0.0830
       9    H6      21.044751   18.568828   20.799317 H          1 MOL1         0.0830
      10    C4      19.877503   17.470703   22.305740 C.3        1 MOL1         0.1214
      11    H7      20.577868   16.791943   22.813437 H          1 MOL1         0.0787
      12    C5      18.817174   18.014604   23.272607 C.3        1 MOL1        -0.1765
      13    H8      17.967458   17.328386   23.387025 H          1 MOL1         0.0830
      14    H9      19.273017   18.149849   24.262323 H          1 MOL1         0.0830
      15    O1      19.231747   16.815751   21.223684 O.3        1 MOL1        -0.5512
      16    H10     18.635327   17.489669   20.837316 H          1 MOL1         0.3776
@<TRIPOS>BOND
    1     1     2    1
    2     1     3    1
    3     1     4    1
    4     4     5    1
    5     4     6    1
    6     4     7    1
    7     7     8    1
    8     7     9    1
    9     7    10    1
   10    10    11    1
   11     1    12    1
   12    10    12    1
   13    12    13    1
   14    12    14    1
   15    10    15    1
   16    15    16    1
@<TRIPOS>SUBSTRUCTURE
       1 MOL1            1 RESIDUE      1      MOL     
@<SCITEGIC>MOL_PROPERTY
VConf Rank
SciTegic.value.IntegerValue
702

@<SCITEGIC>MOL_PROPERTY
Conf_Id
SciTegic.value.IntegerValue
20

@<SCITEGIC>MOL_PROPERTY
Delta U+W
SciTegic.value.DoubleValue
-0.483

@<SCITEGIC>MOL_PROPERTY
U+W
SciTegic.value.DoubleValue
2.527

@<SCITEGIC>MOL_PROPERTY
Grad RMS
SciTegic.value.DoubleValue
0.000000

@<SCITEGIC>MOL_PROPERTY
U
SciTegic.value.DoubleValue
4.508

@<SCITEGIC>MOL_PROPERTY
W
SciTegic.value.DoubleValue
-1.981

@<SCITEGIC>MOL_PROPERTY
W(PB)
SciTegic.value.DoubleValue
-3.712

@<SCITEGIC>MOL_PROPERTY
W(SA)
SciTegic.value.DoubleValue
1.732

@<SCITEGIC>MOL_PROPERTY
Valence
SciTegic.value.DoubleValue
14.705

@<SCITEGIC>MOL_PROPERTY
Coulomb
SciTegic.value.DoubleValue
-10.687

@<SCITEGIC>MOL_PROPERTY
VdW
SciTegic.value.DoubleValue
0.490

@<SCITEGIC>MOL_PROPERTY
VdW6
SciTegic.value.DoubleValue
-3.745

@<SCITEGIC>MOL_PROPERTY
VdW12
SciTegic.value.DoubleValue
4.235

@<SCITEGIC>MOL_PROPERTY
Bond
SciTegic.value.DoubleValue
0.068

@<SCITEGIC>MOL_PROPERTY
Angle
SciTegic.value.DoubleValue
3.901

@<SCITEGIC>MOL_PROPERTY
Pdih
SciTegic.value.DoubleValue
10.737

@<SCITEGIC>MOL_PROPERTY
Idih
SciTegic.value.DoubleValue
0.000

@<SCITEGIC>MOL_PROPERTY
Tether
SciTegic.value.DoubleValue
0.000

@<TRIPOS>MOLECULE
guest-4_confgen4.mol2 : confsearch ligand conformer 703
          16          16           1
SMALL
USER_CHARGES
 
@<TRIPOS>ATOM
       1    C1      19.035892   18.403864   20.904424 C.3        1 MOL1        -0.1689
       2    H1      18.133845   17.776502   20.884288 H          1 MOL1         0.0830
       3    H2      19.275971   18.694563   19.872678 H          1 MOL1         0.0830
       4    C2      20.181250   17.636324   21.578785 C.3        1 MOL1        -0.1689
       5    H3      20.197307   16.575194   21.295055 H          1 MOL1         0.0830
       6    H4      21.143918   18.082910   21.293376 H          1 MOL1         0.0830
       7    C3      19.940873   17.836140   23.086383 C.3        1 MOL1        -0.1765
       8    H5      20.882518   17.808975   23.649776 H          1 MOL1         0.0830
       9    H6      19.299339   17.027475   23.462254 H          1 MOL1         0.0830
      10    C4      19.228992   19.197143   23.236636 C.3        1 MOL1         0.1214
      11    H7      19.926856   19.944155   23.642194 H          1 MOL1         0.0787
      12    C5      18.797395   19.620696   21.817425 C.3        1 MOL1        -0.1765
      13    H8      17.751607   19.953989   21.781852 H          1 MOL1         0.0830
      14    H9      19.425838   20.457972   21.487108 H          1 MOL1         0.0830
      15    O1      18.088860   19.064674   24.077137 O.3        1 MOL1        -0.5512
      16    H10     18.419106   18.784957   24.957040 H          1 MOL1         0.3776
@<TRIPOS>BOND
    1     1     2    1
    2     1     3    1
    3     1     4    1
    4     4     5    1
    5     4     6    1
    6     4     7    1
    7     7     8    1
    8     7     9    1
    9     7    10    1
   10    10    11    1
   11     1    12    1
   12    10    12    1
   13    12    13    1
   14    12    14    1
   15    10    15    1
   16    15    16    1
@<TRIPOS>SUBSTRUCTURE
       1 MOL1            1 RESIDUE      1      MOL     
@<SCITEGIC>MOL_PROPERTY
VConf Rank
SciTegic.value.IntegerValue
703

@<SCITEGIC>MOL_PROPERTY
Conf_Id
SciTegic.value.IntegerValue
59

@<SCITEGIC>MOL_PROPERTY
Delta U+W
SciTegic.value.DoubleValue
0.000

@<SCITEGIC>MOL_PROPERTY
U+W
SciTegic.value.DoubleValue
3.010

@<SCITEGIC>MOL_PROPERTY
Grad RMS
SciTegic.value.DoubleValue
0.000000

@<SCITEGIC>MOL_PROPERTY
U
SciTegic.value.DoubleValue
5.843

@<SCITEGIC>MOL_PROPERTY
W
SciTegic.value.DoubleValue
-2.833

@<SCITEGIC>MOL_PROPERTY
W(PB)
SciTegic.value.DoubleValue
-4.568

@<SCITEGIC>MOL_PROPERTY
W(SA)
SciTegic.value.DoubleValue
1.735

@<SCITEGIC>MOL_PROPERTY
Valence
SciTegic.value.DoubleValue
13.789

@<SCITEGIC>MOL_PROPERTY
Coulomb
SciTegic.value.DoubleValue
-8.574

@<SCITEGIC>MOL_PROPERTY
VdW
SciTegic.value.DoubleValue
0.628

@<SCITEGIC>MOL_PROPERTY
VdW6
SciTegic.value.DoubleValue
-3.284

@<SCITEGIC>MOL_PROPERTY
VdW12
SciTegic.value.DoubleValue
3.912

@<SCITEGIC>MOL_PROPERTY
Bond
SciTegic.value.DoubleValue
0.054

@<SCITEGIC>MOL_PROPERTY
Angle
SciTegic.value.DoubleValue
4.034

@<SCITEGIC>MOL_PROPERTY
Pdih
SciTegic.value.DoubleValue
9.702

@<SCITEGIC>MOL_PROPERTY
Idih
SciTegic.value.DoubleValue
0.000

@<SCITEGIC>MOL_PROPERTY
Tether
SciTegic.value.DoubleValue
0.000

@<TRIPOS>MOLECULE
guest-4_confgen4.mol2 : confsearch ligand conformer 704
          16          16           1
SMALL
USER_CHARGES
 
@<TRIPOS>ATOM
       1    C1      19.381605   19.774441   21.452819 C.3        1 MOL1        -0.1689
       2    H1      19.900034   20.732623   21.311830 H          1 MOL1         0.0830
       3    H2      18.669861   19.643938   20.625770 H          1 MOL1         0.0830
       4    C2      18.635023   19.705952   22.792092 C.3        1 MOL1        -0.1689
       5    H3      19.242203   20.178459   23.576788 H          1 MOL1         0.0830
       6    H4      17.662132   20.214739   22.756578 H          1 MOL1         0.0830
       7    C3      18.500178   18.199563   23.081377 C.3        1 MOL1        -0.1765
       8    H5      17.564244   17.823535   22.648115 H          1 MOL1         0.0830
       9    H6      18.474169   17.995760   24.160176 H          1 MOL1         0.0830
      10    C4      19.690420   17.509447   22.383622 C.3        1 MOL1         0.1214
      11    H7      19.317228   16.683435   21.760765 H          1 MOL1         0.0787
      12    C5      20.355041   18.582290   21.495352 C.3        1 MOL1        -0.1765
      13    H8      21.307045   18.906235   21.937539 H          1 MOL1         0.0830
      14    H9      20.564204   18.199169   20.488220 H          1 MOL1         0.0830
      15    O1      20.616548   17.031246   23.351872 O.3        1 MOL1        -0.5512
      16    H10     21.352681   16.615077   22.855444 H          1 MOL1         0.3776
@<TRIPOS>BOND
    1     1     2    1
    2     1     3    1
    3     1     4    1
    4     4     5    1
    5     4     6    1
    6     4     7    1
    7     7     8    1
    8     7     9    1
    9     7    10    1
   10    10    11    1
   11     1    12    1
   12    10    12    1
   13    12    13    1
   14    12    14    1
   15    10    15    1
   16    15    16    1
@<TRIPOS>SUBSTRUCTURE
       1 MOL1            1 RESIDUE      1      MOL     
@<SCITEGIC>MOL_PROPERTY
VConf Rank
SciTegic.value.IntegerValue
704

@<SCITEGIC>MOL_PROPERTY
Conf_Id
SciTegic.value.IntegerValue
33

@<SCITEGIC>MOL_PROPERTY
Delta U+W
SciTegic.value.DoubleValue
0.015

@<SCITEGIC>MOL_PROPERTY
U+W
SciTegic.value.DoubleValue
3.025

@<SCITEGIC>MOL_PROPERTY
Grad RMS
SciTegic.value.DoubleValue
0.000000

@<SCITEGIC>MOL_PROPERTY
U
SciTegic.value.DoubleValue
5.843

@<SCITEGIC>MOL_PROPERTY
W
SciTegic.value.DoubleValue
-2.819

@<SCITEGIC>MOL_PROPERTY
W(PB)
SciTegic.value.DoubleValue
-4.568

@<SCITEGIC>MOL_PROPERTY
W(SA)
SciTegic.value.DoubleValue
1.750

@<SCITEGIC>MOL_PROPERTY
Valence
SciTegic.value.DoubleValue
13.789

@<SCITEGIC>MOL_PROPERTY
Coulomb
SciTegic.value.DoubleValue
-8.574

@<SCITEGIC>MOL_PROPERTY
VdW
SciTegic.value.DoubleValue
0.628

@<SCITEGIC>MOL_PROPERTY
VdW6
SciTegic.value.DoubleValue
-3.284

@<SCITEGIC>MOL_PROPERTY
VdW12
SciTegic.value.DoubleValue
3.913

@<SCITEGIC>MOL_PROPERTY
Bond
SciTegic.value.DoubleValue
0.054

@<SCITEGIC>MOL_PROPERTY
Angle
SciTegic.value.DoubleValue
4.033

@<SCITEGIC>MOL_PROPERTY
Pdih
SciTegic.value.DoubleValue
9.702

@<SCITEGIC>MOL_PROPERTY
Idih
SciTegic.value.DoubleValue
0.000

@<SCITEGIC>MOL_PROPERTY
Tether
SciTegic.value.DoubleValue
0.000

@<TRIPOS>MOLECULE
guest-4_confgen4.mol2 : confsearch ligand conformer 705
          16          16           1
SMALL
USER_CHARGES
 
@<TRIPOS>ATOM
       1    C1      19.288554   17.290972   22.449046 C.3        1 MOL1        -0.1689
       2    H1      20.014101   16.887961   23.169039 H          1 MOL1         0.0830
       3    H2      18.667693   16.455218   22.098267 H          1 MOL1         0.0830
       4    C2      20.032156   17.975232   21.281200 C.3        1 MOL1        -0.1689
       5    H3      21.117576   17.902459   21.435449 H          1 MOL1         0.0830
       6    H4      19.799472   17.498040   20.319355 H          1 MOL1         0.0830
       7    C3      19.590652   19.454240   21.287900 C.3        1 MOL1        -0.1765
       8    H5      18.789500   19.601269   20.551585 H          1 MOL1         0.0830
       9    H6      20.412243   20.135070   21.028159 H          1 MOL1         0.0830
      10    C4      19.033072   19.725096   22.691729 C.3        1 MOL1         0.1214
      11    H7      18.279017   20.525253   22.680153 H          1 MOL1         0.0787
      12    C5      18.424691   18.381920   23.116826 C.3        1 MOL1        -0.1765
      13    H8      18.384202   18.270519   24.208593 H          1 MOL1         0.0830
      14    H9      17.396606   18.319802   22.736296 H          1 MOL1         0.0830
      15    O1      20.104112   20.050873   23.565542 O.3        1 MOL1        -0.5512
      16    H10     20.718107   19.289839   23.510775 H          1 MOL1         0.3776
@<TRIPOS>BOND
    1     1     2    1
    2     1     3    1
    3     1     4    1
    4     4     5    1
    5     4     6    1
    6     4     7    1
    7     7     8    1
    8     7     9    1
    9     7    10    1
   10    10    11    1
   11     1    12    1
   12    10    12    1
   13    12    13    1
   14    12    14    1
   15    10    15    1
   16    15    16    1
@<TRIPOS>SUBSTRUCTURE
       1 MOL1            1 RESIDUE      1      MOL     
@<SCITEGIC>MOL_PROPERTY
VConf Rank
SciTegic.value.IntegerValue
705

@<SCITEGIC>MOL_PROPERTY
Conf_Id
SciTegic.value.IntegerValue
20

@<SCITEGIC>MOL_PROPERTY
Delta U+W
SciTegic.value.DoubleValue
-0.483

@<SCITEGIC>MOL_PROPERTY
U+W
SciTegic.value.DoubleValue
2.527

@<SCITEGIC>MOL_PROPERTY
Grad RMS
SciTegic.value.DoubleValue
0.000000

@<SCITEGIC>MOL_PROPERTY
U
SciTegic.value.DoubleValue
4.508

@<SCITEGIC>MOL_PROPERTY
W
SciTegic.value.DoubleValue
-1.981

@<SCITEGIC>MOL_PROPERTY
W(PB)
SciTegic.value.DoubleValue
-3.712

@<SCITEGIC>MOL_PROPERTY
W(SA)
SciTegic.value.DoubleValue
1.732

@<SCITEGIC>MOL_PROPERTY
Valence
SciTegic.value.DoubleValue
14.705

@<SCITEGIC>MOL_PROPERTY
Coulomb
SciTegic.value.DoubleValue
-10.687

@<SCITEGIC>MOL_PROPERTY
VdW
SciTegic.value.DoubleValue
0.490

@<SCITEGIC>MOL_PROPERTY
VdW6
SciTegic.value.DoubleValue
-3.745

@<SCITEGIC>MOL_PROPERTY
VdW12
SciTegic.value.DoubleValue
4.235

@<SCITEGIC>MOL_PROPERTY
Bond
SciTegic.value.DoubleValue
0.068

@<SCITEGIC>MOL_PROPERTY
Angle
SciTegic.value.DoubleValue
3.901

@<SCITEGIC>MOL_PROPERTY
Pdih
SciTegic.value.DoubleValue
10.737

@<SCITEGIC>MOL_PROPERTY
Idih
SciTegic.value.DoubleValue
0.000

@<SCITEGIC>MOL_PROPERTY
Tether
SciTegic.value.DoubleValue
0.000

@<TRIPOS>MOLECULE
guest-4_confgen4.mol2 : confsearch ligand conformer 706
          16          16           1
SMALL
USER_CHARGES
 
@<TRIPOS>ATOM
       1    C1      18.866974   17.273086   21.832979 C.3        1 MOL1        -0.1689
       2    H1      17.785578   17.415444   21.698839 H          1 MOL1         0.0830
       3    H2      19.124626   16.258920   21.498722 H          1 MOL1         0.0830
       4    C2      19.239839   17.518750   23.301430 C.3        1 MOL1        -0.1689
       5    H3      18.492577   17.111648   23.996143 H          1 MOL1         0.0830
       6    H4      20.207072   17.045748   23.521329 H          1 MOL1         0.0830
       7    C3      19.370954   19.048787   23.412579 C.3        1 MOL1        -0.1765
       8    H5      20.092417   19.334203   24.189029 H          1 MOL1         0.0830
       9    H6      18.396652   19.478169   23.683046 H          1 MOL1         0.0830
      10    C4      19.808238   19.550106   22.020049 C.3        1 MOL1         0.1214
      11    H7      20.867443   19.845284   22.041827 H          1 MOL1         0.0787
      12    C5      19.630650   18.360193   21.054438 C.3        1 MOL1        -0.1765
      13    H8      19.102595   18.645037   20.134632 H          1 MOL1         0.0830
      14    H9      20.620192   17.981388   20.767394 H          1 MOL1         0.0830
      15    O1      18.990150   20.639891   21.611408 O.3        1 MOL1        -0.5512
      16    H10     19.133610   21.358879   22.262567 H          1 MOL1         0.3776
@<TRIPOS>BOND
    1     1     2    1
    2     1     3    1
    3     1     4    1
    4     4     5    1
    5     4     6    1
    6     4     7    1
    7     7     8    1
    8     7     9    1
    9     7    10    1
   10    10    11    1
   11     1    12    1
   12    10    12    1
   13    12    13    1
   14    12    14    1
   15    10    15    1
   16    15    16    1
@<TRIPOS>SUBSTRUCTURE
       1 MOL1            1 RESIDUE      1      MOL     
@<SCITEGIC>MOL_PROPERTY
VConf Rank
SciTegic.value.IntegerValue
706

@<SCITEGIC>MOL_PROPERTY
Conf_Id
SciTegic.value.IntegerValue
59

@<SCITEGIC>MOL_PROPERTY
Delta U+W
SciTegic.value.DoubleValue
0.000

@<SCITEGIC>MOL_PROPERTY
U+W
SciTegic.value.DoubleValue
3.010

@<SCITEGIC>MOL_PROPERTY
Grad RMS
SciTegic.value.DoubleValue
0.000000

@<SCITEGIC>MOL_PROPERTY
U
SciTegic.value.DoubleValue
5.843

@<SCITEGIC>MOL_PROPERTY
W
SciTegic.value.DoubleValue
-2.833

@<SCITEGIC>MOL_PROPERTY
W(PB)
SciTegic.value.DoubleValue
-4.568

@<SCITEGIC>MOL_PROPERTY
W(SA)
SciTegic.value.DoubleValue
1.735

@<SCITEGIC>MOL_PROPERTY
Valence
SciTegic.value.DoubleValue
13.789

@<SCITEGIC>MOL_PROPERTY
Coulomb
SciTegic.value.DoubleValue
-8.574

@<SCITEGIC>MOL_PROPERTY
VdW
SciTegic.value.DoubleValue
0.628

@<SCITEGIC>MOL_PROPERTY
VdW6
SciTegic.value.DoubleValue
-3.284

@<SCITEGIC>MOL_PROPERTY
VdW12
SciTegic.value.DoubleValue
3.912

@<SCITEGIC>MOL_PROPERTY
Bond
SciTegic.value.DoubleValue
0.054

@<SCITEGIC>MOL_PROPERTY
Angle
SciTegic.value.DoubleValue
4.034

@<SCITEGIC>MOL_PROPERTY
Pdih
SciTegic.value.DoubleValue
9.702

@<SCITEGIC>MOL_PROPERTY
Idih
SciTegic.value.DoubleValue
0.000

@<SCITEGIC>MOL_PROPERTY
Tether
SciTegic.value.DoubleValue
0.000

@<TRIPOS>MOLECULE
guest-4_confgen4.mol2 : confsearch ligand conformer 707
          16          16           1
SMALL
USER_CHARGES
 
@<TRIPOS>ATOM
       1    C1      19.555953   17.291538   22.845110 C.3        1 MOL1        -0.1689
       2    H1      20.093521   16.763083   23.644181 H          1 MOL1         0.0830
       3    H2      18.802184   16.608994   22.428473 H          1 MOL1         0.0830
       4    C2      20.493392   17.769525   21.727763 C.3        1 MOL1        -0.1689
       5    H3      21.429414   18.142258   22.166637 H          1 MOL1         0.0830
       6    H4      20.741189   16.969418   21.017081 H          1 MOL1         0.0830
       7    C3      19.736755   18.933564   21.061738 C.3        1 MOL1        -0.1765
       8    H5      19.113224   18.548094   20.244605 H          1 MOL1         0.0830
       9    H6      20.427352   19.672835   20.634450 H          1 MOL1         0.0830
      10    C4      18.824400   19.542847   22.146256 C.3        1 MOL1         0.1214
      11    H7      17.796916   19.611431   21.760131 H          1 MOL1         0.0787
      12    C5      18.873469   18.576575   23.348606 C.3        1 MOL1        -0.1765
      13    H8      19.471142   19.010683   24.161698 H          1 MOL1         0.0830
      14    H9      17.869527   18.370019   23.741391 H          1 MOL1         0.0830
      15    O1      19.305552   20.826117   22.527842 O.3        1 MOL1        -0.5512
      16    H10     18.698627   21.158931   23.222398 H          1 MOL1         0.3776
@<TRIPOS>BOND
    1     1     2    1
    2     1     3    1
    3     1     4    1
    4     4     5    1
    5     4     6    1
    6     4     7    1
    7     7     8    1
    8     7     9    1
    9     7    10    1
   10    10    11    1
   11     1    12    1
   12    10    12    1
   13    12    13    1
   14    12    14    1
   15    10    15    1
   16    15    16    1
@<TRIPOS>SUBSTRUCTURE
       1 MOL1            1 RESIDUE      1      MOL     
@<SCITEGIC>MOL_PROPERTY
VConf Rank
SciTegic.value.IntegerValue
707

@<SCITEGIC>MOL_PROPERTY
Conf_Id
SciTegic.value.IntegerValue
33

@<SCITEGIC>MOL_PROPERTY
Delta U+W
SciTegic.value.DoubleValue
0.015

@<SCITEGIC>MOL_PROPERTY
U+W
SciTegic.value.DoubleValue
3.025

@<SCITEGIC>MOL_PROPERTY
Grad RMS
SciTegic.value.DoubleValue
0.000000

@<SCITEGIC>MOL_PROPERTY
U
SciTegic.value.DoubleValue
5.843

@<SCITEGIC>MOL_PROPERTY
W
SciTegic.value.DoubleValue
-2.819

@<SCITEGIC>MOL_PROPERTY
W(PB)
SciTegic.value.DoubleValue
-4.568

@<SCITEGIC>MOL_PROPERTY
W(SA)
SciTegic.value.DoubleValue
1.750

@<SCITEGIC>MOL_PROPERTY
Valence
SciTegic.value.DoubleValue
13.789

@<SCITEGIC>MOL_PROPERTY
Coulomb
SciTegic.value.DoubleValue
-8.574

@<SCITEGIC>MOL_PROPERTY
VdW
SciTegic.value.DoubleValue
0.628

@<SCITEGIC>MOL_PROPERTY
VdW6
SciTegic.value.DoubleValue
-3.284

@<SCITEGIC>MOL_PROPERTY
VdW12
SciTegic.value.DoubleValue
3.913

@<SCITEGIC>MOL_PROPERTY
Bond
SciTegic.value.DoubleValue
0.054

@<SCITEGIC>MOL_PROPERTY
Angle
SciTegic.value.DoubleValue
4.033

@<SCITEGIC>MOL_PROPERTY
Pdih
SciTegic.value.DoubleValue
9.702

@<SCITEGIC>MOL_PROPERTY
Idih
SciTegic.value.DoubleValue
0.000

@<SCITEGIC>MOL_PROPERTY
Tether
SciTegic.value.DoubleValue
0.000

@<TRIPOS>MOLECULE
guest-4_confgen4.mol2 : confsearch ligand conformer 708
          16          16           1
SMALL
USER_CHARGES
 
@<TRIPOS>ATOM
       1    C1      19.761147   18.160141   21.059893 C.3        1 MOL1        -0.1689
       2    H1      20.784235   17.760408   21.032849 H          1 MOL1         0.0830
       3    H2      19.333688   18.050283   20.053808 H          1 MOL1         0.0830
       4    C2      19.786285   19.637847   21.507972 C.3        1 MOL1        -0.1689
       5    H3      20.821609   19.953585   21.696760 H          1 MOL1         0.0830
       6    H4      19.371024   20.300894   20.736657 H          1 MOL1         0.0830
       7    C3      18.959727   19.714725   22.809251 C.3        1 MOL1        -0.1765
       8    H5      17.940082   20.049359   22.576951 H          1 MOL1         0.0830
       9    H6      19.386903   20.422117   23.532523 H          1 MOL1         0.0830
      10    C4      18.901073   18.283863   23.360784 C.3        1 MOL1         0.1214
      11    H7      17.993972   18.117925   23.959628 H          1 MOL1         0.0787
      12    C5      18.919312   17.399791   22.106574 C.3        1 MOL1        -0.1765
      13    H8      19.316149   16.396361   22.310664 H          1 MOL1         0.0830
      14    H9      17.891864   17.283947   21.737046 H          1 MOL1         0.0830
      15    O1      20.068503   18.030388   24.128680 O.3        1 MOL1        -0.5512
      16    H10     20.816181   18.202127   23.519873 H          1 MOL1         0.3776
@<TRIPOS>BOND
    1     1     2    1
    2     1     3    1
    3     1     4    1
    4     4     5    1
    5     4     6    1
    6     4     7    1
    7     7     8    1
    8     7     9    1
    9     7    10    1
   10    10    11    1
   11     1    12    1
   12    10    12    1
   13    12    13    1
   14    12    14    1
   15    10    15    1
   16    15    16    1
@<TRIPOS>SUBSTRUCTURE
       1 MOL1            1 RESIDUE      1      MOL     
@<SCITEGIC>MOL_PROPERTY
VConf Rank
SciTegic.value.IntegerValue
708

@<SCITEGIC>MOL_PROPERTY
Conf_Id
SciTegic.value.IntegerValue
20

@<SCITEGIC>MOL_PROPERTY
Delta U+W
SciTegic.value.DoubleValue
-0.483

@<SCITEGIC>MOL_PROPERTY
U+W
SciTegic.value.DoubleValue
2.527

@<SCITEGIC>MOL_PROPERTY
Grad RMS
SciTegic.value.DoubleValue
0.000000

@<SCITEGIC>MOL_PROPERTY
U
SciTegic.value.DoubleValue
4.508

@<SCITEGIC>MOL_PROPERTY
W
SciTegic.value.DoubleValue
-1.981

@<SCITEGIC>MOL_PROPERTY
W(PB)
SciTegic.value.DoubleValue
-3.712

@<SCITEGIC>MOL_PROPERTY
W(SA)
SciTegic.value.DoubleValue
1.732

@<SCITEGIC>MOL_PROPERTY
Valence
SciTegic.value.DoubleValue
14.705

@<SCITEGIC>MOL_PROPERTY
Coulomb
SciTegic.value.DoubleValue
-10.687

@<SCITEGIC>MOL_PROPERTY
VdW
SciTegic.value.DoubleValue
0.490

@<SCITEGIC>MOL_PROPERTY
VdW6
SciTegic.value.DoubleValue
-3.745

@<SCITEGIC>MOL_PROPERTY
VdW12
SciTegic.value.DoubleValue
4.235

@<SCITEGIC>MOL_PROPERTY
Bond
SciTegic.value.DoubleValue
0.068

@<SCITEGIC>MOL_PROPERTY
Angle
SciTegic.value.DoubleValue
3.901

@<SCITEGIC>MOL_PROPERTY
Pdih
SciTegic.value.DoubleValue
10.737

@<SCITEGIC>MOL_PROPERTY
Idih
SciTegic.value.DoubleValue
0.000

@<SCITEGIC>MOL_PROPERTY
Tether
SciTegic.value.DoubleValue
0.000

@<TRIPOS>MOLECULE
guest-4_confgen4.mol2 : confsearch ligand conformer 709
          16          16           1
SMALL
USER_CHARGES
 
@<TRIPOS>ATOM
       1    C1      19.014994   17.141659   22.346053 C.3        1 MOL1        -0.1689
       2    H1      19.974047   16.618810   22.466571 H          1 MOL1         0.0830
       3    H2      18.211138   16.393112   22.357699 H          1 MOL1         0.0830
       4    C2      19.035015   17.960183   21.047844 C.3        1 MOL1        -0.1689
       5    H3      19.533265   17.428198   20.225957 H          1 MOL1         0.0830
       6    H4      18.005341   18.185529   20.737015 H          1 MOL1         0.0830
       7    C3      19.761480   19.263418   21.427824 C.3        1 MOL1        -0.1765
       8    H5      19.418699   20.107075   20.814970 H          1 MOL1         0.0830
       9    H6      20.840059   19.140403   21.259542 H          1 MOL1         0.0830
      10    C4      19.477485   19.498584   22.926398 C.3        1 MOL1         0.1214
      11    H7      18.756376   20.319941   23.048434 H          1 MOL1         0.0787
      12    C5      18.856440   18.191631   23.461198 C.3        1 MOL1        -0.1765
      13    H8      19.324545   17.860455   24.397799 H          1 MOL1         0.0830
      14    H9      17.790046   18.357939   23.661767 H          1 MOL1         0.0830
      15    O1      20.688165   19.784788   23.616493 O.3        1 MOL1        -0.5512
      16    H10     21.042472   20.613809   23.230847 H          1 MOL1         0.3776
@<TRIPOS>BOND
    1     1     2    1
    2     1     3    1
    3     1     4    1
    4     4     5    1
    5     4     6    1
    6     4     7    1
    7     7     8    1
    8     7     9    1
    9     7    10    1
   10    10    11    1
   11     1    12    1
   12    10    12    1
   13    12    13    1
   14    12    14    1
   15    10    15    1
   16    15    16    1
@<TRIPOS>SUBSTRUCTURE
       1 MOL1            1 RESIDUE      1      MOL     
@<SCITEGIC>MOL_PROPERTY
VConf Rank
SciTegic.value.IntegerValue
709

@<SCITEGIC>MOL_PROPERTY
Conf_Id
SciTegic.value.IntegerValue
59

@<SCITEGIC>MOL_PROPERTY
Delta U+W
SciTegic.value.DoubleValue
0.000

@<SCITEGIC>MOL_PROPERTY
U+W
SciTegic.value.DoubleValue
3.010

@<SCITEGIC>MOL_PROPERTY
Grad RMS
SciTegic.value.DoubleValue
0.000000

@<SCITEGIC>MOL_PROPERTY
U
SciTegic.value.DoubleValue
5.843

@<SCITEGIC>MOL_PROPERTY
W
SciTegic.value.DoubleValue
-2.833

@<SCITEGIC>MOL_PROPERTY
W(PB)
SciTegic.value.DoubleValue
-4.568

@<SCITEGIC>MOL_PROPERTY
W(SA)
SciTegic.value.DoubleValue
1.735

@<SCITEGIC>MOL_PROPERTY
Valence
SciTegic.value.DoubleValue
13.789

@<SCITEGIC>MOL_PROPERTY
Coulomb
SciTegic.value.DoubleValue
-8.574

@<SCITEGIC>MOL_PROPERTY
VdW
SciTegic.value.DoubleValue
0.628

@<SCITEGIC>MOL_PROPERTY
VdW6
SciTegic.value.DoubleValue
-3.284

@<SCITEGIC>MOL_PROPERTY
VdW12
SciTegic.value.DoubleValue
3.912

@<SCITEGIC>MOL_PROPERTY
Bond
SciTegic.value.DoubleValue
0.054

@<SCITEGIC>MOL_PROPERTY
Angle
SciTegic.value.DoubleValue
4.034

@<SCITEGIC>MOL_PROPERTY
Pdih
SciTegic.value.DoubleValue
9.702

@<SCITEGIC>MOL_PROPERTY
Idih
SciTegic.value.DoubleValue
0.000

@<SCITEGIC>MOL_PROPERTY
Tether
SciTegic.value.DoubleValue
0.000

@<TRIPOS>MOLECULE
guest-4_confgen4.mol2 : confsearch ligand conformer 710
          16          16           1
SMALL
USER_CHARGES
 
@<TRIPOS>ATOM
       1    C1      18.065879   18.329997   22.536227 C.3        1 MOL1        -0.1689
       2    H1      17.365240   18.264173   23.379750 H          1 MOL1         0.0830
       3    H2      17.488703   18.258695   21.603808 H          1 MOL1         0.0830
       4    C2      19.128236   17.222810   22.571735 C.3        1 MOL1        -0.1689
       5    H3      19.454061   17.058156   23.608270 H          1 MOL1         0.0830
       6    H4      18.754592   16.269912   22.172965 H          1 MOL1         0.0830
       7    C3      20.299673   17.786310   21.746338 C.3        1 MOL1        -0.1765
       8    H5      20.176974   17.504497   20.692482 H          1 MOL1         0.0830
       9    H6      21.264016   17.387499   22.088406 H          1 MOL1         0.0830
      10    C4      20.224831   19.322321   21.868261 C.3        1 MOL1         0.1214
      11    H7      20.253585   19.768363   20.863403 H          1 MOL1         0.0787
      12    C5      18.876223   19.639120   22.548431 C.3        1 MOL1        -0.1765
      13    H8      19.039122   19.955855   23.587625 H          1 MOL1         0.0830
      14    H9      18.342540   20.446000   22.029802 H          1 MOL1         0.0830
      15    O1      21.301127   19.804259   22.664012 O.3        1 MOL1        -0.5512
      16    H10     21.197813   20.777945   22.716844 H          1 MOL1         0.3776
@<TRIPOS>BOND
    1     1     2    1
    2     1     3    1
    3     1     4    1
    4     4     5    1
    5     4     6    1
    6     4     7    1
    7     7     8    1
    8     7     9    1
    9     7    10    1
   10    10    11    1
   11     1    12    1
   12    10    12    1
   13    12    13    1
   14    12    14    1
   15    10    15    1
   16    15    16    1
@<TRIPOS>SUBSTRUCTURE
       1 MOL1            1 RESIDUE      1      MOL     
@<SCITEGIC>MOL_PROPERTY
VConf Rank
SciTegic.value.IntegerValue
710

@<SCITEGIC>MOL_PROPERTY
Conf_Id
SciTegic.value.IntegerValue
33

@<SCITEGIC>MOL_PROPERTY
Delta U+W
SciTegic.value.DoubleValue
0.015

@<SCITEGIC>MOL_PROPERTY
U+W
SciTegic.value.DoubleValue
3.025

@<SCITEGIC>MOL_PROPERTY
Grad RMS
SciTegic.value.DoubleValue
0.000000

@<SCITEGIC>MOL_PROPERTY
U
SciTegic.value.DoubleValue
5.843

@<SCITEGIC>MOL_PROPERTY
W
SciTegic.value.DoubleValue
-2.819

@<SCITEGIC>MOL_PROPERTY
W(PB)
SciTegic.value.DoubleValue
-4.568

@<SCITEGIC>MOL_PROPERTY
W(SA)
SciTegic.value.DoubleValue
1.750

@<SCITEGIC>MOL_PROPERTY
Valence
SciTegic.value.DoubleValue
13.789

@<SCITEGIC>MOL_PROPERTY
Coulomb
SciTegic.value.DoubleValue
-8.574

@<SCITEGIC>MOL_PROPERTY
VdW
SciTegic.value.DoubleValue
0.628

@<SCITEGIC>MOL_PROPERTY
VdW6
SciTegic.value.DoubleValue
-3.284

@<SCITEGIC>MOL_PROPERTY
VdW12
SciTegic.value.DoubleValue
3.913

@<SCITEGIC>MOL_PROPERTY
Bond
SciTegic.value.DoubleValue
0.054

@<SCITEGIC>MOL_PROPERTY
Angle
SciTegic.value.DoubleValue
4.033

@<SCITEGIC>MOL_PROPERTY
Pdih
SciTegic.value.DoubleValue
9.702

@<SCITEGIC>MOL_PROPERTY
Idih
SciTegic.value.DoubleValue
0.000

@<SCITEGIC>MOL_PROPERTY
Tether
SciTegic.value.DoubleValue
0.000

@<TRIPOS>MOLECULE
guest-4_confgen4.mol2 : confsearch ligand conformer 711
          16          16           1
SMALL
USER_CHARGES
 
@<TRIPOS>ATOM
       1    C1      19.676020   19.912262   22.226469 C.3        1 MOL1        -0.1689
       2    H1      18.895653   20.564785   22.641763 H          1 MOL1         0.0830
       3    H2      20.511839   20.551571   21.910734 H          1 MOL1         0.0830
       4    C2      19.105774   19.098163   21.044486 C.3        1 MOL1        -0.1689
       5    H3      18.049738   19.357455   20.887060 H          1 MOL1         0.0830
       6    H4      19.643977   19.310863   20.110626 H          1 MOL1         0.0830
       7    C3      19.237143   17.610390   21.433987 C.3        1 MOL1        -0.1765
       8    H5      20.143162   17.190317   20.977599 H          1 MOL1         0.0830
       9    H6      18.382125   17.013065   21.090254 H          1 MOL1         0.0830
      10    C4      19.389406   17.582498   22.960758 C.3        1 MOL1         0.1214
      11    H7      19.954961   16.700765   23.294938 H          1 MOL1         0.0787
      12    C5      20.131691   18.885817   23.285304 C.3        1 MOL1        -0.1765
      13    H8      19.938132   19.230748   24.309785 H          1 MOL1         0.0830
      14    H9      21.211945   18.714365   23.188991 H          1 MOL1         0.0830
      15    O1      18.102232   17.615723   23.559831 O.3        1 MOL1        -0.5512
      16    H10     17.677956   18.424978   23.207328 H          1 MOL1         0.3776
@<TRIPOS>BOND
    1     1     2    1
    2     1     3    1
    3     1     4    1
    4     4     5    1
    5     4     6    1
    6     4     7    1
    7     7     8    1
    8     7     9    1
    9     7    10    1
   10    10    11    1
   11     1    12    1
   12    10    12    1
   13    12    13    1
   14    12    14    1
   15    10    15    1
   16    15    16    1
@<TRIPOS>SUBSTRUCTURE
       1 MOL1            1 RESIDUE      1      MOL     
@<SCITEGIC>MOL_PROPERTY
VConf Rank
SciTegic.value.IntegerValue
711

@<SCITEGIC>MOL_PROPERTY
Conf_Id
SciTegic.value.IntegerValue
20

@<SCITEGIC>MOL_PROPERTY
Delta U+W
SciTegic.value.DoubleValue
-0.483

@<SCITEGIC>MOL_PROPERTY
U+W
SciTegic.value.DoubleValue
2.527

@<SCITEGIC>MOL_PROPERTY
Grad RMS
SciTegic.value.DoubleValue
0.000000

@<SCITEGIC>MOL_PROPERTY
U
SciTegic.value.DoubleValue
4.508

@<SCITEGIC>MOL_PROPERTY
W
SciTegic.value.DoubleValue
-1.981

@<SCITEGIC>MOL_PROPERTY
W(PB)
SciTegic.value.DoubleValue
-3.712

@<SCITEGIC>MOL_PROPERTY
W(SA)
SciTegic.value.DoubleValue
1.732

@<SCITEGIC>MOL_PROPERTY
Valence
SciTegic.value.DoubleValue
14.705

@<SCITEGIC>MOL_PROPERTY
Coulomb
SciTegic.value.DoubleValue
-10.687

@<SCITEGIC>MOL_PROPERTY
VdW
SciTegic.value.DoubleValue
0.490

@<SCITEGIC>MOL_PROPERTY
VdW6
SciTegic.value.DoubleValue
-3.745

@<SCITEGIC>MOL_PROPERTY
VdW12
SciTegic.value.DoubleValue
4.235

@<SCITEGIC>MOL_PROPERTY
Bond
SciTegic.value.DoubleValue
0.068

@<SCITEGIC>MOL_PROPERTY
Angle
SciTegic.value.DoubleValue
3.901

@<SCITEGIC>MOL_PROPERTY
Pdih
SciTegic.value.DoubleValue
10.737

@<SCITEGIC>MOL_PROPERTY
Idih
SciTegic.value.DoubleValue
0.000

@<SCITEGIC>MOL_PROPERTY
Tether
SciTegic.value.DoubleValue
0.000

@<TRIPOS>MOLECULE
guest-4_confgen4.mol2 : confsearch ligand conformer 712
          16          16           1
SMALL
USER_CHARGES
 
@<TRIPOS>ATOM
       1    C1      19.398492   19.540856   23.381103 C.3        1 MOL1        -0.1689
       2    H1      18.998855   19.021911   24.263522 H          1 MOL1         0.0830
       3    H2      19.707318   20.550002   23.685890 H          1 MOL1         0.0830
       4    C2      18.337171   19.562375   22.272563 C.3        1 MOL1        -0.1689
       5    H3      17.326757   19.741381   22.664710 H          1 MOL1         0.0830
       6    H4      18.571818   20.357800   21.551546 H          1 MOL1         0.0830
       7    C3      18.466376   18.187466   21.591763 C.3        1 MOL1        -0.1765
       8    H5      18.178843   18.235259   20.533516 H          1 MOL1         0.0830
       9    H6      17.799529   17.471026   22.090575 H          1 MOL1         0.0830
      10    C4      19.938176   17.755103   21.760727 C.3        1 MOL1         0.1214
      11    H7      20.470153   17.848228   20.802683 H          1 MOL1         0.0787
      12    C5      20.561025   18.725229   22.785787 C.3        1 MOL1        -0.1765
      13    H8      21.127468   18.199761   23.566202 H          1 MOL1         0.0830
      14    H9      21.255011   19.398319   22.265774 H          1 MOL1         0.0830
      15    O1      20.004870   16.419428   22.245920 O.3        1 MOL1        -0.5512
      16    H10     19.587705   15.851391   21.564129 H          1 MOL1         0.3776
@<TRIPOS>BOND
    1     1     2    1
    2     1     3    1
    3     1     4    1
    4     4     5    1
    5     4     6    1
    6     4     7    1
    7     7     8    1
    8     7     9    1
    9     7    10    1
   10    10    11    1
   11     1    12    1
   12    10    12    1
   13    12    13    1
   14    12    14    1
   15    10    15    1
   16    15    16    1
@<TRIPOS>SUBSTRUCTURE
       1 MOL1            1 RESIDUE      1      MOL     
@<SCITEGIC>MOL_PROPERTY
VConf Rank
SciTegic.value.IntegerValue
712

@<SCITEGIC>MOL_PROPERTY
Conf_Id
SciTegic.value.IntegerValue
59

@<SCITEGIC>MOL_PROPERTY
Delta U+W
SciTegic.value.DoubleValue
0.000

@<SCITEGIC>MOL_PROPERTY
U+W
SciTegic.value.DoubleValue
3.010

@<SCITEGIC>MOL_PROPERTY
Grad RMS
SciTegic.value.DoubleValue
0.000000

@<SCITEGIC>MOL_PROPERTY
U
SciTegic.value.DoubleValue
5.843

@<SCITEGIC>MOL_PROPERTY
W
SciTegic.value.DoubleValue
-2.833

@<SCITEGIC>MOL_PROPERTY
W(PB)
SciTegic.value.DoubleValue
-4.568

@<SCITEGIC>MOL_PROPERTY
W(SA)
SciTegic.value.DoubleValue
1.735

@<SCITEGIC>MOL_PROPERTY
Valence
SciTegic.value.DoubleValue
13.789

@<SCITEGIC>MOL_PROPERTY
Coulomb
SciTegic.value.DoubleValue
-8.574

@<SCITEGIC>MOL_PROPERTY
VdW
SciTegic.value.DoubleValue
0.628

@<SCITEGIC>MOL_PROPERTY
VdW6
SciTegic.value.DoubleValue
-3.284

@<SCITEGIC>MOL_PROPERTY
VdW12
SciTegic.value.DoubleValue
3.912

@<SCITEGIC>MOL_PROPERTY
Bond
SciTegic.value.DoubleValue
0.054

@<SCITEGIC>MOL_PROPERTY
Angle
SciTegic.value.DoubleValue
4.034

@<SCITEGIC>MOL_PROPERTY
Pdih
SciTegic.value.DoubleValue
9.702

@<SCITEGIC>MOL_PROPERTY
Idih
SciTegic.value.DoubleValue
0.000

@<SCITEGIC>MOL_PROPERTY
Tether
SciTegic.value.DoubleValue
0.000

@<TRIPOS>MOLECULE
guest-4_confgen4.mol2 : confsearch ligand conformer 713
          16          16           1
SMALL
USER_CHARGES
 
@<TRIPOS>ATOM
       1    C1      20.498991   19.592875   22.345401 C.3        1 MOL1        -0.1689
       2    H1      21.151565   20.152209   21.661259 H          1 MOL1         0.0830
       3    H2      20.633183   19.999445   23.357485 H          1 MOL1         0.0830
       4    C2      20.807355   18.089335   22.347954 C.3        1 MOL1        -0.1689
       5    H3      21.025475   17.756384   21.323627 H          1 MOL1         0.0830
       6    H4      21.668661   17.838780   22.982002 H          1 MOL1         0.0830
       7    C3      19.505136   17.429836   22.838221 C.3        1 MOL1        -0.1765
       8    H5      19.526721   17.340180   23.932105 H          1 MOL1         0.0830
       9    H6      19.381769   16.420695   22.422970 H          1 MOL1         0.0830
      10    C4      18.354431   18.374248   22.433549 C.3        1 MOL1         0.1214
      11    H7      17.726045   18.578737   23.312660 H          1 MOL1         0.0787
      12    C5      19.015651   19.679135   21.941826 C.3        1 MOL1        -0.1765
      13    H8      18.940471   19.755458   20.848526 H          1 MOL1         0.0830
      14    H9      18.532830   20.564357   22.375546 H          1 MOL1         0.0830
      15    O1      17.584706   17.790231   21.389353 O.3        1 MOL1        -0.5512
      16    H10     16.879624   18.434006   21.165874 H          1 MOL1         0.3776
@<TRIPOS>BOND
    1     1     2    1
    2     1     3    1
    3     1     4    1
    4     4     5    1
    5     4     6    1
    6     4     7    1
    7     7     8    1
    8     7     9    1
    9     7    10    1
   10    10    11    1
   11     1    12    1
   12    10    12    1
   13    12    13    1
   14    12    14    1
   15    10    15    1
   16    15    16    1
@<TRIPOS>SUBSTRUCTURE
       1 MOL1            1 RESIDUE      1      MOL     
@<SCITEGIC>MOL_PROPERTY
VConf Rank
SciTegic.value.IntegerValue
713

@<SCITEGIC>MOL_PROPERTY
Conf_Id
SciTegic.value.IntegerValue
33

@<SCITEGIC>MOL_PROPERTY
Delta U+W
SciTegic.value.DoubleValue
0.015

@<SCITEGIC>MOL_PROPERTY
U+W
SciTegic.value.DoubleValue
3.025

@<SCITEGIC>MOL_PROPERTY
Grad RMS
SciTegic.value.DoubleValue
0.000000

@<SCITEGIC>MOL_PROPERTY
U
SciTegic.value.DoubleValue
5.843

@<SCITEGIC>MOL_PROPERTY
W
SciTegic.value.DoubleValue
-2.819

@<SCITEGIC>MOL_PROPERTY
W(PB)
SciTegic.value.DoubleValue
-4.568

@<SCITEGIC>MOL_PROPERTY
W(SA)
SciTegic.value.DoubleValue
1.750

@<SCITEGIC>MOL_PROPERTY
Valence
SciTegic.value.DoubleValue
13.789

@<SCITEGIC>MOL_PROPERTY
Coulomb
SciTegic.value.DoubleValue
-8.574

@<SCITEGIC>MOL_PROPERTY
VdW
SciTegic.value.DoubleValue
0.628

@<SCITEGIC>MOL_PROPERTY
VdW6
SciTegic.value.DoubleValue
-3.284

@<SCITEGIC>MOL_PROPERTY
VdW12
SciTegic.value.DoubleValue
3.913

@<SCITEGIC>MOL_PROPERTY
Bond
SciTegic.value.DoubleValue
0.054

@<SCITEGIC>MOL_PROPERTY
Angle
SciTegic.value.DoubleValue
4.033

@<SCITEGIC>MOL_PROPERTY
Pdih
SciTegic.value.DoubleValue
9.702

@<SCITEGIC>MOL_PROPERTY
Idih
SciTegic.value.DoubleValue
0.000

@<SCITEGIC>MOL_PROPERTY
Tether
SciTegic.value.DoubleValue
0.000

@<TRIPOS>MOLECULE
guest-4_confgen4.mol2 : confsearch ligand conformer 714
          16          16           1
SMALL
USER_CHARGES
 
@<TRIPOS>ATOM
       1    C1      20.292075   19.269595   21.540421 C.3        1 MOL1        -0.1689
       2    H1      20.576945   18.771199   20.603576 H          1 MOL1         0.0830
       3    H2      20.855716   20.210607   21.602088 H          1 MOL1         0.0830
       4    C2      20.595997   18.345929   22.740210 C.3        1 MOL1        -0.1689
       5    H3      21.028928   17.400946   22.384115 H          1 MOL1         0.0830
       6    H4      21.317874   18.804217   23.430040 H          1 MOL1         0.0830
       7    C3      19.247079   18.083073   23.442894 C.3        1 MOL1        -0.1765
       8    H5      19.140106   18.763591   24.297922 H          1 MOL1         0.0830
       9    H6      19.168504   17.055378   23.821938 H          1 MOL1         0.0830
      10    C4      18.159423   18.406278   22.409678 C.3        1 MOL1         0.1214
      11    H7      17.224687   18.725683   22.892619 H          1 MOL1         0.0787
      12    C5      18.771098   19.531196   21.563882 C.3        1 MOL1        -0.1765
      13    H8      18.340456   19.573961   20.554564 H          1 MOL1         0.0830
      14    H9      18.571912   20.493768   22.053169 H          1 MOL1         0.0830
      15    O1      17.942072   17.268600   21.587940 O.3        1 MOL1        -0.5512
      16    H10     18.818879   17.059742   21.204860 H          1 MOL1         0.3776
@<TRIPOS>BOND
    1     1     2    1
    2     1     3    1
    3     1     4    1
    4     4     5    1
    5     4     6    1
    6     4     7    1
    7     7     8    1
    8     7     9    1
    9     7    10    1
   10    10    11    1
   11     1    12    1
   12    10    12    1
   13    12    13    1
   14    12    14    1
   15    10    15    1
   16    15    16    1
@<TRIPOS>SUBSTRUCTURE
       1 MOL1            1 RESIDUE      1      MOL     
@<SCITEGIC>MOL_PROPERTY
VConf Rank
SciTegic.value.IntegerValue
714

@<SCITEGIC>MOL_PROPERTY
Conf_Id
SciTegic.value.IntegerValue
20

@<SCITEGIC>MOL_PROPERTY
Delta U+W
SciTegic.value.DoubleValue
-0.483

@<SCITEGIC>MOL_PROPERTY
U+W
SciTegic.value.DoubleValue
2.527

@<SCITEGIC>MOL_PROPERTY
Grad RMS
SciTegic.value.DoubleValue
0.000000

@<SCITEGIC>MOL_PROPERTY
U
SciTegic.value.DoubleValue
4.508

@<SCITEGIC>MOL_PROPERTY
W
SciTegic.value.DoubleValue
-1.981

@<SCITEGIC>MOL_PROPERTY
W(PB)
SciTegic.value.DoubleValue
-3.712

@<SCITEGIC>MOL_PROPERTY
W(SA)
SciTegic.value.DoubleValue
1.732

@<SCITEGIC>MOL_PROPERTY
Valence
SciTegic.value.DoubleValue
14.705

@<SCITEGIC>MOL_PROPERTY
Coulomb
SciTegic.value.DoubleValue
-10.687

@<SCITEGIC>MOL_PROPERTY
VdW
SciTegic.value.DoubleValue
0.490

@<SCITEGIC>MOL_PROPERTY
VdW6
SciTegic.value.DoubleValue
-3.745

@<SCITEGIC>MOL_PROPERTY
VdW12
SciTegic.value.DoubleValue
4.235

@<SCITEGIC>MOL_PROPERTY
Bond
SciTegic.value.DoubleValue
0.068

@<SCITEGIC>MOL_PROPERTY
Angle
SciTegic.value.DoubleValue
3.901

@<SCITEGIC>MOL_PROPERTY
Pdih
SciTegic.value.DoubleValue
10.737

@<SCITEGIC>MOL_PROPERTY
Idih
SciTegic.value.DoubleValue
0.000

@<SCITEGIC>MOL_PROPERTY
Tether
SciTegic.value.DoubleValue
0.000

@<TRIPOS>MOLECULE
guest-4_confgen4.mol2 : confsearch ligand conformer 715
          16          16           1
SMALL
USER_CHARGES
 
@<TRIPOS>ATOM
       1    C1      20.126088   19.587592   22.989274 C.3        1 MOL1        -0.1689
       2    H1      19.820502   19.526164   24.043087 H          1 MOL1         0.0830
       3    H2      20.910469   20.351691   22.902420 H          1 MOL1         0.0830
       4    C2      18.903078   19.901150   22.116545 C.3        1 MOL1        -0.1689
       5    H3      18.229668   20.630387   22.587173 H          1 MOL1         0.0830
       6    H4      19.232777   20.310768   21.151590 H          1 MOL1         0.0830
       7    C3      18.227317   18.534932   21.898944 C.3        1 MOL1        -0.1765
       8    H5      17.692299   18.500069   20.941141 H          1 MOL1         0.0830
       9    H6      17.496588   18.359380   22.700194 H          1 MOL1         0.0830
      10    C4      19.351340   17.479199   21.959597 C.3        1 MOL1         0.1214
      11    H7      19.566168   17.099754   20.949949 H          1 MOL1         0.0787
      12    C5      20.598334   18.203283   22.507815 C.3        1 MOL1        -0.1765
      13    H8      21.086731   17.639812   23.314034 H          1 MOL1         0.0830
      14    H9      21.327569   18.324458   21.696265 H          1 MOL1         0.0830
      15    O1      18.979769   16.415876   22.828602 O.3        1 MOL1        -0.5512
      16    H10     18.180869   16.001016   22.439779 H          1 MOL1         0.3776
@<TRIPOS>BOND
    1     1     2    1
    2     1     3    1
    3     1     4    1
    4     4     5    1
    5     4     6    1
    6     4     7    1
    7     7     8    1
    8     7     9    1
    9     7    10    1
   10    10    11    1
   11     1    12    1
   12    10    12    1
   13    12    13    1
   14    12    14    1
   15    10    15    1
   16    15    16    1
@<TRIPOS>SUBSTRUCTURE
       1 MOL1            1 RESIDUE      1      MOL     
@<SCITEGIC>MOL_PROPERTY
VConf Rank
SciTegic.value.IntegerValue
715

@<SCITEGIC>MOL_PROPERTY
Conf_Id
SciTegic.value.IntegerValue
59

@<SCITEGIC>MOL_PROPERTY
Delta U+W
SciTegic.value.DoubleValue
0.000

@<SCITEGIC>MOL_PROPERTY
U+W
SciTegic.value.DoubleValue
3.010

@<SCITEGIC>MOL_PROPERTY
Grad RMS
SciTegic.value.DoubleValue
0.000000

@<SCITEGIC>MOL_PROPERTY
U
SciTegic.value.DoubleValue
5.843

@<SCITEGIC>MOL_PROPERTY
W
SciTegic.value.DoubleValue
-2.833

@<SCITEGIC>MOL_PROPERTY
W(PB)
SciTegic.value.DoubleValue
-4.568

@<SCITEGIC>MOL_PROPERTY
W(SA)
SciTegic.value.DoubleValue
1.735

@<SCITEGIC>MOL_PROPERTY
Valence
SciTegic.value.DoubleValue
13.789

@<SCITEGIC>MOL_PROPERTY
Coulomb
SciTegic.value.DoubleValue
-8.574

@<SCITEGIC>MOL_PROPERTY
VdW
SciTegic.value.DoubleValue
0.628

@<SCITEGIC>MOL_PROPERTY
VdW6
SciTegic.value.DoubleValue
-3.284

@<SCITEGIC>MOL_PROPERTY
VdW12
SciTegic.value.DoubleValue
3.912

@<SCITEGIC>MOL_PROPERTY
Bond
SciTegic.value.DoubleValue
0.054

@<SCITEGIC>MOL_PROPERTY
Angle
SciTegic.value.DoubleValue
4.034

@<SCITEGIC>MOL_PROPERTY
Pdih
SciTegic.value.DoubleValue
9.702

@<SCITEGIC>MOL_PROPERTY
Idih
SciTegic.value.DoubleValue
0.000

@<SCITEGIC>MOL_PROPERTY
Tether
SciTegic.value.DoubleValue
0.000

@<TRIPOS>MOLECULE
guest-4_confgen4.mol2 : confsearch ligand conformer 716
          16          16           1
SMALL
USER_CHARGES
 
@<TRIPOS>ATOM
       1    C1      18.934898   17.451625   21.624503 C.3        1 MOL1        -0.1689
       2    H1      18.888715   16.362780   21.762497 H          1 MOL1         0.0830
       3    H2      18.298172   17.716846   20.769015 H          1 MOL1         0.0830
       4    C2      20.365736   17.948702   21.376824 C.3        1 MOL1        -0.1689
       5    H3      21.063951   17.397578   22.022142 H          1 MOL1         0.0830
       6    H4      20.681991   17.813957   20.333527 H          1 MOL1         0.0830
       7    C3      20.336733   19.430262   21.795411 C.3        1 MOL1        -0.1765
       8    H5      20.071741   20.052328   20.930600 H          1 MOL1         0.0830
       9    H6      21.316279   19.766438   22.160781 H          1 MOL1         0.0830
      10    C4      19.234984   19.563045   22.867006 C.3        1 MOL1         0.1214
      11    H7      18.554049   20.380571   22.588622 H          1 MOL1         0.0787
      12    C5      18.473199   18.220904   22.875764 C.3        1 MOL1        -0.1765
      13    H8      18.731128   17.642644   23.773466 H          1 MOL1         0.0830
      14    H9      17.386266   18.373945   22.874119 H          1 MOL1         0.0830
      15    O1      19.817534   19.805171   24.142117 O.3        1 MOL1        -0.5512
      16    H10     19.077239   19.869115   24.781964 H          1 MOL1         0.3776
@<TRIPOS>BOND
    1     1     2    1
    2     1     3    1
    3     1     4    1
    4     4     5    1
    5     4     6    1
    6     4     7    1
    7     7     8    1
    8     7     9    1
    9     7    10    1
   10    10    11    1
   11     1    12    1
   12    10    12    1
   13    12    13    1
   14    12    14    1
   15    10    15    1
   16    15    16    1
@<TRIPOS>SUBSTRUCTURE
       1 MOL1            1 RESIDUE      1      MOL     
@<SCITEGIC>MOL_PROPERTY
VConf Rank
SciTegic.value.IntegerValue
716

@<SCITEGIC>MOL_PROPERTY
Conf_Id
SciTegic.value.IntegerValue
33

@<SCITEGIC>MOL_PROPERTY
Delta U+W
SciTegic.value.DoubleValue
0.015

@<SCITEGIC>MOL_PROPERTY
U+W
SciTegic.value.DoubleValue
3.025

@<SCITEGIC>MOL_PROPERTY
Grad RMS
SciTegic.value.DoubleValue
0.000000

@<SCITEGIC>MOL_PROPERTY
U
SciTegic.value.DoubleValue
5.843

@<SCITEGIC>MOL_PROPERTY
W
SciTegic.value.DoubleValue
-2.819

@<SCITEGIC>MOL_PROPERTY
W(PB)
SciTegic.value.DoubleValue
-4.568

@<SCITEGIC>MOL_PROPERTY
W(SA)
SciTegic.value.DoubleValue
1.750

@<SCITEGIC>MOL_PROPERTY
Valence
SciTegic.value.DoubleValue
13.789

@<SCITEGIC>MOL_PROPERTY
Coulomb
SciTegic.value.DoubleValue
-8.574

@<SCITEGIC>MOL_PROPERTY
VdW
SciTegic.value.DoubleValue
0.628

@<SCITEGIC>MOL_PROPERTY
VdW6
SciTegic.value.DoubleValue
-3.284

@<SCITEGIC>MOL_PROPERTY
VdW12
SciTegic.value.DoubleValue
3.913

@<SCITEGIC>MOL_PROPERTY
Bond
SciTegic.value.DoubleValue
0.054

@<SCITEGIC>MOL_PROPERTY
Angle
SciTegic.value.DoubleValue
4.033

@<SCITEGIC>MOL_PROPERTY
Pdih
SciTegic.value.DoubleValue
9.702

@<SCITEGIC>MOL_PROPERTY
Idih
SciTegic.value.DoubleValue
0.000

@<SCITEGIC>MOL_PROPERTY
Tether
SciTegic.value.DoubleValue
0.000

@<TRIPOS>MOLECULE
guest-4_confgen4.mol2 : confsearch ligand conformer 717
          16          16           1
SMALL
USER_CHARGES
 
@<TRIPOS>ATOM
       1    C1      20.156070   19.284438   23.109809 C.3        1 MOL1        -0.1689
       2    H1      21.232164   19.196092   22.906231 H          1 MOL1         0.0830
       3    H2      20.034590   19.943069   23.980696 H          1 MOL1         0.0830
       4    C2      19.553642   17.885897   23.367074 C.3        1 MOL1        -0.1689
       5    H3      20.338365   17.120816   23.289053 H          1 MOL1         0.0830
       6    H4      19.116111   17.813270   24.372207 H          1 MOL1         0.0830
       7    C3      18.482329   17.663801   22.278315 C.3        1 MOL1        -0.1765
       8    H5      17.491059   17.904690   22.684489 H          1 MOL1         0.0830
       9    H6      18.455603   16.623784   21.926666 H          1 MOL1         0.0830
      10    C4      18.811803   18.650555   21.150149 C.3        1 MOL1         0.1214
      11    H7      17.912277   18.933808   20.584814 H          1 MOL1         0.0787
      12    C5      19.425303   19.855431   21.875992 C.3        1 MOL1        -0.1765
      13    H8      20.095015   20.435261   21.226925 H          1 MOL1         0.0830
      14    H9      18.617699   20.522968   22.204309 H          1 MOL1         0.0830
      15    O1      19.787322   18.073726   20.294324 O.3        1 MOL1        -0.5512
      16    H10     20.542399   17.856157   20.878862 H          1 MOL1         0.3776
@<TRIPOS>BOND
    1     1     2    1
    2     1     3    1
    3     1     4    1
    4     4     5    1
    5     4     6    1
    6     4     7    1
    7     7     8    1
    8     7     9    1
    9     7    10    1
   10    10    11    1
   11     1    12    1
   12    10    12    1
   13    12    13    1
   14    12    14    1
   15    10    15    1
   16    15    16    1
@<TRIPOS>SUBSTRUCTURE
       1 MOL1            1 RESIDUE      1      MOL     
@<SCITEGIC>MOL_PROPERTY
VConf Rank
SciTegic.value.IntegerValue
717

@<SCITEGIC>MOL_PROPERTY
Conf_Id
SciTegic.value.IntegerValue
20

@<SCITEGIC>MOL_PROPERTY
Delta U+W
SciTegic.value.DoubleValue
-0.483

@<SCITEGIC>MOL_PROPERTY
U+W
SciTegic.value.DoubleValue
2.527

@<SCITEGIC>MOL_PROPERTY
Grad RMS
SciTegic.value.DoubleValue
0.000000

@<SCITEGIC>MOL_PROPERTY
U
SciTegic.value.DoubleValue
4.508

@<SCITEGIC>MOL_PROPERTY
W
SciTegic.value.DoubleValue
-1.981

@<SCITEGIC>MOL_PROPERTY
W(PB)
SciTegic.value.DoubleValue
-3.712

@<SCITEGIC>MOL_PROPERTY
W(SA)
SciTegic.value.DoubleValue
1.732

@<SCITEGIC>MOL_PROPERTY
Valence
SciTegic.value.DoubleValue
14.705

@<SCITEGIC>MOL_PROPERTY
Coulomb
SciTegic.value.DoubleValue
-10.687

@<SCITEGIC>MOL_PROPERTY
VdW
SciTegic.value.DoubleValue
0.490

@<SCITEGIC>MOL_PROPERTY
VdW6
SciTegic.value.DoubleValue
-3.745

@<SCITEGIC>MOL_PROPERTY
VdW12
SciTegic.value.DoubleValue
4.235

@<SCITEGIC>MOL_PROPERTY
Bond
SciTegic.value.DoubleValue
0.068

@<SCITEGIC>MOL_PROPERTY
Angle
SciTegic.value.DoubleValue
3.901

@<SCITEGIC>MOL_PROPERTY
Pdih
SciTegic.value.DoubleValue
10.737

@<SCITEGIC>MOL_PROPERTY
Idih
SciTegic.value.DoubleValue
0.000

@<SCITEGIC>MOL_PROPERTY
Tether
SciTegic.value.DoubleValue
0.000

@<TRIPOS>MOLECULE
guest-4_confgen4.mol2 : confsearch ligand conformer 718
          16          16           1
SMALL
USER_CHARGES
 
@<TRIPOS>ATOM
       1    C1      20.368547   17.834356   21.556074 C.3        1 MOL1        -0.1689
       2    H1      20.622360   16.963321   22.176198 H          1 MOL1         0.0830
       3    H2      20.933484   17.764288   20.616616 H          1 MOL1         0.0830
       4    C2      20.675639   19.123727   22.329988 C.3        1 MOL1        -0.1689
       5    H3      21.607053   19.052466   22.908045 H          1 MOL1         0.0830
       6    H4      20.770886   19.963008   21.627021 H          1 MOL1         0.0830
       7    C3      19.443104   19.334040   23.228421 C.3        1 MOL1        -0.1765
       8    H5      19.273027   20.398922   23.433230 H          1 MOL1         0.0830
       9    H6      19.603479   18.826981   24.189647 H          1 MOL1         0.0830
      10    C4      18.248701   18.701898   22.483118 C.3        1 MOL1         0.1214
      11    H7      17.602028   19.490424   22.071342 H          1 MOL1         0.0787
      12    C5      18.846747   17.876866   21.324888 C.3        1 MOL1        -0.1765
      13    H8      18.418206   16.867369   21.267532 H          1 MOL1         0.0830
      14    H9      18.632321   18.384789   20.375616 H          1 MOL1         0.0830
      15    O1      17.514792   17.855846   23.360308 O.3        1 MOL1        -0.5512
      16    H10     17.169192   18.427233   24.078367 H          1 MOL1         0.3776
@<TRIPOS>BOND
    1     1     2    1
    2     1     3    1
    3     1     4    1
    4     4     5    1
    5     4     6    1
    6     4     7    1
    7     7     8    1
    8     7     9    1
    9     7    10    1
   10    10    11    1
   11     1    12    1
   12    10    12    1
   13    12    13    1
   14    12    14    1
   15    10    15    1
   16    15    16    1
@<TRIPOS>SUBSTRUCTURE
       1 MOL1            1 RESIDUE      1      MOL     
@<SCITEGIC>MOL_PROPERTY
VConf Rank
SciTegic.value.IntegerValue
718

@<SCITEGIC>MOL_PROPERTY
Conf_Id
SciTegic.value.IntegerValue
59

@<SCITEGIC>MOL_PROPERTY
Delta U+W
SciTegic.value.DoubleValue
0.000

@<SCITEGIC>MOL_PROPERTY
U+W
SciTegic.value.DoubleValue
3.010

@<SCITEGIC>MOL_PROPERTY
Grad RMS
SciTegic.value.DoubleValue
0.000000

@<SCITEGIC>MOL_PROPERTY
U
SciTegic.value.DoubleValue
5.843

@<SCITEGIC>MOL_PROPERTY
W
SciTegic.value.DoubleValue
-2.833

@<SCITEGIC>MOL_PROPERTY
W(PB)
SciTegic.value.DoubleValue
-4.568

@<SCITEGIC>MOL_PROPERTY
W(SA)
SciTegic.value.DoubleValue
1.735

@<SCITEGIC>MOL_PROPERTY
Valence
SciTegic.value.DoubleValue
13.789

@<SCITEGIC>MOL_PROPERTY
Coulomb
SciTegic.value.DoubleValue
-8.574

@<SCITEGIC>MOL_PROPERTY
VdW
SciTegic.value.DoubleValue
0.628

@<SCITEGIC>MOL_PROPERTY
VdW6
SciTegic.value.DoubleValue
-3.284

@<SCITEGIC>MOL_PROPERTY
VdW12
SciTegic.value.DoubleValue
3.912

@<SCITEGIC>MOL_PROPERTY
Bond
SciTegic.value.DoubleValue
0.054

@<SCITEGIC>MOL_PROPERTY
Angle
SciTegic.value.DoubleValue
4.034

@<SCITEGIC>MOL_PROPERTY
Pdih
SciTegic.value.DoubleValue
9.702

@<SCITEGIC>MOL_PROPERTY
Idih
SciTegic.value.DoubleValue
0.000

@<SCITEGIC>MOL_PROPERTY
Tether
SciTegic.value.DoubleValue
0.000

@<TRIPOS>MOLECULE
guest-4_confgen4.mol2 : confsearch ligand conformer 719
          16          16           1
SMALL
USER_CHARGES
 
@<TRIPOS>ATOM
       1    C1      18.477587   18.555759   21.239873 C.3        1 MOL1        -0.1689
       2    H1      18.411120   18.271392   20.180875 H          1 MOL1         0.0830
       3    H2      17.460620   18.750996   21.607679 H          1 MOL1         0.0830
       4    C2      19.352512   19.797942   21.457161 C.3        1 MOL1        -0.1689
       5    H3      20.227730   19.752514   20.794130 H          1 MOL1         0.0830
       6    H4      18.812964   20.732369   21.251304 H          1 MOL1         0.0830
       7    C3      19.810653   19.694730   22.923630 C.3        1 MOL1        -0.1765
       8    H5      19.087870   20.206475   23.572310 H          1 MOL1         0.0830
       9    H6      20.789603   20.168598   23.075700 H          1 MOL1         0.0830
      10    C4      19.826311   18.192662   23.274833 C.3        1 MOL1         0.1214
      11    H7      19.256501   18.030232   24.201360 H          1 MOL1         0.0787
      12    C5      19.141669   17.464253   22.099069 C.3        1 MOL1        -0.1765
      13    H8      19.888294   16.930714   21.495191 H          1 MOL1         0.0830
      14    H9      18.406683   16.729651   22.452627 H          1 MOL1         0.0830
      15    O1      21.166047   17.737077   23.421283 O.3        1 MOL1        -0.5512
      16    H10     21.116453   16.780548   23.631334 H          1 MOL1         0.3776
@<TRIPOS>BOND
    1     1     2    1
    2     1     3    1
    3     1     4    1
    4     4     5    1
    5     4     6    1
    6     4     7    1
    7     7     8    1
    8     7     9    1
    9     7    10    1
   10    10    11    1
   11     1    12    1
   12    10    12    1
   13    12    13    1
   14    12    14    1
   15    10    15    1
   16    15    16    1
@<TRIPOS>SUBSTRUCTURE
       1 MOL1            1 RESIDUE      1      MOL     
@<SCITEGIC>MOL_PROPERTY
VConf Rank
SciTegic.value.IntegerValue
719

@<SCITEGIC>MOL_PROPERTY
Conf_Id
SciTegic.value.IntegerValue
33

@<SCITEGIC>MOL_PROPERTY
Delta U+W
SciTegic.value.DoubleValue
0.015

@<SCITEGIC>MOL_PROPERTY
U+W
SciTegic.value.DoubleValue
3.025

@<SCITEGIC>MOL_PROPERTY
Grad RMS
SciTegic.value.DoubleValue
0.000000

@<SCITEGIC>MOL_PROPERTY
U
SciTegic.value.DoubleValue
5.843

@<SCITEGIC>MOL_PROPERTY
W
SciTegic.value.DoubleValue
-2.819

@<SCITEGIC>MOL_PROPERTY
W(PB)
SciTegic.value.DoubleValue
-4.568

@<SCITEGIC>MOL_PROPERTY
W(SA)
SciTegic.value.DoubleValue
1.750

@<SCITEGIC>MOL_PROPERTY
Valence
SciTegic.value.DoubleValue
13.789

@<SCITEGIC>MOL_PROPERTY
Coulomb
SciTegic.value.DoubleValue
-8.574

@<SCITEGIC>MOL_PROPERTY
VdW
SciTegic.value.DoubleValue
0.628

@<SCITEGIC>MOL_PROPERTY
VdW6
SciTegic.value.DoubleValue
-3.284

@<SCITEGIC>MOL_PROPERTY
VdW12
SciTegic.value.DoubleValue
3.913

@<SCITEGIC>MOL_PROPERTY
Bond
SciTegic.value.DoubleValue
0.054

@<SCITEGIC>MOL_PROPERTY
Angle
SciTegic.value.DoubleValue
4.033

@<SCITEGIC>MOL_PROPERTY
Pdih
SciTegic.value.DoubleValue
9.702

@<SCITEGIC>MOL_PROPERTY
Idih
SciTegic.value.DoubleValue
0.000

@<SCITEGIC>MOL_PROPERTY
Tether
SciTegic.value.DoubleValue
0.000

@<TRIPOS>MOLECULE
guest-4_confgen4.mol2 : confsearch ligand conformer 720
          16          16           1
SMALL
USER_CHARGES
 
@<TRIPOS>ATOM
       1    C1      20.174163   17.600259   21.895629 C.3        1 MOL1        -0.1689
       2    H1      20.090508   17.315959   20.837611 H          1 MOL1         0.0830
       3    H2      20.932535   16.952194   22.355932 H          1 MOL1         0.0830
       4    C2      18.802642   17.450925   22.589640 C.3        1 MOL1        -0.1689
       5    H3      18.055464   17.093346   21.867774 H          1 MOL1         0.0830
       6    H4      18.843821   16.725469   23.413665 H          1 MOL1         0.0830
       7    C3      18.417625   18.854140   23.104601 C.3        1 MOL1        -0.1765
       8    H5      18.680111   18.939678   24.167336 H          1 MOL1         0.0830
       9    H6      17.341581   19.051742   23.009260 H          1 MOL1         0.0830
      10    C4      19.264856   19.849359   22.300405 C.3        1 MOL1         0.1214
      11    H7      19.450912   20.772946   22.867284 H          1 MOL1         0.0787
      12    C5      20.566986   19.087870   22.018360 C.3        1 MOL1        -0.1765
      13    H8      21.079527   19.458496   21.120617 H          1 MOL1         0.0830
      14    H9      21.247953   19.218452   22.869744 H          1 MOL1         0.0830
      15    O1      18.612760   20.132189   21.070940 O.3        1 MOL1        -0.5512
      16    H10     18.490309   19.260741   20.641118 H          1 MOL1         0.3776
@<TRIPOS>BOND
    1     1     2    1
    2     1     3    1
    3     1     4    1
    4     4     5    1
    5     4     6    1
    6     4     7    1
    7     7     8    1
    8     7     9    1
    9     7    10    1
   10    10    11    1
   11     1    12    1
   12    10    12    1
   13    12    13    1
   14    12    14    1
   15    10    15    1
   16    15    16    1
@<TRIPOS>SUBSTRUCTURE
       1 MOL1            1 RESIDUE      1      MOL     
@<SCITEGIC>MOL_PROPERTY
VConf Rank
SciTegic.value.IntegerValue
720

@<SCITEGIC>MOL_PROPERTY
Conf_Id
SciTegic.value.IntegerValue
20

@<SCITEGIC>MOL_PROPERTY
Delta U+W
SciTegic.value.DoubleValue
-0.483

@<SCITEGIC>MOL_PROPERTY
U+W
SciTegic.value.DoubleValue
2.527

@<SCITEGIC>MOL_PROPERTY
Grad RMS
SciTegic.value.DoubleValue
0.000000

@<SCITEGIC>MOL_PROPERTY
U
SciTegic.value.DoubleValue
4.508

@<SCITEGIC>MOL_PROPERTY
W
SciTegic.value.DoubleValue
-1.981

@<SCITEGIC>MOL_PROPERTY
W(PB)
SciTegic.value.DoubleValue
-3.712

@<SCITEGIC>MOL_PROPERTY
W(SA)
SciTegic.value.DoubleValue
1.732

@<SCITEGIC>MOL_PROPERTY
Valence
SciTegic.value.DoubleValue
14.705

@<SCITEGIC>MOL_PROPERTY
Coulomb
SciTegic.value.DoubleValue
-10.687

@<SCITEGIC>MOL_PROPERTY
VdW
SciTegic.value.DoubleValue
0.490

@<SCITEGIC>MOL_PROPERTY
VdW6
SciTegic.value.DoubleValue
-3.745

@<SCITEGIC>MOL_PROPERTY
VdW12
SciTegic.value.DoubleValue
4.235

@<SCITEGIC>MOL_PROPERTY
Bond
SciTegic.value.DoubleValue
0.068

@<SCITEGIC>MOL_PROPERTY
Angle
SciTegic.value.DoubleValue
3.901

@<SCITEGIC>MOL_PROPERTY
Pdih
SciTegic.value.DoubleValue
10.737

@<SCITEGIC>MOL_PROPERTY
Idih
SciTegic.value.DoubleValue
0.000

@<SCITEGIC>MOL_PROPERTY
Tether
SciTegic.value.DoubleValue
0.000

@<TRIPOS>MOLECULE
guest-4_confgen4.mol2 : confsearch ligand conformer 721
          16          16           1
SMALL
USER_CHARGES
 
@<TRIPOS>ATOM
       1    C1      19.520114   17.822345   23.559946 C.3        1 MOL1        -0.1689
       2    H1      19.957289   16.857298   23.267986 H          1 MOL1         0.0830
       3    H2      19.444403   17.848462   24.655496 H          1 MOL1         0.0830
       4    C2      18.158527   17.998783   22.873886 C.3        1 MOL1        -0.1689
       5    H3      17.580729   17.064922   22.845377 H          1 MOL1         0.0830
       6    H4      17.567641   18.752089   23.413339 H          1 MOL1         0.0830
       7    C3      18.503367   18.517633   21.465896 C.3        1 MOL1        -0.1765
       8    H5      17.701408   19.150207   21.063956 H          1 MOL1         0.0830
       9    H6      18.633014   17.664528   20.786052 H          1 MOL1         0.0830
      10    C4      19.827410   19.298630   21.602411 C.3        1 MOL1         0.1214
      11    H7      19.635816   20.379342   21.532614 H          1 MOL1         0.0787
      12    C5      20.383690   18.969193   23.003074 C.3        1 MOL1        -0.1765
      13    H8      21.447454   18.697741   22.975825 H          1 MOL1         0.0830
      14    H9      20.281279   19.853153   23.645887 H          1 MOL1         0.0830
      15    O1      20.747301   18.884543   20.599305 O.3        1 MOL1        -0.5512
      16    H10     20.340124   19.106667   19.735361 H          1 MOL1         0.3776
@<TRIPOS>BOND
    1     1     2    1
    2     1     3    1
    3     1     4    1
    4     4     5    1
    5     4     6    1
    6     4     7    1
    7     7     8    1
    8     7     9    1
    9     7    10    1
   10    10    11    1
   11     1    12    1
   12    10    12    1
   13    12    13    1
   14    12    14    1
   15    10    15    1
   16    15    16    1
@<TRIPOS>SUBSTRUCTURE
       1 MOL1            1 RESIDUE      1      MOL     
@<SCITEGIC>MOL_PROPERTY
VConf Rank
SciTegic.value.IntegerValue
721

@<SCITEGIC>MOL_PROPERTY
Conf_Id
SciTegic.value.IntegerValue
59

@<SCITEGIC>MOL_PROPERTY
Delta U+W
SciTegic.value.DoubleValue
0.000

@<SCITEGIC>MOL_PROPERTY
U+W
SciTegic.value.DoubleValue
3.010

@<SCITEGIC>MOL_PROPERTY
Grad RMS
SciTegic.value.DoubleValue
0.000000

@<SCITEGIC>MOL_PROPERTY
U
SciTegic.value.DoubleValue
5.843

@<SCITEGIC>MOL_PROPERTY
W
SciTegic.value.DoubleValue
-2.833

@<SCITEGIC>MOL_PROPERTY
W(PB)
SciTegic.value.DoubleValue
-4.568

@<SCITEGIC>MOL_PROPERTY
W(SA)
SciTegic.value.DoubleValue
1.735

@<SCITEGIC>MOL_PROPERTY
Valence
SciTegic.value.DoubleValue
13.789

@<SCITEGIC>MOL_PROPERTY
Coulomb
SciTegic.value.DoubleValue
-8.574

@<SCITEGIC>MOL_PROPERTY
VdW
SciTegic.value.DoubleValue
0.628

@<SCITEGIC>MOL_PROPERTY
VdW6
SciTegic.value.DoubleValue
-3.284

@<SCITEGIC>MOL_PROPERTY
VdW12
SciTegic.value.DoubleValue
3.912

@<SCITEGIC>MOL_PROPERTY
Bond
SciTegic.value.DoubleValue
0.054

@<SCITEGIC>MOL_PROPERTY
Angle
SciTegic.value.DoubleValue
4.034

@<SCITEGIC>MOL_PROPERTY
Pdih
SciTegic.value.DoubleValue
9.702

@<SCITEGIC>MOL_PROPERTY
Idih
SciTegic.value.DoubleValue
0.000

@<SCITEGIC>MOL_PROPERTY
Tether
SciTegic.value.DoubleValue
0.000

@<TRIPOS>MOLECULE
guest-4_confgen4.mol2 : confsearch ligand conformer 722
          16          16           1
SMALL
USER_CHARGES
 
@<TRIPOS>ATOM
       1    C1      18.281536   19.245840   21.754777 C.3        1 MOL1        -0.1689
       2    H1      18.016496   20.084174   21.096212 H          1 MOL1         0.0830
       3    H2      17.367738   18.673579   21.967175 H          1 MOL1         0.0830
       4    C2      18.914472   19.715374   23.071841 C.3        1 MOL1        -0.1689
       5    H3      19.591396   20.558444   22.875153 H          1 MOL1         0.0830
       6    H4      18.164230   20.040336   23.805448 H          1 MOL1         0.0830
       7    C3      19.728769   18.503643   23.561436 C.3        1 MOL1        -0.1765
       8    H5      19.099029   17.870058   24.199465 H          1 MOL1         0.0830
       9    H6      20.599076   18.814415   24.154737 H          1 MOL1         0.0830
      10    C4      20.131989   17.707336   22.303220 C.3        1 MOL1         0.1214
      11    H7      19.851076   16.652293   22.435480 H          1 MOL1         0.0787
      12    C5      19.341454   18.321197   21.128502 C.3        1 MOL1        -0.1765
      13    H8      20.009162   18.914689   20.489194 H          1 MOL1         0.0830
      14    H9      18.878804   17.545626   20.504570 H          1 MOL1         0.0830
      15    O1      21.530219   17.830842   22.071713 O.3        1 MOL1        -0.5512
      16    H10     21.727170   17.318064   21.259434 H          1 MOL1         0.3776
@<TRIPOS>BOND
    1     1     2    1
    2     1     3    1
    3     1     4    1
    4     4     5    1
    5     4     6    1
    6     4     7    1
    7     7     8    1
    8     7     9    1
    9     7    10    1
   10    10    11    1
   11     1    12    1
   12    10    12    1
   13    12    13    1
   14    12    14    1
   15    10    15    1
   16    15    16    1
@<TRIPOS>SUBSTRUCTURE
       1 MOL1            1 RESIDUE      1      MOL     
@<SCITEGIC>MOL_PROPERTY
VConf Rank
SciTegic.value.IntegerValue
722

@<SCITEGIC>MOL_PROPERTY
Conf_Id
SciTegic.value.IntegerValue
33

@<SCITEGIC>MOL_PROPERTY
Delta U+W
SciTegic.value.DoubleValue
0.015

@<SCITEGIC>MOL_PROPERTY
U+W
SciTegic.value.DoubleValue
3.025

@<SCITEGIC>MOL_PROPERTY
Grad RMS
SciTegic.value.DoubleValue
0.000000

@<SCITEGIC>MOL_PROPERTY
U
SciTegic.value.DoubleValue
5.843

@<SCITEGIC>MOL_PROPERTY
W
SciTegic.value.DoubleValue
-2.819

@<SCITEGIC>MOL_PROPERTY
W(PB)
SciTegic.value.DoubleValue
-4.568

@<SCITEGIC>MOL_PROPERTY
W(SA)
SciTegic.value.DoubleValue
1.750

@<SCITEGIC>MOL_PROPERTY
Valence
SciTegic.value.DoubleValue
13.789

@<SCITEGIC>MOL_PROPERTY
Coulomb
SciTegic.value.DoubleValue
-8.574

@<SCITEGIC>MOL_PROPERTY
VdW
SciTegic.value.DoubleValue
0.628

@<SCITEGIC>MOL_PROPERTY
VdW6
SciTegic.value.DoubleValue
-3.284

@<SCITEGIC>MOL_PROPERTY
VdW12
SciTegic.value.DoubleValue
3.913

@<SCITEGIC>MOL_PROPERTY
Bond
SciTegic.value.DoubleValue
0.054

@<SCITEGIC>MOL_PROPERTY
Angle
SciTegic.value.DoubleValue
4.033

@<SCITEGIC>MOL_PROPERTY
Pdih
SciTegic.value.DoubleValue
9.702

@<SCITEGIC>MOL_PROPERTY
Idih
SciTegic.value.DoubleValue
0.000

@<SCITEGIC>MOL_PROPERTY
Tether
SciTegic.value.DoubleValue
0.000

@<TRIPOS>MOLECULE
guest-4_confgen4.mol2 : confsearch ligand conformer 723
          16          16           1
SMALL
USER_CHARGES
 
@<TRIPOS>ATOM
       1    C1      20.475153   18.272403   22.941926 C.3        1 MOL1        -0.1689
       2    H1      21.317915   18.966055   22.816121 H          1 MOL1         0.0830
       3    H2      20.794190   17.482711   23.635900 H          1 MOL1         0.0830
       4    C2      20.063717   17.691744   21.571315 C.3        1 MOL1        -0.1689
       5    H3      20.708026   18.103552   20.782325 H          1 MOL1         0.0830
       6    H4      20.166567   16.598168   21.548652 H          1 MOL1         0.0830
       7    C3      18.598065   18.116058   21.338383 C.3        1 MOL1        -0.1765
       8    H5      17.928487   17.293285   21.621810 H          1 MOL1         0.0830
       9    H6      18.398138   18.362487   20.287047 H          1 MOL1         0.0830
      10    C4      18.346779   19.307344   22.272560 C.3        1 MOL1         0.1214
      11    H7      17.287799   19.380336   22.559294 H          1 MOL1         0.0787
      12    C5      19.242277   19.024749   23.486307 C.3        1 MOL1        -0.1765
      13    H8      19.518008   19.942597   24.022526 H          1 MOL1         0.0830
      14    H9      18.698417   18.378513   24.187889 H          1 MOL1         0.0830
      15    O1      18.782981   20.500136   21.637122 O.3        1 MOL1        -0.5512
      16    H10     19.725236   20.343626   21.420737 H          1 MOL1         0.3776
@<TRIPOS>BOND
    1     1     2    1
    2     1     3    1
    3     1     4    1
    4     4     5    1
    5     4     6    1
    6     4     7    1
    7     7     8    1
    8     7     9    1
    9     7    10    1
   10    10    11    1
   11     1    12    1
   12    10    12    1
   13    12    13    1
   14    12    14    1
   15    10    15    1
   16    15    16    1
@<TRIPOS>SUBSTRUCTURE
       1 MOL1            1 RESIDUE      1      MOL     
@<SCITEGIC>MOL_PROPERTY
VConf Rank
SciTegic.value.IntegerValue
723

@<SCITEGIC>MOL_PROPERTY
Conf_Id
SciTegic.value.IntegerValue
20

@<SCITEGIC>MOL_PROPERTY
Delta U+W
SciTegic.value.DoubleValue
-0.483

@<SCITEGIC>MOL_PROPERTY
U+W
SciTegic.value.DoubleValue
2.527

@<SCITEGIC>MOL_PROPERTY
Grad RMS
SciTegic.value.DoubleValue
0.000000

@<SCITEGIC>MOL_PROPERTY
U
SciTegic.value.DoubleValue
4.508

@<SCITEGIC>MOL_PROPERTY
W
SciTegic.value.DoubleValue
-1.981

@<SCITEGIC>MOL_PROPERTY
W(PB)
SciTegic.value.DoubleValue
-3.712

@<SCITEGIC>MOL_PROPERTY
W(SA)
SciTegic.value.DoubleValue
1.732

@<SCITEGIC>MOL_PROPERTY
Valence
SciTegic.value.DoubleValue
14.705

@<SCITEGIC>MOL_PROPERTY
Coulomb
SciTegic.value.DoubleValue
-10.687

@<SCITEGIC>MOL_PROPERTY
VdW
SciTegic.value.DoubleValue
0.490

@<SCITEGIC>MOL_PROPERTY
VdW6
SciTegic.value.DoubleValue
-3.745

@<SCITEGIC>MOL_PROPERTY
VdW12
SciTegic.value.DoubleValue
4.235

@<SCITEGIC>MOL_PROPERTY
Bond
SciTegic.value.DoubleValue
0.068

@<SCITEGIC>MOL_PROPERTY
Angle
SciTegic.value.DoubleValue
3.901

@<SCITEGIC>MOL_PROPERTY
Pdih
SciTegic.value.DoubleValue
10.737

@<SCITEGIC>MOL_PROPERTY
Idih
SciTegic.value.DoubleValue
0.000

@<SCITEGIC>MOL_PROPERTY
Tether
SciTegic.value.DoubleValue
0.000

@<TRIPOS>MOLECULE
guest-4_confgen4.mol2 : confsearch ligand conformer 724
          16          16           1
SMALL
USER_CHARGES
 
@<TRIPOS>ATOM
       1    C1      20.522622   19.067642   23.016909 C.3        1 MOL1        -0.1689
       2    H1      20.227551   19.093316   24.075187 H          1 MOL1         0.0830
       3    H2      21.572940   19.381135   22.944820 H          1 MOL1         0.0830
       4    C2      19.585050   19.966899   22.199583 C.3        1 MOL1        -0.1689
       5    H3      19.332465   20.896632   22.727367 H          1 MOL1         0.0830
       6    H4      20.064564   20.231958   21.246989 H          1 MOL1         0.0830
       7    C3      18.348110   19.089482   21.933735 C.3        1 MOL1        -0.1765
       8    H5      17.855459   19.365327   20.992432 H          1 MOL1         0.0830
       9    H6      17.622972   19.227833   22.747257 H          1 MOL1         0.0830
      10    C4      18.848245   17.629770   21.905703 C.3        1 MOL1         0.1214
      11    H7      18.857102   17.254753   20.871874 H          1 MOL1         0.0787
      12    C5      20.291047   17.654325   22.451189 C.3        1 MOL1        -0.1765
      13    H8      20.462171   16.881234   23.212154 H          1 MOL1         0.0830
      14    H9      20.989402   17.469298   21.624662 H          1 MOL1         0.0830
      15    O1      18.025710   16.813077   22.730529 O.3        1 MOL1        -0.5512
      16    H10     17.124156   16.842853   22.346020 H          1 MOL1         0.3776
@<TRIPOS>BOND
    1     1     2    1
    2     1     3    1
    3     1     4    1
    4     4     5    1
    5     4     6    1
    6     4     7    1
    7     7     8    1
    8     7     9    1
    9     7    10    1
   10    10    11    1
   11     1    12    1
   12    10    12    1
   13    12    13    1
   14    12    14    1
   15    10    15    1
   16    15    16    1
@<TRIPOS>SUBSTRUCTURE
       1 MOL1            1 RESIDUE      1      MOL     
@<SCITEGIC>MOL_PROPERTY
VConf Rank
SciTegic.value.IntegerValue
724

@<SCITEGIC>MOL_PROPERTY
Conf_Id
SciTegic.value.IntegerValue
59

@<SCITEGIC>MOL_PROPERTY
Delta U+W
SciTegic.value.DoubleValue
0.000

@<SCITEGIC>MOL_PROPERTY
U+W
SciTegic.value.DoubleValue
3.010

@<SCITEGIC>MOL_PROPERTY
Grad RMS
SciTegic.value.DoubleValue
0.000000

@<SCITEGIC>MOL_PROPERTY
U
SciTegic.value.DoubleValue
5.843

@<SCITEGIC>MOL_PROPERTY
W
SciTegic.value.DoubleValue
-2.833

@<SCITEGIC>MOL_PROPERTY
W(PB)
SciTegic.value.DoubleValue
-4.568

@<SCITEGIC>MOL_PROPERTY
W(SA)
SciTegic.value.DoubleValue
1.735

@<SCITEGIC>MOL_PROPERTY
Valence
SciTegic.value.DoubleValue
13.789

@<SCITEGIC>MOL_PROPERTY
Coulomb
SciTegic.value.DoubleValue
-8.574

@<SCITEGIC>MOL_PROPERTY
VdW
SciTegic.value.DoubleValue
0.628

@<SCITEGIC>MOL_PROPERTY
VdW6
SciTegic.value.DoubleValue
-3.284

@<SCITEGIC>MOL_PROPERTY
VdW12
SciTegic.value.DoubleValue
3.912

@<SCITEGIC>MOL_PROPERTY
Bond
SciTegic.value.DoubleValue
0.054

@<SCITEGIC>MOL_PROPERTY
Angle
SciTegic.value.DoubleValue
4.034

@<SCITEGIC>MOL_PROPERTY
Pdih
SciTegic.value.DoubleValue
9.702

@<SCITEGIC>MOL_PROPERTY
Idih
SciTegic.value.DoubleValue
0.000

@<SCITEGIC>MOL_PROPERTY
Tether
SciTegic.value.DoubleValue
0.000

@<TRIPOS>MOLECULE
guest-4_confgen4.mol2 : confsearch ligand conformer 725
          16          16           1
SMALL
USER_CHARGES
 
@<TRIPOS>ATOM
       1    C1      18.260782   18.856262   21.529562 C.3        1 MOL1        -0.1689
       2    H1      17.531673   19.659851   21.358087 H          1 MOL1         0.0830
       3    H2      18.055853   18.047927   20.813867 H          1 MOL1         0.0830
       4    C2      18.197987   18.306485   22.961180 C.3        1 MOL1        -0.1689
       5    H3      18.043447   19.134365   23.667162 H          1 MOL1         0.0830
       6    H4      17.383664   17.581861   23.096983 H          1 MOL1         0.0830
       7    C3      19.585749   17.681603   23.195094 C.3        1 MOL1        -0.1765
       8    H5      19.571112   16.627114   22.890261 H          1 MOL1         0.0830
       9    H6      19.872586   17.718855   24.254507 H          1 MOL1         0.0830
      10    C4      20.572599   18.452085   22.293827 C.3        1 MOL1         0.1214
      11    H7      21.153731   17.735280   21.695500 H          1 MOL1         0.0787
      12    C5      19.713808   19.339169   21.367926 C.3        1 MOL1        -0.1765
      13    H8      19.783480   20.391125   21.676659 H          1 MOL1         0.0830
      14    H9      20.045047   19.271683   20.323621 H          1 MOL1         0.0830
      15    O1      21.433524   19.259993   23.087546 O.3        1 MOL1        -0.5512
      16    H10     22.027574   19.732254   22.466576 H          1 MOL1         0.3776
@<TRIPOS>BOND
    1     1     2    1
    2     1     3    1
    3     1     4    1
    4     4     5    1
    5     4     6    1
    6     4     7    1
    7     7     8    1
    8     7     9    1
    9     7    10    1
   10    10    11    1
   11     1    12    1
   12    10    12    1
   13    12    13    1
   14    12    14    1
   15    10    15    1
   16    15    16    1
@<TRIPOS>SUBSTRUCTURE
       1 MOL1            1 RESIDUE      1      MOL     
@<SCITEGIC>MOL_PROPERTY
VConf Rank
SciTegic.value.IntegerValue
725

@<SCITEGIC>MOL_PROPERTY
Conf_Id
SciTegic.value.IntegerValue
33

@<SCITEGIC>MOL_PROPERTY
Delta U+W
SciTegic.value.DoubleValue
0.015

@<SCITEGIC>MOL_PROPERTY
U+W
SciTegic.value.DoubleValue
3.025

@<SCITEGIC>MOL_PROPERTY
Grad RMS
SciTegic.value.DoubleValue
0.000000

@<SCITEGIC>MOL_PROPERTY
U
SciTegic.value.DoubleValue
5.843

@<SCITEGIC>MOL_PROPERTY
W
SciTegic.value.DoubleValue
-2.819

@<SCITEGIC>MOL_PROPERTY
W(PB)
SciTegic.value.DoubleValue
-4.568

@<SCITEGIC>MOL_PROPERTY
W(SA)
SciTegic.value.DoubleValue
1.750

@<SCITEGIC>MOL_PROPERTY
Valence
SciTegic.value.DoubleValue
13.789

@<SCITEGIC>MOL_PROPERTY
Coulomb
SciTegic.value.DoubleValue
-8.574

@<SCITEGIC>MOL_PROPERTY
VdW
SciTegic.value.DoubleValue
0.628

@<SCITEGIC>MOL_PROPERTY
VdW6
SciTegic.value.DoubleValue
-3.284

@<SCITEGIC>MOL_PROPERTY
VdW12
SciTegic.value.DoubleValue
3.913

@<SCITEGIC>MOL_PROPERTY
Bond
SciTegic.value.DoubleValue
0.054

@<SCITEGIC>MOL_PROPERTY
Angle
SciTegic.value.DoubleValue
4.033

@<SCITEGIC>MOL_PROPERTY
Pdih
SciTegic.value.DoubleValue
9.702

@<SCITEGIC>MOL_PROPERTY
Idih
SciTegic.value.DoubleValue
0.000

@<SCITEGIC>MOL_PROPERTY
Tether
SciTegic.value.DoubleValue
0.000

@<TRIPOS>MOLECULE
guest-4_confgen4.mol2 : confsearch ligand conformer 726
          16          16           1
SMALL
USER_CHARGES
 
@<TRIPOS>ATOM
       1    C1      18.932456   18.227332   23.457961 C.3        1 MOL1        -0.1689
       2    H1      18.938504   19.021585   24.217140 H          1 MOL1         0.0830
       3    H2      18.528302   17.320211   23.927841 H          1 MOL1         0.0830
       4    C2      20.363556   18.000673   22.923544 C.3        1 MOL1        -0.1689
       5    H3      21.062371   18.684482   23.424831 H          1 MOL1         0.0830
       6    H4      20.707638   16.974649   23.112972 H          1 MOL1         0.0830
       7    C3      20.318061   18.300009   21.410017 C.3        1 MOL1        -0.1765
       8    H5      20.215933   17.359345   20.852933 H          1 MOL1         0.0830
       9    H6      21.229834   18.800078   21.057021 H          1 MOL1         0.0830
      10    C4      19.062436   19.152525   21.182823 C.3        1 MOL1         0.1214
      11    H7      18.662531   19.021164   20.167046 H          1 MOL1         0.0787
      12    C5      18.075653   18.653928   22.247068 C.3        1 MOL1        -0.1765
      13    H8      17.330047   19.415333   22.512282 H          1 MOL1         0.0830
      14    H9      17.537111   17.781852   21.853270 H          1 MOL1         0.0830
      15    O1      19.371142   20.515875   21.433392 O.3        1 MOL1        -0.5512
      16    H10     19.716180   20.534724   22.349774 H          1 MOL1         0.3776
@<TRIPOS>BOND
    1     1     2    1
    2     1     3    1
    3     1     4    1
    4     4     5    1
    5     4     6    1
    6     4     7    1
    7     7     8    1
    8     7     9    1
    9     7    10    1
   10    10    11    1
   11     1    12    1
   12    10    12    1
   13    12    13    1
   14    12    14    1
   15    10    15    1
   16    15    16    1
@<TRIPOS>SUBSTRUCTURE
       1 MOL1            1 RESIDUE      1      MOL     
@<SCITEGIC>MOL_PROPERTY
VConf Rank
SciTegic.value.IntegerValue
726

@<SCITEGIC>MOL_PROPERTY
Conf_Id
SciTegic.value.IntegerValue
20

@<SCITEGIC>MOL_PROPERTY
Delta U+W
SciTegic.value.DoubleValue
-0.483

@<SCITEGIC>MOL_PROPERTY
U+W
SciTegic.value.DoubleValue
2.527

@<SCITEGIC>MOL_PROPERTY
Grad RMS
SciTegic.value.DoubleValue
0.000000

@<SCITEGIC>MOL_PROPERTY
U
SciTegic.value.DoubleValue
4.508

@<SCITEGIC>MOL_PROPERTY
W
SciTegic.value.DoubleValue
-1.981

@<SCITEGIC>MOL_PROPERTY
W(PB)
SciTegic.value.DoubleValue
-3.712

@<SCITEGIC>MOL_PROPERTY
W(SA)
SciTegic.value.DoubleValue
1.732

@<SCITEGIC>MOL_PROPERTY
Valence
SciTegic.value.DoubleValue
14.705

@<SCITEGIC>MOL_PROPERTY
Coulomb
SciTegic.value.DoubleValue
-10.687

@<SCITEGIC>MOL_PROPERTY
VdW
SciTegic.value.DoubleValue
0.490

@<SCITEGIC>MOL_PROPERTY
VdW6
SciTegic.value.DoubleValue
-3.745

@<SCITEGIC>MOL_PROPERTY
VdW12
SciTegic.value.DoubleValue
4.235

@<SCITEGIC>MOL_PROPERTY
Bond
SciTegic.value.DoubleValue
0.068

@<SCITEGIC>MOL_PROPERTY
Angle
SciTegic.value.DoubleValue
3.901

@<SCITEGIC>MOL_PROPERTY
Pdih
SciTegic.value.DoubleValue
10.737

@<SCITEGIC>MOL_PROPERTY
Idih
SciTegic.value.DoubleValue
0.000

@<SCITEGIC>MOL_PROPERTY
Tether
SciTegic.value.DoubleValue
0.000

@<TRIPOS>MOLECULE
guest-4_confgen4.mol2 : confsearch ligand conformer 727
          16          16           1
SMALL
USER_CHARGES
 
@<TRIPOS>ATOM
       1    C1      18.707043   17.273224   22.535980 C.3        1 MOL1        -0.1689
       2    H1      17.792058   17.512566   23.095619 H          1 MOL1         0.0830
       3    H2      18.714638   16.193416   22.334482 H          1 MOL1         0.0830
       4    C2      19.934170   17.728603   23.337551 C.3        1 MOL1        -0.1689
       5    H3      19.824632   17.537988   24.413853 H          1 MOL1         0.0830
       6    H4      20.826470   17.194071   22.983005 H          1 MOL1         0.0830
       7    C3      20.064812   19.229187   23.018591 C.3        1 MOL1        -0.1765
       8    H5      21.109191   19.562064   23.076144 H          1 MOL1         0.0830
       9    H6      19.485361   19.807970   23.750733 H          1 MOL1         0.0830
      10    C4      19.484299   19.424867   21.602119 C.3        1 MOL1         0.1214
      11    H7      20.297936   19.596157   20.882277 H          1 MOL1         0.0787
      12    C5      18.756588   18.112151   21.245679 C.3        1 MOL1        -0.1765
      13    H8      17.751616   18.289581   20.840005 H          1 MOL1         0.0830
      14    H9      19.335579   17.578169   20.481013 H          1 MOL1         0.0830
      15    O1      18.567062   20.512290   21.593378 O.3        1 MOL1        -0.5512
      16    H10     19.078109   21.313231   21.835981 H          1 MOL1         0.3776
@<TRIPOS>BOND
    1     1     2    1
    2     1     3    1
    3     1     4    1
    4     4     5    1
    5     4     6    1
    6     4     7    1
    7     7     8    1
    8     7     9    1
    9     7    10    1
   10    10    11    1
   11     1    12    1
   12    10    12    1
   13    12    13    1
   14    12    14    1
   15    10    15    1
   16    15    16    1
@<TRIPOS>SUBSTRUCTURE
       1 MOL1            1 RESIDUE      1      MOL     
@<SCITEGIC>MOL_PROPERTY
VConf Rank
SciTegic.value.IntegerValue
727

@<SCITEGIC>MOL_PROPERTY
Conf_Id
SciTegic.value.IntegerValue
59

@<SCITEGIC>MOL_PROPERTY
Delta U+W
SciTegic.value.DoubleValue
0.000

@<SCITEGIC>MOL_PROPERTY
U+W
SciTegic.value.DoubleValue
3.010

@<SCITEGIC>MOL_PROPERTY
Grad RMS
SciTegic.value.DoubleValue
0.000000

@<SCITEGIC>MOL_PROPERTY
U
SciTegic.value.DoubleValue
5.843

@<SCITEGIC>MOL_PROPERTY
W
SciTegic.value.DoubleValue
-2.833

@<SCITEGIC>MOL_PROPERTY
W(PB)
SciTegic.value.DoubleValue
-4.568

@<SCITEGIC>MOL_PROPERTY
W(SA)
SciTegic.value.DoubleValue
1.735

@<SCITEGIC>MOL_PROPERTY
Valence
SciTegic.value.DoubleValue
13.789

@<SCITEGIC>MOL_PROPERTY
Coulomb
SciTegic.value.DoubleValue
-8.574

@<SCITEGIC>MOL_PROPERTY
VdW
SciTegic.value.DoubleValue
0.628

@<SCITEGIC>MOL_PROPERTY
VdW6
SciTegic.value.DoubleValue
-3.284

@<SCITEGIC>MOL_PROPERTY
VdW12
SciTegic.value.DoubleValue
3.912

@<SCITEGIC>MOL_PROPERTY
Bond
SciTegic.value.DoubleValue
0.054

@<SCITEGIC>MOL_PROPERTY
Angle
SciTegic.value.DoubleValue
4.034

@<SCITEGIC>MOL_PROPERTY
Pdih
SciTegic.value.DoubleValue
9.702

@<SCITEGIC>MOL_PROPERTY
Idih
SciTegic.value.DoubleValue
0.000

@<SCITEGIC>MOL_PROPERTY
Tether
SciTegic.value.DoubleValue
0.000

@<TRIPOS>MOLECULE
guest-4_confgen4.mol2 : confsearch ligand conformer 728
          16          16           1
SMALL
USER_CHARGES
 
@<TRIPOS>ATOM
       1    C1      18.711951   17.382512   22.268280 C.3        1 MOL1        -0.1689
       2    H1      17.807857   16.963567   21.805830 H          1 MOL1         0.0830
       3    H2      19.248849   16.567406   22.773219 H          1 MOL1         0.0830
       4    C2      18.390472   18.492508   23.278372 C.3        1 MOL1        -0.1689
       5    H3      17.572413   19.116374   22.892045 H          1 MOL1         0.0830
       6    H4      18.087559   18.094812   24.256495 H          1 MOL1         0.0830
       7    C3      19.682105   19.327051   23.357740 C.3        1 MOL1        -0.1765
       8    H5      20.331475   18.926729   24.147136 H          1 MOL1         0.0830
       9    H6      19.470764   20.377144   23.599936 H          1 MOL1         0.0830
      10    C4      20.390722   19.171293   21.996344 C.3        1 MOL1         0.1214
      11    H7      21.436071   18.872933   22.162912 H          1 MOL1         0.0787
      12    C5      19.637592   18.057087   21.239325 C.3        1 MOL1        -0.1765
      13    H8      19.030096   18.488791   20.432256 H          1 MOL1         0.0830
      14    H9      20.331253   17.334897   20.789744 H          1 MOL1         0.0830
      15    O1      20.325377   20.390963   21.266939 O.3        1 MOL1        -0.5512
      16    H10     20.778060   20.231845   20.411785 H          1 MOL1         0.3776
@<TRIPOS>BOND
    1     1     2    1
    2     1     3    1
    3     1     4    1
    4     4     5    1
    5     4     6    1
    6     4     7    1
    7     7     8    1
    8     7     9    1
    9     7    10    1
   10    10    11    1
   11     1    12    1
   12    10    12    1
   13    12    13    1
   14    12    14    1
   15    10    15    1
   16    15    16    1
@<TRIPOS>SUBSTRUCTURE
       1 MOL1            1 RESIDUE      1      MOL     
@<SCITEGIC>MOL_PROPERTY
VConf Rank
SciTegic.value.IntegerValue
728

@<SCITEGIC>MOL_PROPERTY
Conf_Id
SciTegic.value.IntegerValue
33

@<SCITEGIC>MOL_PROPERTY
Delta U+W
SciTegic.value.DoubleValue
0.015

@<SCITEGIC>MOL_PROPERTY
U+W
SciTegic.value.DoubleValue
3.025

@<SCITEGIC>MOL_PROPERTY
Grad RMS
SciTegic.value.DoubleValue
0.000000

@<SCITEGIC>MOL_PROPERTY
U
SciTegic.value.DoubleValue
5.843

@<SCITEGIC>MOL_PROPERTY
W
SciTegic.value.DoubleValue
-2.819

@<SCITEGIC>MOL_PROPERTY
W(PB)
SciTegic.value.DoubleValue
-4.568

@<SCITEGIC>MOL_PROPERTY
W(SA)
SciTegic.value.DoubleValue
1.750

@<SCITEGIC>MOL_PROPERTY
Valence
SciTegic.value.DoubleValue
13.789

@<SCITEGIC>MOL_PROPERTY
Coulomb
SciTegic.value.DoubleValue
-8.574

@<SCITEGIC>MOL_PROPERTY
VdW
SciTegic.value.DoubleValue
0.628

@<SCITEGIC>MOL_PROPERTY
VdW6
SciTegic.value.DoubleValue
-3.284

@<SCITEGIC>MOL_PROPERTY
VdW12
SciTegic.value.DoubleValue
3.913

@<SCITEGIC>MOL_PROPERTY
Bond
SciTegic.value.DoubleValue
0.054

@<SCITEGIC>MOL_PROPERTY
Angle
SciTegic.value.DoubleValue
4.033

@<SCITEGIC>MOL_PROPERTY
Pdih
SciTegic.value.DoubleValue
9.702

@<SCITEGIC>MOL_PROPERTY
Idih
SciTegic.value.DoubleValue
0.000

@<SCITEGIC>MOL_PROPERTY
Tether
SciTegic.value.DoubleValue
0.000

@<TRIPOS>MOLECULE
guest-4_confgen4.mol2 : confsearch ligand conformer 729
          16          16           1
SMALL
USER_CHARGES
 
@<TRIPOS>ATOM
       1    C1      20.665973   18.382891   21.984264 C.3        1 MOL1        -0.1689
       2    H1      21.339332   18.504305   22.843958 H          1 MOL1         0.0830
       3    H2      21.276876   18.081251   21.122401 H          1 MOL1         0.0830
       4    C2      19.915973   19.705497   21.713644 C.3        1 MOL1        -0.1689
       5    H3      20.227130   20.467309   22.441690 H          1 MOL1         0.0830
       6    H4      20.133762   20.095199   20.709802 H          1 MOL1         0.0830
       7    C3      18.412247   19.396782   21.874707 C.3        1 MOL1        -0.1765
       8    H5      17.966661   19.217860   20.887256 H          1 MOL1         0.0830
       9    H6      17.864961   20.225753   22.342992 H          1 MOL1         0.0830
      10    C4      18.329342   18.105739   22.700134 C.3        1 MOL1         0.1214
      11    H7      17.413054   17.540618   22.476445 H          1 MOL1         0.0787
      12    C5      19.587214   17.324340   22.297485 C.3        1 MOL1        -0.1765
      13    H8      19.907925   16.621479   23.077957 H          1 MOL1         0.0830
      14    H9      19.370698   16.742152   21.392056 H          1 MOL1         0.0830
      15    O1      18.401217   18.428242   24.081305 O.3        1 MOL1        -0.5512
      16    H10     19.239389   18.924348   24.183819 H          1 MOL1         0.3776
@<TRIPOS>BOND
    1     1     2    1
    2     1     3    1
    3     1     4    1
    4     4     5    1
    5     4     6    1
    6     4     7    1
    7     7     8    1
    8     7     9    1
    9     7    10    1
   10    10    11    1
   11     1    12    1
   12    10    12    1
   13    12    13    1
   14    12    14    1
   15    10    15    1
   16    15    16    1
@<TRIPOS>SUBSTRUCTURE
       1 MOL1            1 RESIDUE      1      MOL     
@<SCITEGIC>MOL_PROPERTY
VConf Rank
SciTegic.value.IntegerValue
729

@<SCITEGIC>MOL_PROPERTY
Conf_Id
SciTegic.value.IntegerValue
20

@<SCITEGIC>MOL_PROPERTY
Delta U+W
SciTegic.value.DoubleValue
-0.483

@<SCITEGIC>MOL_PROPERTY
U+W
SciTegic.value.DoubleValue
2.527

@<SCITEGIC>MOL_PROPERTY
Grad RMS
SciTegic.value.DoubleValue
0.000000

@<SCITEGIC>MOL_PROPERTY
U
SciTegic.value.DoubleValue
4.508

@<SCITEGIC>MOL_PROPERTY
W
SciTegic.value.DoubleValue
-1.981

@<SCITEGIC>MOL_PROPERTY
W(PB)
SciTegic.value.DoubleValue
-3.712

@<SCITEGIC>MOL_PROPERTY
W(SA)
SciTegic.value.DoubleValue
1.732

@<SCITEGIC>MOL_PROPERTY
Valence
SciTegic.value.DoubleValue
14.705

@<SCITEGIC>MOL_PROPERTY
Coulomb
SciTegic.value.DoubleValue
-10.687

@<SCITEGIC>MOL_PROPERTY
VdW
SciTegic.value.DoubleValue
0.490

@<SCITEGIC>MOL_PROPERTY
VdW6
SciTegic.value.DoubleValue
-3.745

@<SCITEGIC>MOL_PROPERTY
VdW12
SciTegic.value.DoubleValue
4.235

@<SCITEGIC>MOL_PROPERTY
Bond
SciTegic.value.DoubleValue
0.068

@<SCITEGIC>MOL_PROPERTY
Angle
SciTegic.value.DoubleValue
3.901

@<SCITEGIC>MOL_PROPERTY
Pdih
SciTegic.value.DoubleValue
10.737

@<SCITEGIC>MOL_PROPERTY
Idih
SciTegic.value.DoubleValue
0.000

@<SCITEGIC>MOL_PROPERTY
Tether
SciTegic.value.DoubleValue
0.000

@<TRIPOS>MOLECULE
guest-4_confgen4.mol2 : confsearch ligand conformer 730
          16          16           1
SMALL
USER_CHARGES
 
@<TRIPOS>ATOM
       1    C1      18.552977   17.355000   22.147824 C.3        1 MOL1        -0.1689
       2    H1      18.751083   16.752808   23.045485 H          1 MOL1         0.0830
       3    H2      17.800303   16.832355   21.542045 H          1 MOL1         0.0830
       4    C2      19.863817   17.585308   21.383374 C.3        1 MOL1        -0.1689
       5    H3      20.505244   16.693531   21.375410 H          1 MOL1         0.0830
       6    H4      19.641585   17.858017   20.342284 H          1 MOL1         0.0830
       7    C3      20.523609   18.775191   22.104076 C.3        1 MOL1        -0.1765
       8    H5      21.149810   19.361684   21.419427 H          1 MOL1         0.0830
       9    H6      21.166808   18.399516   22.911509 H          1 MOL1         0.0830
      10    C4      19.373191   19.622610   22.687256 C.3        1 MOL1         0.1214
      11    H7      19.250027   20.544605   22.100506 H          1 MOL1         0.0787
      12    C5      18.096439   18.765606   22.563632 C.3        1 MOL1        -0.1765
      13    H8      17.516741   18.744418   23.496114 H          1 MOL1         0.0830
      14    H9      17.454393   19.190660   21.781208 H          1 MOL1         0.0830
      15    O1      19.630316   19.925672   24.053246 O.3        1 MOL1        -0.5512
      16    H10     20.453223   20.458555   24.073014 H          1 MOL1         0.3776
@<TRIPOS>BOND
    1     1     2    1
    2     1     3    1
    3     1     4    1
    4     4     5    1
    5     4     6    1
    6     4     7    1
    7     7     8    1
    8     7     9    1
    9     7    10    1
   10    10    11    1
   11     1    12    1
   12    10    12    1
   13    12    13    1
   14    12    14    1
   15    10    15    1
   16    15    16    1
@<TRIPOS>SUBSTRUCTURE
       1 MOL1            1 RESIDUE      1      MOL     
@<SCITEGIC>MOL_PROPERTY
VConf Rank
SciTegic.value.IntegerValue
730

@<SCITEGIC>MOL_PROPERTY
Conf_Id
SciTegic.value.IntegerValue
59

@<SCITEGIC>MOL_PROPERTY
Delta U+W
SciTegic.value.DoubleValue
0.000

@<SCITEGIC>MOL_PROPERTY
U+W
SciTegic.value.DoubleValue
3.010

@<SCITEGIC>MOL_PROPERTY
Grad RMS
SciTegic.value.DoubleValue
0.000000

@<SCITEGIC>MOL_PROPERTY
U
SciTegic.value.DoubleValue
5.843

@<SCITEGIC>MOL_PROPERTY
W
SciTegic.value.DoubleValue
-2.833

@<SCITEGIC>MOL_PROPERTY
W(PB)
SciTegic.value.DoubleValue
-4.568

@<SCITEGIC>MOL_PROPERTY
W(SA)
SciTegic.value.DoubleValue
1.735

@<SCITEGIC>MOL_PROPERTY
Valence
SciTegic.value.DoubleValue
13.789

@<SCITEGIC>MOL_PROPERTY
Coulomb
SciTegic.value.DoubleValue
-8.574

@<SCITEGIC>MOL_PROPERTY
VdW
SciTegic.value.DoubleValue
0.628

@<SCITEGIC>MOL_PROPERTY
VdW6
SciTegic.value.DoubleValue
-3.284

@<SCITEGIC>MOL_PROPERTY
VdW12
SciTegic.value.DoubleValue
3.912

@<SCITEGIC>MOL_PROPERTY
Bond
SciTegic.value.DoubleValue
0.054

@<SCITEGIC>MOL_PROPERTY
Angle
SciTegic.value.DoubleValue
4.034

@<SCITEGIC>MOL_PROPERTY
Pdih
SciTegic.value.DoubleValue
9.702

@<SCITEGIC>MOL_PROPERTY
Idih
SciTegic.value.DoubleValue
0.000

@<SCITEGIC>MOL_PROPERTY
Tether
SciTegic.value.DoubleValue
0.000

@<TRIPOS>MOLECULE
guest-4_confgen4.mol2 : confsearch ligand conformer 731
          16          16           1
SMALL
USER_CHARGES
 
@<TRIPOS>ATOM
       1    C1      19.417947   18.019836   20.985323 C.3        1 MOL1        -0.1689
       2    H1      19.622994   17.054430   20.502927 H          1 MOL1         0.0830
       3    H2      18.947878   18.681251   20.244252 H          1 MOL1         0.0830
       4    C2      20.690170   18.680567   21.533603 C.3        1 MOL1        -0.1689
       5    H3      21.339623   17.914852   21.980334 H          1 MOL1         0.0830
       6    H4      21.260663   19.203540   20.754065 H          1 MOL1         0.0830
       7    C3      20.186081   19.634171   22.632517 C.3        1 MOL1        -0.1765
       8    H5      19.975379   20.619576   22.197011 H          1 MOL1         0.0830
       9    H6      20.935593   19.772047   23.423239 H          1 MOL1         0.0830
      10    C4      18.872158   19.030416   23.169997 C.3        1 MOL1         0.1214
      11    H7      18.086388   19.799759   23.156063 H          1 MOL1         0.0787
      12    C5      18.500102   17.877970   22.213347 C.3        1 MOL1        -0.1765
      13    H8      18.685375   16.908332   22.695279 H          1 MOL1         0.0830
      14    H9      17.440667   17.916009   21.928750 H          1 MOL1         0.0830
      15    O1      19.064797   18.531331   24.488216 O.3        1 MOL1        -0.5512
      16    H10     18.206800   18.151827   24.773433 H          1 MOL1         0.3776
@<TRIPOS>BOND
    1     1     2    1
    2     1     3    1
    3     1     4    1
    4     4     5    1
    5     4     6    1
    6     4     7    1
    7     7     8    1
    8     7     9    1
    9     7    10    1
   10    10    11    1
   11     1    12    1
   12    10    12    1
   13    12    13    1
   14    12    14    1
   15    10    15    1
   16    15    16    1
@<TRIPOS>SUBSTRUCTURE
       1 MOL1            1 RESIDUE      1      MOL     
@<SCITEGIC>MOL_PROPERTY
VConf Rank
SciTegic.value.IntegerValue
731

@<SCITEGIC>MOL_PROPERTY
Conf_Id
SciTegic.value.IntegerValue
33

@<SCITEGIC>MOL_PROPERTY
Delta U+W
SciTegic.value.DoubleValue
0.015

@<SCITEGIC>MOL_PROPERTY
U+W
SciTegic.value.DoubleValue
3.025

@<SCITEGIC>MOL_PROPERTY
Grad RMS
SciTegic.value.DoubleValue
0.000000

@<SCITEGIC>MOL_PROPERTY
U
SciTegic.value.DoubleValue
5.843

@<SCITEGIC>MOL_PROPERTY
W
SciTegic.value.DoubleValue
-2.819

@<SCITEGIC>MOL_PROPERTY
W(PB)
SciTegic.value.DoubleValue
-4.568

@<SCITEGIC>MOL_PROPERTY
W(SA)
SciTegic.value.DoubleValue
1.750

@<SCITEGIC>MOL_PROPERTY
Valence
SciTegic.value.DoubleValue
13.789

@<SCITEGIC>MOL_PROPERTY
Coulomb
SciTegic.value.DoubleValue
-8.574

@<SCITEGIC>MOL_PROPERTY
VdW
SciTegic.value.DoubleValue
0.628

@<SCITEGIC>MOL_PROPERTY
VdW6
SciTegic.value.DoubleValue
-3.284

@<SCITEGIC>MOL_PROPERTY
VdW12
SciTegic.value.DoubleValue
3.913

@<SCITEGIC>MOL_PROPERTY
Bond
SciTegic.value.DoubleValue
0.054

@<SCITEGIC>MOL_PROPERTY
Angle
SciTegic.value.DoubleValue
4.033

@<SCITEGIC>MOL_PROPERTY
Pdih
SciTegic.value.DoubleValue
9.702

@<SCITEGIC>MOL_PROPERTY
Idih
SciTegic.value.DoubleValue
0.000

@<SCITEGIC>MOL_PROPERTY
Tether
SciTegic.value.DoubleValue
0.000

@<TRIPOS>MOLECULE
guest-4_confgen4.mol2 : confsearch ligand conformer 732
          16          16           1
SMALL
USER_CHARGES
 
@<TRIPOS>ATOM
       1    C1      18.195461   19.069414   21.839605 C.3        1 MOL1        -0.1689
       2    H1      18.152852   19.296095   20.765349 H          1 MOL1         0.0830
       3    H2      17.204698   19.281219   22.264488 H          1 MOL1         0.0830
       4    C2      19.295426   19.919297   22.512508 C.3        1 MOL1        -0.1689
       5    H3      19.784443   20.558057   21.764128 H          1 MOL1         0.0830
       6    H4      18.880181   20.574962   23.290117 H          1 MOL1         0.0830
       7    C3      20.312615   18.924393   23.110780 C.3        1 MOL1        -0.1765
       8    H5      20.101342   18.781462   24.178748 H          1 MOL1         0.0830
       9    H6      21.347105   19.281524   23.019709 H          1 MOL1         0.0830
      10    C4      20.089719   17.595424   22.376512 C.3        1 MOL1         0.1214
      11    H7      20.372139   16.735729   23.001129 H          1 MOL1         0.0787
      12    C5      18.588638   17.592847   22.057597 C.3        1 MOL1        -0.1765
      13    H8      18.349071   16.965624   21.188573 H          1 MOL1         0.0830
      14    H9      18.041474   17.191073   22.920621 H          1 MOL1         0.0830
      15    O1      20.825857   17.602878   21.162077 O.3        1 MOL1        -0.5512
      16    H10     20.510731   18.393766   20.677975 H          1 MOL1         0.3776
@<TRIPOS>BOND
    1     1     2    1
    2     1     3    1
    3     1     4    1
    4     4     5    1
    5     4     6    1
    6     4     7    1
    7     7     8    1
    8     7     9    1
    9     7    10    1
   10    10    11    1
   11     1    12    1
   12    10    12    1
   13    12    13    1
   14    12    14    1
   15    10    15    1
   16    15    16    1
@<TRIPOS>SUBSTRUCTURE
       1 MOL1            1 RESIDUE      1      MOL     
@<SCITEGIC>MOL_PROPERTY
VConf Rank
SciTegic.value.IntegerValue
732

@<SCITEGIC>MOL_PROPERTY
Conf_Id
SciTegic.value.IntegerValue
20

@<SCITEGIC>MOL_PROPERTY
Delta U+W
SciTegic.value.DoubleValue
-0.483

@<SCITEGIC>MOL_PROPERTY
U+W
SciTegic.value.DoubleValue
2.527

@<SCITEGIC>MOL_PROPERTY
Grad RMS
SciTegic.value.DoubleValue
0.000000

@<SCITEGIC>MOL_PROPERTY
U
SciTegic.value.DoubleValue
4.508

@<SCITEGIC>MOL_PROPERTY
W
SciTegic.value.DoubleValue
-1.981

@<SCITEGIC>MOL_PROPERTY
W(PB)
SciTegic.value.DoubleValue
-3.712

@<SCITEGIC>MOL_PROPERTY
W(SA)
SciTegic.value.DoubleValue
1.732

@<SCITEGIC>MOL_PROPERTY
Valence
SciTegic.value.DoubleValue
14.705

@<SCITEGIC>MOL_PROPERTY
Coulomb
SciTegic.value.DoubleValue
-10.687

@<SCITEGIC>MOL_PROPERTY
VdW
SciTegic.value.DoubleValue
0.490

@<SCITEGIC>MOL_PROPERTY
VdW6
SciTegic.value.DoubleValue
-3.745

@<SCITEGIC>MOL_PROPERTY
VdW12
SciTegic.value.DoubleValue
4.235

@<SCITEGIC>MOL_PROPERTY
Bond
SciTegic.value.DoubleValue
0.068

@<SCITEGIC>MOL_PROPERTY
Angle
SciTegic.value.DoubleValue
3.901

@<SCITEGIC>MOL_PROPERTY
Pdih
SciTegic.value.DoubleValue
10.737

@<SCITEGIC>MOL_PROPERTY
Idih
SciTegic.value.DoubleValue
0.000

@<SCITEGIC>MOL_PROPERTY
Tether
SciTegic.value.DoubleValue
0.000

@<TRIPOS>MOLECULE
guest-4_confgen4.mol2 : confsearch ligand conformer 733
          16          16           1
SMALL
USER_CHARGES
 
@<TRIPOS>ATOM
       1    C1      19.030354   19.056717   23.638413 C.3        1 MOL1        -0.1689
       2    H1      17.959274   19.298502   23.593646 H          1 MOL1         0.0830
       3    H2      19.381936   19.239829   24.662867 H          1 MOL1         0.0830
       4    C2      19.790243   19.892903   22.599621 C.3        1 MOL1        -0.1689
       5    H3      19.411988   20.922154   22.533871 H          1 MOL1         0.0830
       6    H4      20.855486   19.934701   22.866334 H          1 MOL1         0.0830
       7    C3      19.613455   19.118333   21.280778 C.3        1 MOL1        -0.1765
       8    H5      20.464857   19.275514   20.606052 H          1 MOL1         0.0830
       9    H6      18.707998   19.473018   20.769769 H          1 MOL1         0.0830
      10    C4      19.462212   17.631706   21.666451 C.3        1 MOL1         0.1214
      11    H7      20.381606   17.082537   21.416156 H          1 MOL1         0.0787
      12    C5      19.248838   17.598692   23.193938 C.3        1 MOL1        -0.1765
      13    H8      18.405742   16.957207   23.483262 H          1 MOL1         0.0830
      14    H9      20.152033   17.198874   23.672964 H          1 MOL1         0.0830
      15    O1      18.339813   17.063852   21.001884 O.3        1 MOL1        -0.5512
      16    H10     18.523730   17.120995   20.040405 H          1 MOL1         0.3776
@<TRIPOS>BOND
    1     1     2    1
    2     1     3    1
    3     1     4    1
    4     4     5    1
    5     4     6    1
    6     4     7    1
    7     7     8    1
    8     7     9    1
    9     7    10    1
   10    10    11    1
   11     1    12    1
   12    10    12    1
   13    12    13    1
   14    12    14    1
   15    10    15    1
   16    15    16    1
@<TRIPOS>SUBSTRUCTURE
       1 MOL1            1 RESIDUE      1      MOL     
@<SCITEGIC>MOL_PROPERTY
VConf Rank
SciTegic.value.IntegerValue
733

@<SCITEGIC>MOL_PROPERTY
Conf_Id
SciTegic.value.IntegerValue
59

@<SCITEGIC>MOL_PROPERTY
Delta U+W
SciTegic.value.DoubleValue
0.000

@<SCITEGIC>MOL_PROPERTY
U+W
SciTegic.value.DoubleValue
3.010

@<SCITEGIC>MOL_PROPERTY
Grad RMS
SciTegic.value.DoubleValue
0.000000

@<SCITEGIC>MOL_PROPERTY
U
SciTegic.value.DoubleValue
5.843

@<SCITEGIC>MOL_PROPERTY
W
SciTegic.value.DoubleValue
-2.833

@<SCITEGIC>MOL_PROPERTY
W(PB)
SciTegic.value.DoubleValue
-4.568

@<SCITEGIC>MOL_PROPERTY
W(SA)
SciTegic.value.DoubleValue
1.735

@<SCITEGIC>MOL_PROPERTY
Valence
SciTegic.value.DoubleValue
13.789

@<SCITEGIC>MOL_PROPERTY
Coulomb
SciTegic.value.DoubleValue
-8.574

@<SCITEGIC>MOL_PROPERTY
VdW
SciTegic.value.DoubleValue
0.628

@<SCITEGIC>MOL_PROPERTY
VdW6
SciTegic.value.DoubleValue
-3.284

@<SCITEGIC>MOL_PROPERTY
VdW12
SciTegic.value.DoubleValue
3.912

@<SCITEGIC>MOL_PROPERTY
Bond
SciTegic.value.DoubleValue
0.054

@<SCITEGIC>MOL_PROPERTY
Angle
SciTegic.value.DoubleValue
4.034

@<SCITEGIC>MOL_PROPERTY
Pdih
SciTegic.value.DoubleValue
9.702

@<SCITEGIC>MOL_PROPERTY
Idih
SciTegic.value.DoubleValue
0.000

@<SCITEGIC>MOL_PROPERTY
Tether
SciTegic.value.DoubleValue
0.000

@<TRIPOS>MOLECULE
guest-4_confgen4.mol2 : confsearch ligand conformer 734
          16          16           1
SMALL
USER_CHARGES
 
@<TRIPOS>ATOM
       1    C1      18.927348   17.409894   22.875156 C.3        1 MOL1        -0.1689
       2    H1      18.314448   17.098355   23.731926 H          1 MOL1         0.0830
       3    H2      19.084616   16.535029   22.229013 H          1 MOL1         0.0830
       4    C2      20.283985   17.984229   23.305742 C.3        1 MOL1        -0.1689
       5    H3      20.153333   18.603470   24.204157 H          1 MOL1         0.0830
       6    H4      21.018810   17.199799   23.532334 H          1 MOL1         0.0830
       7    C3      20.718151   18.872952   22.125595 C.3        1 MOL1        -0.1765
       8    H5      21.302847   18.278018   21.411964 H          1 MOL1         0.0830
       9    H6      21.348294   19.708309   22.458938 H          1 MOL1         0.0830
      10    C4      19.423798   19.354000   21.437815 C.3        1 MOL1         0.1214
      11    H7      19.486294   19.145831   20.359725 H          1 MOL1         0.0787
      12    C5      18.270616   18.543521   22.066328 C.3        1 MOL1        -0.1765
      13    H8      17.683089   19.179171   22.742747 H          1 MOL1         0.0830
      14    H9      17.591156   18.148065   21.300301 H          1 MOL1         0.0830
      15    O1      19.231388   20.743999   21.671864 O.3        1 MOL1        -0.5512
      16    H10     18.394442   20.991271   21.224753 H          1 MOL1         0.3776
@<TRIPOS>BOND
    1     1     2    1
    2     1     3    1
    3     1     4    1
    4     4     5    1
    5     4     6    1
    6     4     7    1
    7     7     8    1
    8     7     9    1
    9     7    10    1
   10    10    11    1
   11     1    12    1
   12    10    12    1
   13    12    13    1
   14    12    14    1
   15    10    15    1
   16    15    16    1
@<TRIPOS>SUBSTRUCTURE
       1 MOL1            1 RESIDUE      1      MOL     
@<SCITEGIC>MOL_PROPERTY
VConf Rank
SciTegic.value.IntegerValue
734

@<SCITEGIC>MOL_PROPERTY
Conf_Id
SciTegic.value.IntegerValue
33

@<SCITEGIC>MOL_PROPERTY
Delta U+W
SciTegic.value.DoubleValue
0.015

@<SCITEGIC>MOL_PROPERTY
U+W
SciTegic.value.DoubleValue
3.025

@<SCITEGIC>MOL_PROPERTY
Grad RMS
SciTegic.value.DoubleValue
0.000000

@<SCITEGIC>MOL_PROPERTY
U
SciTegic.value.DoubleValue
5.843

@<SCITEGIC>MOL_PROPERTY
W
SciTegic.value.DoubleValue
-2.819

@<SCITEGIC>MOL_PROPERTY
W(PB)
SciTegic.value.DoubleValue
-4.568

@<SCITEGIC>MOL_PROPERTY
W(SA)
SciTegic.value.DoubleValue
1.750

@<SCITEGIC>MOL_PROPERTY
Valence
SciTegic.value.DoubleValue
13.789

@<SCITEGIC>MOL_PROPERTY
Coulomb
SciTegic.value.DoubleValue
-8.574

@<SCITEGIC>MOL_PROPERTY
VdW
SciTegic.value.DoubleValue
0.628

@<SCITEGIC>MOL_PROPERTY
VdW6
SciTegic.value.DoubleValue
-3.284

@<SCITEGIC>MOL_PROPERTY
VdW12
SciTegic.value.DoubleValue
3.913

@<SCITEGIC>MOL_PROPERTY
Bond
SciTegic.value.DoubleValue
0.054

@<SCITEGIC>MOL_PROPERTY
Angle
SciTegic.value.DoubleValue
4.033

@<SCITEGIC>MOL_PROPERTY
Pdih
SciTegic.value.DoubleValue
9.702

@<SCITEGIC>MOL_PROPERTY
Idih
SciTegic.value.DoubleValue
0.000

@<SCITEGIC>MOL_PROPERTY
Tether
SciTegic.value.DoubleValue
0.000

@<TRIPOS>MOLECULE
guest-4_confgen4.mol2 : confsearch ligand conformer 735
          16          16           1
SMALL
USER_CHARGES
 
@<TRIPOS>ATOM
       1    C1      20.273104   18.913691   21.313622 C.3        1 MOL1        -0.1689
       2    H1      19.894414   19.585683   20.531159 H          1 MOL1         0.0830
       3    H2      21.325380   18.695709   21.085159 H          1 MOL1         0.0830
       4    C2      19.422594   17.625347   21.356321 C.3        1 MOL1        -0.1689
       5    H3      18.632956   17.673355   20.593830 H          1 MOL1         0.0830
       6    H4      20.030190   16.733300   21.151190 H          1 MOL1         0.0830
       7    C3      18.798689   17.559335   22.766577 C.3        1 MOL1        -0.1765
       8    H5      19.401706   16.899243   23.403969 H          1 MOL1         0.0830
       9    H6      17.774345   17.163779   22.750459 H          1 MOL1         0.0830
      10    C4      18.861852   18.986694   23.326622 C.3        1 MOL1         0.1214
      11    H7      18.913929   18.988469   24.424924 H          1 MOL1         0.0787
      12    C5      20.132186   19.577173   22.700090 C.3        1 MOL1        -0.1765
      13    H8      20.093494   20.672759   22.635285 H          1 MOL1         0.0830
      14    H9      20.995052   19.309670   23.324210 H          1 MOL1         0.0830
      15    O1      17.732623   19.717969   22.871778 O.3        1 MOL1        -0.5512
      16    H10     17.769239   19.661585   21.894719 H          1 MOL1         0.3776
@<TRIPOS>BOND
    1     1     2    1
    2     1     3    1
    3     1     4    1
    4     4     5    1
    5     4     6    1
    6     4     7    1
    7     7     8    1
    8     7     9    1
    9     7    10    1
   10    10    11    1
   11     1    12    1
   12    10    12    1
   13    12    13    1
   14    12    14    1
   15    10    15    1
   16    15    16    1
@<TRIPOS>SUBSTRUCTURE
       1 MOL1            1 RESIDUE      1      MOL     
@<SCITEGIC>MOL_PROPERTY
VConf Rank
SciTegic.value.IntegerValue
735

@<SCITEGIC>MOL_PROPERTY
Conf_Id
SciTegic.value.IntegerValue
20

@<SCITEGIC>MOL_PROPERTY
Delta U+W
SciTegic.value.DoubleValue
-0.483

@<SCITEGIC>MOL_PROPERTY
U+W
SciTegic.value.DoubleValue
2.527

@<SCITEGIC>MOL_PROPERTY
Grad RMS
SciTegic.value.DoubleValue
0.000000

@<SCITEGIC>MOL_PROPERTY
U
SciTegic.value.DoubleValue
4.508

@<SCITEGIC>MOL_PROPERTY
W
SciTegic.value.DoubleValue
-1.981

@<SCITEGIC>MOL_PROPERTY
W(PB)
SciTegic.value.DoubleValue
-3.712

@<SCITEGIC>MOL_PROPERTY
W(SA)
SciTegic.value.DoubleValue
1.732

@<SCITEGIC>MOL_PROPERTY
Valence
SciTegic.value.DoubleValue
14.705

@<SCITEGIC>MOL_PROPERTY
Coulomb
SciTegic.value.DoubleValue
-10.687

@<SCITEGIC>MOL_PROPERTY
VdW
SciTegic.value.DoubleValue
0.490

@<SCITEGIC>MOL_PROPERTY
VdW6
SciTegic.value.DoubleValue
-3.745

@<SCITEGIC>MOL_PROPERTY
VdW12
SciTegic.value.DoubleValue
4.235

@<SCITEGIC>MOL_PROPERTY
Bond
SciTegic.value.DoubleValue
0.068

@<SCITEGIC>MOL_PROPERTY
Angle
SciTegic.value.DoubleValue
3.901

@<SCITEGIC>MOL_PROPERTY
Pdih
SciTegic.value.DoubleValue
10.737

@<SCITEGIC>MOL_PROPERTY
Idih
SciTegic.value.DoubleValue
0.000

@<SCITEGIC>MOL_PROPERTY
Tether
SciTegic.value.DoubleValue
0.000

@<TRIPOS>MOLECULE
guest-4_confgen4.mol2 : confsearch ligand conformer 736
          16          16           1
SMALL
USER_CHARGES
 
@<TRIPOS>ATOM
       1    C1      18.578849   19.643191   21.748148 C.3        1 MOL1        -0.1689
       2    H1      19.312839   20.427768   21.517119 H          1 MOL1         0.0830
       3    H2      17.591800   19.984306   21.407532 H          1 MOL1         0.0830
       4    C2      18.607110   19.339263   23.252328 C.3        1 MOL1        -0.1689
       5    H3      18.723132   20.246994   23.860047 H          1 MOL1         0.0830
       6    H4      17.670687   18.845611   23.547364 H          1 MOL1         0.0830
       7    C3      19.786434   18.364458   23.424103 C.3        1 MOL1        -0.1765
       8    H5      19.627332   17.688169   24.273907 H          1 MOL1         0.0830
       9    H6      20.705115   18.935767   23.614933 H          1 MOL1         0.0830
      10    C4      19.905836   17.587941   22.095780 C.3        1 MOL1         0.1214
      11    H7      19.539306   16.559354   22.226866 H          1 MOL1         0.0787
      12    C5      19.007243   18.323520   21.080256 C.3        1 MOL1        -0.1765
      13    H8      19.517614   18.501324   20.124259 H          1 MOL1         0.0830
      14    H9      18.120707   17.709186   20.875984 H          1 MOL1         0.0830
      15    O1      21.255729   17.588035   21.646695 O.3        1 MOL1        -0.5512
      16    H10     21.779833   17.120646   22.331090 H          1 MOL1         0.3776
@<TRIPOS>BOND
    1     1     2    1
    2     1     3    1
    3     1     4    1
    4     4     5    1
    5     4     6    1
    6     4     7    1
    7     7     8    1
    8     7     9    1
    9     7    10    1
   10    10    11    1
   11     1    12    1
   12    10    12    1
   13    12    13    1
   14    12    14    1
   15    10    15    1
   16    15    16    1
@<TRIPOS>SUBSTRUCTURE
       1 MOL1            1 RESIDUE      1      MOL     
@<SCITEGIC>MOL_PROPERTY
VConf Rank
SciTegic.value.IntegerValue
736

@<SCITEGIC>MOL_PROPERTY
Conf_Id
SciTegic.value.IntegerValue
59

@<SCITEGIC>MOL_PROPERTY
Delta U+W
SciTegic.value.DoubleValue
0.000

@<SCITEGIC>MOL_PROPERTY
U+W
SciTegic.value.DoubleValue
3.010

@<SCITEGIC>MOL_PROPERTY
Grad RMS
SciTegic.value.DoubleValue
0.000000

@<SCITEGIC>MOL_PROPERTY
U
SciTegic.value.DoubleValue
5.843

@<SCITEGIC>MOL_PROPERTY
W
SciTegic.value.DoubleValue
-2.833

@<SCITEGIC>MOL_PROPERTY
W(PB)
SciTegic.value.DoubleValue
-4.568

@<SCITEGIC>MOL_PROPERTY
W(SA)
SciTegic.value.DoubleValue
1.735

@<SCITEGIC>MOL_PROPERTY
Valence
SciTegic.value.DoubleValue
13.789

@<SCITEGIC>MOL_PROPERTY
Coulomb
SciTegic.value.DoubleValue
-8.574

@<SCITEGIC>MOL_PROPERTY
VdW
SciTegic.value.DoubleValue
0.628

@<SCITEGIC>MOL_PROPERTY
VdW6
SciTegic.value.DoubleValue
-3.284

@<SCITEGIC>MOL_PROPERTY
VdW12
SciTegic.value.DoubleValue
3.912

@<SCITEGIC>MOL_PROPERTY
Bond
SciTegic.value.DoubleValue
0.054

@<SCITEGIC>MOL_PROPERTY
Angle
SciTegic.value.DoubleValue
4.034

@<SCITEGIC>MOL_PROPERTY
Pdih
SciTegic.value.DoubleValue
9.702

@<SCITEGIC>MOL_PROPERTY
Idih
SciTegic.value.DoubleValue
0.000

@<SCITEGIC>MOL_PROPERTY
Tether
SciTegic.value.DoubleValue
0.000

@<TRIPOS>MOLECULE
guest-4_confgen4.mol2 : confsearch ligand conformer 737
          16          16           1
SMALL
USER_CHARGES
 
@<TRIPOS>ATOM
       1    C1      20.282740   19.482581   23.075343 C.3        1 MOL1        -0.1689
       2    H1      20.487482   19.711996   24.129956 H          1 MOL1         0.0830
       3    H2      21.020469   20.014481   22.458528 H          1 MOL1         0.0830
       4    C2      18.865184   19.892437   22.653111 C.3        1 MOL1        -0.1689
       5    H3      18.158811   19.662876   23.463060 H          1 MOL1         0.0830
       6    H4      18.789114   20.963957   22.423543 H          1 MOL1         0.0830
       7    C3      18.555536   19.006480   21.432342 C.3        1 MOL1        -0.1765
       8    H5      18.874927   19.518257   20.515195 H          1 MOL1         0.0830
       9    H6      17.480194   18.802167   21.343379 H          1 MOL1         0.0830
      10    C4      19.384433   17.716720   21.603358 C.3        1 MOL1         0.1214
      11    H7      19.955841   17.527364   20.682947 H          1 MOL1         0.0787
      12    C5      20.348908   17.972823   22.780615 C.3        1 MOL1        -0.1765
      13    H8      20.022301   17.414677   23.668637 H          1 MOL1         0.0830
      14    H9      21.371883   17.655537   22.540410 H          1 MOL1         0.0830
      15    O1      18.528829   16.619393   21.899521 O.3        1 MOL1        -0.5512
      16    H10     19.105967   15.834165   22.008412 H          1 MOL1         0.3776
@<TRIPOS>BOND
    1     1     2    1
    2     1     3    1
    3     1     4    1
    4     4     5    1
    5     4     6    1
    6     4     7    1
    7     7     8    1
    8     7     9    1
    9     7    10    1
   10    10    11    1
   11     1    12    1
   12    10    12    1
   13    12    13    1
   14    12    14    1
   15    10    15    1
   16    15    16    1
@<TRIPOS>SUBSTRUCTURE
       1 MOL1            1 RESIDUE      1      MOL     
@<SCITEGIC>MOL_PROPERTY
VConf Rank
SciTegic.value.IntegerValue
737

@<SCITEGIC>MOL_PROPERTY
Conf_Id
SciTegic.value.IntegerValue
33

@<SCITEGIC>MOL_PROPERTY
Delta U+W
SciTegic.value.DoubleValue
0.015

@<SCITEGIC>MOL_PROPERTY
U+W
SciTegic.value.DoubleValue
3.025

@<SCITEGIC>MOL_PROPERTY
Grad RMS
SciTegic.value.DoubleValue
0.000000

@<SCITEGIC>MOL_PROPERTY
U
SciTegic.value.DoubleValue
5.843

@<SCITEGIC>MOL_PROPERTY
W
SciTegic.value.DoubleValue
-2.819

@<SCITEGIC>MOL_PROPERTY
W(PB)
SciTegic.value.DoubleValue
-4.568

@<SCITEGIC>MOL_PROPERTY
W(SA)
SciTegic.value.DoubleValue
1.750

@<SCITEGIC>MOL_PROPERTY
Valence
SciTegic.value.DoubleValue
13.789

@<SCITEGIC>MOL_PROPERTY
Coulomb
SciTegic.value.DoubleValue
-8.574

@<SCITEGIC>MOL_PROPERTY
VdW
SciTegic.value.DoubleValue
0.628

@<SCITEGIC>MOL_PROPERTY
VdW6
SciTegic.value.DoubleValue
-3.284

@<SCITEGIC>MOL_PROPERTY
VdW12
SciTegic.value.DoubleValue
3.913

@<SCITEGIC>MOL_PROPERTY
Bond
SciTegic.value.DoubleValue
0.054

@<SCITEGIC>MOL_PROPERTY
Angle
SciTegic.value.DoubleValue
4.033

@<SCITEGIC>MOL_PROPERTY
Pdih
SciTegic.value.DoubleValue
9.702

@<SCITEGIC>MOL_PROPERTY
Idih
SciTegic.value.DoubleValue
0.000

@<SCITEGIC>MOL_PROPERTY
Tether
SciTegic.value.DoubleValue
0.000

@<TRIPOS>MOLECULE
guest-4_confgen4.mol2 : confsearch ligand conformer 738
          16          16           1
SMALL
USER_CHARGES
 
@<TRIPOS>ATOM
       1    C1      18.686343   19.500114   22.975304 C.3        1 MOL1        -0.1689
       2    H1      19.077339   19.666313   23.988580 H          1 MOL1         0.0830
       3    H2      17.815195   20.156198   22.842438 H          1 MOL1         0.0830
       4    C2      18.310196   18.013185   22.794812 C.3        1 MOL1        -0.1689
       5    H3      18.518152   17.459971   23.721060 H          1 MOL1         0.0830
       6    H4      17.242452   17.891521   22.566516 H          1 MOL1         0.0830
       7    C3      19.188153   17.476161   21.644493 C.3        1 MOL1        -0.1765
       8    H5      18.614636   17.489570   20.708267 H          1 MOL1         0.0830
       9    H6      19.517717   16.443347   21.819672 H          1 MOL1         0.0830
      10    C4      20.367973   18.449581   21.520096 C.3        1 MOL1         0.1214
      11    H7      20.767183   18.472709   20.495851 H          1 MOL1         0.0787
      12    C5      19.776593   19.806085   21.926451 C.3        1 MOL1        -0.1765
      13    H8      20.541042   20.495200   22.309522 H          1 MOL1         0.0830
      14    H9      19.317189   20.273113   21.045285 H          1 MOL1         0.0830
      15    O1      21.377344   18.082238   22.449094 O.3        1 MOL1        -0.5512
      16    H10     20.934246   18.088459   23.322471 H          1 MOL1         0.3776
@<TRIPOS>BOND
    1     1     2    1
    2     1     3    1
    3     1     4    1
    4     4     5    1
    5     4     6    1
    6     4     7    1
    7     7     8    1
    8     7     9    1
    9     7    10    1
   10    10    11    1
   11     1    12    1
   12    10    12    1
   13    12    13    1
   14    12    14    1
   15    10    15    1
   16    15    16    1
@<TRIPOS>SUBSTRUCTURE
       1 MOL1            1 RESIDUE      1      MOL     
@<SCITEGIC>MOL_PROPERTY
VConf Rank
SciTegic.value.IntegerValue
738

@<SCITEGIC>MOL_PROPERTY
Conf_Id
SciTegic.value.IntegerValue
20

@<SCITEGIC>MOL_PROPERTY
Delta U+W
SciTegic.value.DoubleValue
-0.483

@<SCITEGIC>MOL_PROPERTY
U+W
SciTegic.value.DoubleValue
2.527

@<SCITEGIC>MOL_PROPERTY
Grad RMS
SciTegic.value.DoubleValue
0.000000

@<SCITEGIC>MOL_PROPERTY
U
SciTegic.value.DoubleValue
4.508

@<SCITEGIC>MOL_PROPERTY
W
SciTegic.value.DoubleValue
-1.981

@<SCITEGIC>MOL_PROPERTY
W(PB)
SciTegic.value.DoubleValue
-3.712

@<SCITEGIC>MOL_PROPERTY
W(SA)
SciTegic.value.DoubleValue
1.732

@<SCITEGIC>MOL_PROPERTY
Valence
SciTegic.value.DoubleValue
14.705

@<SCITEGIC>MOL_PROPERTY
Coulomb
SciTegic.value.DoubleValue
-10.687

@<SCITEGIC>MOL_PROPERTY
VdW
SciTegic.value.DoubleValue
0.490

@<SCITEGIC>MOL_PROPERTY
VdW6
SciTegic.value.DoubleValue
-3.745

@<SCITEGIC>MOL_PROPERTY
VdW12
SciTegic.value.DoubleValue
4.235

@<SCITEGIC>MOL_PROPERTY
Bond
SciTegic.value.DoubleValue
0.068

@<SCITEGIC>MOL_PROPERTY
Angle
SciTegic.value.DoubleValue
3.901

@<SCITEGIC>MOL_PROPERTY
Pdih
SciTegic.value.DoubleValue
10.737

@<SCITEGIC>MOL_PROPERTY
Idih
SciTegic.value.DoubleValue
0.000

@<SCITEGIC>MOL_PROPERTY
Tether
SciTegic.value.DoubleValue
0.000

@<TRIPOS>MOLECULE
guest-4_confgen4.mol2 : confsearch ligand conformer 739
          16          16           1
SMALL
USER_CHARGES
 
@<TRIPOS>ATOM
       1    C1      19.298884   18.060679   20.947861 C.3        1 MOL1        -0.1689
       2    H1      18.767179   17.101267   21.014898 H          1 MOL1         0.0830
       3    H2      19.507083   18.265462   19.888917 H          1 MOL1         0.0830
       4    C2      20.576943   18.000749   21.795624 C.3        1 MOL1        -0.1689
       5    H3      21.084324   17.029453   21.718763 H          1 MOL1         0.0830
       6    H4      21.276657   18.781017   21.465158 H          1 MOL1         0.0830
       7    C3      20.100575   18.301175   23.228584 C.3        1 MOL1        -0.1765
       8    H5      20.888440   18.785268   23.819996 H          1 MOL1         0.0830
       9    H6      19.834330   17.359535   23.727795 H          1 MOL1         0.0830
      10    C4      18.856864   19.204763   23.092967 C.3        1 MOL1         0.1214
      11    H7      19.109511   20.237520   23.374215 H          1 MOL1         0.0787
      12    C5      18.452203   19.166428   21.604810 C.3        1 MOL1        -0.1765
      13    H8      17.377296   18.986634   21.469645 H          1 MOL1         0.0830
      14    H9      18.689059   20.134424   21.144414 H          1 MOL1         0.0830
      15    O1      17.797959   18.707219   23.902324 O.3        1 MOL1        -0.5512
      16    H10     18.112259   18.743944   24.830439 H          1 MOL1         0.3776
@<TRIPOS>BOND
    1     1     2    1
    2     1     3    1
    3     1     4    1
    4     4     5    1
    5     4     6    1
    6     4     7    1
    7     7     8    1
    8     7     9    1
    9     7    10    1
   10    10    11    1
   11     1    12    1
   12    10    12    1
   13    12    13    1
   14    12    14    1
   15    10    15    1
   16    15    16    1
@<TRIPOS>SUBSTRUCTURE
       1 MOL1            1 RESIDUE      1      MOL     
@<SCITEGIC>MOL_PROPERTY
VConf Rank
SciTegic.value.IntegerValue
739

@<SCITEGIC>MOL_PROPERTY
Conf_Id
SciTegic.value.IntegerValue
59

@<SCITEGIC>MOL_PROPERTY
Delta U+W
SciTegic.value.DoubleValue
0.000

@<SCITEGIC>MOL_PROPERTY
U+W
SciTegic.value.DoubleValue
3.010

@<SCITEGIC>MOL_PROPERTY
Grad RMS
SciTegic.value.DoubleValue
0.000000

@<SCITEGIC>MOL_PROPERTY
U
SciTegic.value.DoubleValue
5.843

@<SCITEGIC>MOL_PROPERTY
W
SciTegic.value.DoubleValue
-2.833

@<SCITEGIC>MOL_PROPERTY
W(PB)
SciTegic.value.DoubleValue
-4.568

@<SCITEGIC>MOL_PROPERTY
W(SA)
SciTegic.value.DoubleValue
1.735

@<SCITEGIC>MOL_PROPERTY
Valence
SciTegic.value.DoubleValue
13.789

@<SCITEGIC>MOL_PROPERTY
Coulomb
SciTegic.value.DoubleValue
-8.574

@<SCITEGIC>MOL_PROPERTY
VdW
SciTegic.value.DoubleValue
0.628

@<SCITEGIC>MOL_PROPERTY
VdW6
SciTegic.value.DoubleValue
-3.284

@<SCITEGIC>MOL_PROPERTY
VdW12
SciTegic.value.DoubleValue
3.912

@<SCITEGIC>MOL_PROPERTY
Bond
SciTegic.value.DoubleValue
0.054

@<SCITEGIC>MOL_PROPERTY
Angle
SciTegic.value.DoubleValue
4.034

@<SCITEGIC>MOL_PROPERTY
Pdih
SciTegic.value.DoubleValue
9.702

@<SCITEGIC>MOL_PROPERTY
Idih
SciTegic.value.DoubleValue
0.000

@<SCITEGIC>MOL_PROPERTY
Tether
SciTegic.value.DoubleValue
0.000

@<TRIPOS>MOLECULE
guest-4_confgen4.mol2 : confsearch ligand conformer 740
          16          16           1
SMALL
USER_CHARGES
 
@<TRIPOS>ATOM
       1    C1      18.786246   19.471227   23.230174 C.3        1 MOL1        -0.1689
       2    H1      18.108802   19.397220   24.091772 H          1 MOL1         0.0830
       3    H2      19.123605   20.513762   23.146917 H          1 MOL1         0.0830
       4    C2      18.113578   19.040061   21.919700 C.3        1 MOL1        -0.1689
       5    H3      17.474220   18.165517   22.104289 H          1 MOL1         0.0830
       6    H4      17.492213   19.835152   21.485675 H          1 MOL1         0.0830
       7    C3      19.282182   18.639628   21.000410 C.3        1 MOL1        -0.1765
       8    H5      19.618596   19.514934   20.429664 H          1 MOL1         0.0830
       9    H6      18.983420   17.866244   20.280245 H          1 MOL1         0.0830
      10    C4      20.426360   18.170362   21.922605 C.3        1 MOL1         0.1214
      11    H7      21.350823   18.702049   21.653910 H          1 MOL1         0.0787
      12    C5      20.004229   18.538437   23.360680 C.3        1 MOL1        -0.1765
      13    H8      19.712751   17.635722   23.914691 H          1 MOL1         0.0830
      14    H9      20.822436   19.021673   23.910106 H          1 MOL1         0.0830
      15    O1      20.603218   16.763435   21.807823 O.3        1 MOL1        -0.5512
      16    H10     21.329935   16.520489   22.419697 H          1 MOL1         0.3776
@<TRIPOS>BOND
    1     1     2    1
    2     1     3    1
    3     1     4    1
    4     4     5    1
    5     4     6    1
    6     4     7    1
    7     7     8    1
    8     7     9    1
    9     7    10    1
   10    10    11    1
   11     1    12    1
   12    10    12    1
   13    12    13    1
   14    12    14    1
   15    10    15    1
   16    15    16    1
@<TRIPOS>SUBSTRUCTURE
       1 MOL1            1 RESIDUE      1      MOL     
@<SCITEGIC>MOL_PROPERTY
VConf Rank
SciTegic.value.IntegerValue
740

@<SCITEGIC>MOL_PROPERTY
Conf_Id
SciTegic.value.IntegerValue
33

@<SCITEGIC>MOL_PROPERTY
Delta U+W
SciTegic.value.DoubleValue
0.015

@<SCITEGIC>MOL_PROPERTY
U+W
SciTegic.value.DoubleValue
3.025

@<SCITEGIC>MOL_PROPERTY
Grad RMS
SciTegic.value.DoubleValue
0.000000

@<SCITEGIC>MOL_PROPERTY
U
SciTegic.value.DoubleValue
5.843

@<SCITEGIC>MOL_PROPERTY
W
SciTegic.value.DoubleValue
-2.819

@<SCITEGIC>MOL_PROPERTY
W(PB)
SciTegic.value.DoubleValue
-4.568

@<SCITEGIC>MOL_PROPERTY
W(SA)
SciTegic.value.DoubleValue
1.750

@<SCITEGIC>MOL_PROPERTY
Valence
SciTegic.value.DoubleValue
13.789

@<SCITEGIC>MOL_PROPERTY
Coulomb
SciTegic.value.DoubleValue
-8.574

@<SCITEGIC>MOL_PROPERTY
VdW
SciTegic.value.DoubleValue
0.628

@<SCITEGIC>MOL_PROPERTY
VdW6
SciTegic.value.DoubleValue
-3.284

@<SCITEGIC>MOL_PROPERTY
VdW12
SciTegic.value.DoubleValue
3.913

@<SCITEGIC>MOL_PROPERTY
Bond
SciTegic.value.DoubleValue
0.054

@<SCITEGIC>MOL_PROPERTY
Angle
SciTegic.value.DoubleValue
4.033

@<SCITEGIC>MOL_PROPERTY
Pdih
SciTegic.value.DoubleValue
9.702

@<SCITEGIC>MOL_PROPERTY
Idih
SciTegic.value.DoubleValue
0.000

@<SCITEGIC>MOL_PROPERTY
Tether
SciTegic.value.DoubleValue
0.000

@<TRIPOS>MOLECULE
guest-4_confgen4.mol2 : confsearch ligand conformer 741
          16          16           1
SMALL
USER_CHARGES
 
@<TRIPOS>ATOM
       1    C1      19.992283   18.083340   23.321265 C.3        1 MOL1        -0.1689
       2    H1      19.382237   17.364595   23.885601 H          1 MOL1         0.0830
       3    H2      20.973782   18.144379   23.811092 H          1 MOL1         0.0830
       4    C2      19.288078   19.457374   23.287411 C.3        1 MOL1        -0.1689
       5    H3      18.337740   19.403906   23.836252 H          1 MOL1         0.0830
       6    H4      19.901670   20.237404   23.758641 H          1 MOL1         0.0830
       7    C3      19.027649   19.779174   21.800449 C.3        1 MOL1        -0.1765
       8    H5      19.818965   20.440937   21.424272 H          1 MOL1         0.0830
       9    H6      18.066191   20.287072   21.646684 H          1 MOL1         0.0830
      10    C4      19.102835   18.439330   21.056032 C.3        1 MOL1         0.1214
      11    H7      19.415922   18.574266   20.010684 H          1 MOL1         0.0787
      12    C5      20.132048   17.627012   21.853413 C.3        1 MOL1        -0.1765
      13    H8      19.987044   16.544538   21.738410 H          1 MOL1         0.0830
      14    H9      21.138547   17.869961   21.487956 H          1 MOL1         0.0830
      15    O1      17.840225   17.793161   21.127365 O.3        1 MOL1        -0.5512
      16    H10     17.646538   17.717314   22.084389 H          1 MOL1         0.3776
@<TRIPOS>BOND
    1     1     2    1
    2     1     3    1
    3     1     4    1
    4     4     5    1
    5     4     6    1
    6     4     7    1
    7     7     8    1
    8     7     9    1
    9     7    10    1
   10    10    11    1
   11     1    12    1
   12    10    12    1
   13    12    13    1
   14    12    14    1
   15    10    15    1
   16    15    16    1
@<TRIPOS>SUBSTRUCTURE
       1 MOL1            1 RESIDUE      1      MOL     
@<SCITEGIC>MOL_PROPERTY
VConf Rank
SciTegic.value.IntegerValue
741

@<SCITEGIC>MOL_PROPERTY
Conf_Id
SciTegic.value.IntegerValue
20

@<SCITEGIC>MOL_PROPERTY
Delta U+W
SciTegic.value.DoubleValue
-0.483

@<SCITEGIC>MOL_PROPERTY
U+W
SciTegic.value.DoubleValue
2.527

@<SCITEGIC>MOL_PROPERTY
Grad RMS
SciTegic.value.DoubleValue
0.000000

@<SCITEGIC>MOL_PROPERTY
U
SciTegic.value.DoubleValue
4.508

@<SCITEGIC>MOL_PROPERTY
W
SciTegic.value.DoubleValue
-1.981

@<SCITEGIC>MOL_PROPERTY
W(PB)
SciTegic.value.DoubleValue
-3.712

@<SCITEGIC>MOL_PROPERTY
W(SA)
SciTegic.value.DoubleValue
1.732

@<SCITEGIC>MOL_PROPERTY
Valence
SciTegic.value.DoubleValue
14.705

@<SCITEGIC>MOL_PROPERTY
Coulomb
SciTegic.value.DoubleValue
-10.687

@<SCITEGIC>MOL_PROPERTY
VdW
SciTegic.value.DoubleValue
0.490

@<SCITEGIC>MOL_PROPERTY
VdW6
SciTegic.value.DoubleValue
-3.745

@<SCITEGIC>MOL_PROPERTY
VdW12
SciTegic.value.DoubleValue
4.235

@<SCITEGIC>MOL_PROPERTY
Bond
SciTegic.value.DoubleValue
0.068

@<SCITEGIC>MOL_PROPERTY
Angle
SciTegic.value.DoubleValue
3.901

@<SCITEGIC>MOL_PROPERTY
Pdih
SciTegic.value.DoubleValue
10.737

@<SCITEGIC>MOL_PROPERTY
Idih
SciTegic.value.DoubleValue
0.000

@<SCITEGIC>MOL_PROPERTY
Tether
SciTegic.value.DoubleValue
0.000

@<TRIPOS>MOLECULE
guest-4_confgen4.mol2 : confsearch ligand conformer 742
          16          16           1
SMALL
USER_CHARGES
 
@<TRIPOS>ATOM
       1    C1      19.378098   17.643192   23.447098 C.3        1 MOL1        -0.1689
       2    H1      18.813313   18.158728   24.236350 H          1 MOL1         0.0830
       3    H2      19.665306   16.651213   23.821441 H          1 MOL1         0.0830
       4    C2      20.591989   18.492078   23.045117 C.3        1 MOL1        -0.1689
       5    H3      21.072874   18.969554   23.909713 H          1 MOL1         0.0830
       6    H4      21.336914   17.858077   22.544361 H          1 MOL1         0.0830
       7    C3      20.027312   19.519676   22.047251 C.3        1 MOL1        -0.1765
       8    H5      20.787144   19.830802   21.318757 H          1 MOL1         0.0830
       9    H6      19.697899   20.413781   22.593922 H          1 MOL1         0.0830
      10    C4      18.824795   18.841106   21.357923 C.3        1 MOL1         0.1214
      11    H7      19.089538   18.562868   20.327383 H          1 MOL1         0.0787
      12    C5      18.522988   17.564010   22.168956 C.3        1 MOL1        -0.1765
      13    H8      17.454905   17.461463   22.402848 H          1 MOL1         0.0830
      14    H9      18.821236   16.687034   21.579852 H          1 MOL1         0.0830
      15    O1      17.697439   19.708733   21.371388 O.3        1 MOL1        -0.5512
      16    H10     17.947816   20.503219   20.854052 H          1 MOL1         0.3776
@<TRIPOS>BOND
    1     1     2    1
    2     1     3    1
    3     1     4    1
    4     4     5    1
    5     4     6    1
    6     4     7    1
    7     7     8    1
    8     7     9    1
    9     7    10    1
   10    10    11    1
   11     1    12    1
   12    10    12    1
   13    12    13    1
   14    12    14    1
   15    10    15    1
   16    15    16    1
@<TRIPOS>SUBSTRUCTURE
       1 MOL1            1 RESIDUE      1      MOL     
@<SCITEGIC>MOL_PROPERTY
VConf Rank
SciTegic.value.IntegerValue
742

@<SCITEGIC>MOL_PROPERTY
Conf_Id
SciTegic.value.IntegerValue
59

@<SCITEGIC>MOL_PROPERTY
Delta U+W
SciTegic.value.DoubleValue
0.000

@<SCITEGIC>MOL_PROPERTY
U+W
SciTegic.value.DoubleValue
3.010

@<SCITEGIC>MOL_PROPERTY
Grad RMS
SciTegic.value.DoubleValue
0.000000

@<SCITEGIC>MOL_PROPERTY
U
SciTegic.value.DoubleValue
5.843

@<SCITEGIC>MOL_PROPERTY
W
SciTegic.value.DoubleValue
-2.833

@<SCITEGIC>MOL_PROPERTY
W(PB)
SciTegic.value.DoubleValue
-4.568

@<SCITEGIC>MOL_PROPERTY
W(SA)
SciTegic.value.DoubleValue
1.735

@<SCITEGIC>MOL_PROPERTY
Valence
SciTegic.value.DoubleValue
13.789

@<SCITEGIC>MOL_PROPERTY
Coulomb
SciTegic.value.DoubleValue
-8.574

@<SCITEGIC>MOL_PROPERTY
VdW
SciTegic.value.DoubleValue
0.628

@<SCITEGIC>MOL_PROPERTY
VdW6
SciTegic.value.DoubleValue
-3.284

@<SCITEGIC>MOL_PROPERTY
VdW12
SciTegic.value.DoubleValue
3.912

@<SCITEGIC>MOL_PROPERTY
Bond
SciTegic.value.DoubleValue
0.054

@<SCITEGIC>MOL_PROPERTY
Angle
SciTegic.value.DoubleValue
4.034

@<SCITEGIC>MOL_PROPERTY
Pdih
SciTegic.value.DoubleValue
9.702

@<SCITEGIC>MOL_PROPERTY
Idih
SciTegic.value.DoubleValue
0.000

@<SCITEGIC>MOL_PROPERTY
Tether
SciTegic.value.DoubleValue
0.000

@<TRIPOS>MOLECULE
guest-4_confgen4.mol2 : confsearch ligand conformer 743
          16          16           1
SMALL
USER_CHARGES
 
@<TRIPOS>ATOM
       1    C1      19.611676   17.399474   23.043569 C.3        1 MOL1        -0.1689
       2    H1      19.007828   16.707838   23.646698 H          1 MOL1         0.0830
       3    H2      20.605249   16.952476   22.899945 H          1 MOL1         0.0830
       4    C2      19.756036   18.777218   23.704408 C.3        1 MOL1        -0.1689
       5    H3      18.802314   19.064820   24.168497 H          1 MOL1         0.0830
       6    H4      20.534062   18.791195   24.479729 H          1 MOL1         0.0830
       7    C3      20.070975   19.732579   22.538571 C.3        1 MOL1        -0.1765
       8    H5      21.157604   19.792484   22.394588 H          1 MOL1         0.0830
       9    H6      19.704167   20.748339   22.737828 H          1 MOL1         0.0830
      10    C4      19.429901   19.115179   21.278555 C.3        1 MOL1         0.1214
      11    H7      20.182736   19.057680   20.478898 H          1 MOL1         0.0787
      12    C5      18.971161   17.696040   21.675213 C.3        1 MOL1        -0.1765
      13    H8      17.877340   17.662474   21.771184 H          1 MOL1         0.0830
      14    H9      19.266675   16.951929   20.924335 H          1 MOL1         0.0830
      15    O1      18.313795   19.893986   20.864228 O.3        1 MOL1        -0.5512
      16    H10     17.941098   19.452199   20.072110 H          1 MOL1         0.3776
@<TRIPOS>BOND
    1     1     2    1
    2     1     3    1
    3     1     4    1
    4     4     5    1
    5     4     6    1
    6     4     7    1
    7     7     8    1
    8     7     9    1
    9     7    10    1
   10    10    11    1
   11     1    12    1
   12    10    12    1
   13    12    13    1
   14    12    14    1
   15    10    15    1
   16    15    16    1
@<TRIPOS>SUBSTRUCTURE
       1 MOL1            1 RESIDUE      1      MOL     
@<SCITEGIC>MOL_PROPERTY
VConf Rank
SciTegic.value.IntegerValue
743

@<SCITEGIC>MOL_PROPERTY
Conf_Id
SciTegic.value.IntegerValue
33

@<SCITEGIC>MOL_PROPERTY
Delta U+W
SciTegic.value.DoubleValue
0.015

@<SCITEGIC>MOL_PROPERTY
U+W
SciTegic.value.DoubleValue
3.025

@<SCITEGIC>MOL_PROPERTY
Grad RMS
SciTegic.value.DoubleValue
0.000000

@<SCITEGIC>MOL_PROPERTY
U
SciTegic.value.DoubleValue
5.843

@<SCITEGIC>MOL_PROPERTY
W
SciTegic.value.DoubleValue
-2.819

@<SCITEGIC>MOL_PROPERTY
W(PB)
SciTegic.value.DoubleValue
-4.568

@<SCITEGIC>MOL_PROPERTY
W(SA)
SciTegic.value.DoubleValue
1.750

@<SCITEGIC>MOL_PROPERTY
Valence
SciTegic.value.DoubleValue
13.789

@<SCITEGIC>MOL_PROPERTY
Coulomb
SciTegic.value.DoubleValue
-8.574

@<SCITEGIC>MOL_PROPERTY
VdW
SciTegic.value.DoubleValue
0.628

@<SCITEGIC>MOL_PROPERTY
VdW6
SciTegic.value.DoubleValue
-3.284

@<SCITEGIC>MOL_PROPERTY
VdW12
SciTegic.value.DoubleValue
3.913

@<SCITEGIC>MOL_PROPERTY
Bond
SciTegic.value.DoubleValue
0.054

@<SCITEGIC>MOL_PROPERTY
Angle
SciTegic.value.DoubleValue
4.033

@<SCITEGIC>MOL_PROPERTY
Pdih
SciTegic.value.DoubleValue
9.702

@<SCITEGIC>MOL_PROPERTY
Idih
SciTegic.value.DoubleValue
0.000

@<SCITEGIC>MOL_PROPERTY
Tether
SciTegic.value.DoubleValue
0.000

@<TRIPOS>MOLECULE
guest-4_confgen4.mol2 : confsearch ligand conformer 744
          16          16           1
SMALL
USER_CHARGES
 
@<TRIPOS>ATOM
       1    C1      20.336109   19.410730   21.782056 C.3        1 MOL1        -0.1689
       2    H1      21.358000   19.048325   21.959899 H          1 MOL1         0.0830
       3    H2      20.409572   20.355931   21.226903 H          1 MOL1         0.0830
       4    C2      19.603624   19.598488   23.128620 C.3        1 MOL1        -0.1689
       5    H3      20.271347   19.327970   23.958194 H          1 MOL1         0.0830
       6    H4      19.293014   20.641745   23.277400 H          1 MOL1         0.0830
       7    C3      18.382377   18.655068   23.097792 C.3        1 MOL1        -0.1765
       8    H5      17.488770   19.221252   22.803644 H          1 MOL1         0.0830
       9    H6      18.182576   18.200691   24.077397 H          1 MOL1         0.0830
      10    C4      18.683740   17.604631   22.020408 C.3        1 MOL1         0.1214
      11    H7      17.761054   17.206402   21.574261 H          1 MOL1         0.0787
      12    C5      19.529285   18.361809   20.987601 C.3        1 MOL1        -0.1765
      13    H8      20.176652   17.690698   20.407489 H          1 MOL1         0.0830
      14    H9      18.859102   18.871347   20.282726 H          1 MOL1         0.0830
      15    O1      19.462707   16.561996   22.588676 O.3        1 MOL1        -0.5512
      16    H10     20.253824   17.006681   22.956849 H          1 MOL1         0.3776
@<TRIPOS>BOND
    1     1     2    1
    2     1     3    1
    3     1     4    1
    4     4     5    1
    5     4     6    1
    6     4     7    1
    7     7     8    1
    8     7     9    1
    9     7    10    1
   10    10    11    1
   11     1    12    1
   12    10    12    1
   13    12    13    1
   14    12    14    1
   15    10    15    1
   16    15    16    1
@<TRIPOS>SUBSTRUCTURE
       1 MOL1            1 RESIDUE      1      MOL     
@<SCITEGIC>MOL_PROPERTY
VConf Rank
SciTegic.value.IntegerValue
744

@<SCITEGIC>MOL_PROPERTY
Conf_Id
SciTegic.value.IntegerValue
20

@<SCITEGIC>MOL_PROPERTY
Delta U+W
SciTegic.value.DoubleValue
-0.483

@<SCITEGIC>MOL_PROPERTY
U+W
SciTegic.value.DoubleValue
2.527

@<SCITEGIC>MOL_PROPERTY
Grad RMS
SciTegic.value.DoubleValue
0.000000

@<SCITEGIC>MOL_PROPERTY
U
SciTegic.value.DoubleValue
4.508

@<SCITEGIC>MOL_PROPERTY
W
SciTegic.value.DoubleValue
-1.981

@<SCITEGIC>MOL_PROPERTY
W(PB)
SciTegic.value.DoubleValue
-3.712

@<SCITEGIC>MOL_PROPERTY
W(SA)
SciTegic.value.DoubleValue
1.732

@<SCITEGIC>MOL_PROPERTY
Valence
SciTegic.value.DoubleValue
14.705

@<SCITEGIC>MOL_PROPERTY
Coulomb
SciTegic.value.DoubleValue
-10.687

@<SCITEGIC>MOL_PROPERTY
VdW
SciTegic.value.DoubleValue
0.490

@<SCITEGIC>MOL_PROPERTY
VdW6
SciTegic.value.DoubleValue
-3.745

@<SCITEGIC>MOL_PROPERTY
VdW12
SciTegic.value.DoubleValue
4.235

@<SCITEGIC>MOL_PROPERTY
Bond
SciTegic.value.DoubleValue
0.068

@<SCITEGIC>MOL_PROPERTY
Angle
SciTegic.value.DoubleValue
3.901

@<SCITEGIC>MOL_PROPERTY
Pdih
SciTegic.value.DoubleValue
10.737

@<SCITEGIC>MOL_PROPERTY
Idih
SciTegic.value.DoubleValue
0.000

@<SCITEGIC>MOL_PROPERTY
Tether
SciTegic.value.DoubleValue
0.000

@<TRIPOS>MOLECULE
guest-4_confgen4.mol2 : confsearch ligand conformer 745
          16          16           1
SMALL
USER_CHARGES
 
@<TRIPOS>ATOM
       1    C1      19.669212   17.747579   21.145197 C.3        1 MOL1        -0.1689
       2    H1      20.705258   18.008193   20.887580 H          1 MOL1         0.0830
       3    H2      19.331391   16.960106   20.457878 H          1 MOL1         0.0830
       4    C2      18.790169   19.003788   21.074844 C.3        1 MOL1        -0.1689
       5    H3      19.050572   19.649078   20.224815 H          1 MOL1         0.0830
       6    H4      17.735543   18.711808   20.974153 H          1 MOL1         0.0830
       7    C3      19.010390   19.701809   22.429402 C.3        1 MOL1        -0.1765
       8    H5      18.126442   20.277811   22.732228 H          1 MOL1         0.0830
       9    H6      19.855077   20.399139   22.345624 H          1 MOL1         0.0830
      10    C4      19.336250   18.586756   23.445351 C.3        1 MOL1         0.1214
      11    H7      18.475639   18.419292   24.109295 H          1 MOL1         0.0787
      12    C5      19.599002   17.310228   22.619959 C.3        1 MOL1        -0.1765
      13    H8      20.516136   16.793257   22.932413 H          1 MOL1         0.0830
      14    H9      18.760545   16.615373   22.758693 H          1 MOL1         0.0830
      15    O1      20.493308   18.931183   24.197998 O.3        1 MOL1        -0.5512
      16    H10     20.274631   19.750133   24.690982 H          1 MOL1         0.3776
@<TRIPOS>BOND
    1     1     2    1
    2     1     3    1
    3     1     4    1
    4     4     5    1
    5     4     6    1
    6     4     7    1
    7     7     8    1
    8     7     9    1
    9     7    10    1
   10    10    11    1
   11     1    12    1
   12    10    12    1
   13    12    13    1
   14    12    14    1
   15    10    15    1
   16    15    16    1
@<TRIPOS>SUBSTRUCTURE
       1 MOL1            1 RESIDUE      1      MOL     
@<SCITEGIC>MOL_PROPERTY
VConf Rank
SciTegic.value.IntegerValue
745

@<SCITEGIC>MOL_PROPERTY
Conf_Id
SciTegic.value.IntegerValue
59

@<SCITEGIC>MOL_PROPERTY
Delta U+W
SciTegic.value.DoubleValue
0.000

@<SCITEGIC>MOL_PROPERTY
U+W
SciTegic.value.DoubleValue
3.010

@<SCITEGIC>MOL_PROPERTY
Grad RMS
SciTegic.value.DoubleValue
0.000000

@<SCITEGIC>MOL_PROPERTY
U
SciTegic.value.DoubleValue
5.843

@<SCITEGIC>MOL_PROPERTY
W
SciTegic.value.DoubleValue
-2.833

@<SCITEGIC>MOL_PROPERTY
W(PB)
SciTegic.value.DoubleValue
-4.568

@<SCITEGIC>MOL_PROPERTY
W(SA)
SciTegic.value.DoubleValue
1.735

@<SCITEGIC>MOL_PROPERTY
Valence
SciTegic.value.DoubleValue
13.789

@<SCITEGIC>MOL_PROPERTY
Coulomb
SciTegic.value.DoubleValue
-8.574

@<SCITEGIC>MOL_PROPERTY
VdW
SciTegic.value.DoubleValue
0.628

@<SCITEGIC>MOL_PROPERTY
VdW6
SciTegic.value.DoubleValue
-3.284

@<SCITEGIC>MOL_PROPERTY
VdW12
SciTegic.value.DoubleValue
3.912

@<SCITEGIC>MOL_PROPERTY
Bond
SciTegic.value.DoubleValue
0.054

@<SCITEGIC>MOL_PROPERTY
Angle
SciTegic.value.DoubleValue
4.034

@<SCITEGIC>MOL_PROPERTY
Pdih
SciTegic.value.DoubleValue
9.702

@<SCITEGIC>MOL_PROPERTY
Idih
SciTegic.value.DoubleValue
0.000

@<SCITEGIC>MOL_PROPERTY
Tether
SciTegic.value.DoubleValue
0.000

@<TRIPOS>MOLECULE
guest-4_confgen4.mol2 : confsearch ligand conformer 746
          16          16           1
SMALL
USER_CHARGES
 
@<TRIPOS>ATOM
       1    C1      19.671542   17.198738   22.412287 C.3        1 MOL1        -0.1689
       2    H1      19.682230   16.300975   21.779305 H          1 MOL1         0.0830
       3    H2      20.046801   16.922008   23.407386 H          1 MOL1         0.0830
       4    C2      18.267883   17.806230   22.540430 C.3        1 MOL1        -0.1689
       5    H3      17.753177   17.751918   21.570994 H          1 MOL1         0.0830
       6    H4      17.652097   17.285992   23.286623 H          1 MOL1         0.0830
       7    C3      18.518202   19.280076   22.909474 C.3        1 MOL1        -0.1765
       8    H5      18.560286   19.384423   24.001456 H          1 MOL1         0.0830
       9    H6      17.713357   19.931031   22.542729 H          1 MOL1         0.0830
      10    C4      19.891425   19.655190   22.315045 C.3        1 MOL1         0.1214
      11    H7      20.514944   20.109116   23.099069 H          1 MOL1         0.0787
      12    C5      20.529815   18.336581   21.829799 C.3        1 MOL1        -0.1765
      13    H8      20.507050   18.283731   20.732771 H          1 MOL1         0.0830
      14    H9      21.576541   18.253479   22.149653 H          1 MOL1         0.0830
      15    O1      19.724856   20.551103   21.222574 O.3        1 MOL1        -0.5512
      16    H10     20.622411   20.745319   20.878763 H          1 MOL1         0.3776
@<TRIPOS>BOND
    1     1     2    1
    2     1     3    1
    3     1     4    1
    4     4     5    1
    5     4     6    1
    6     4     7    1
    7     7     8    1
    8     7     9    1
    9     7    10    1
   10    10    11    1
   11     1    12    1
   12    10    12    1
   13    12    13    1
   14    12    14    1
   15    10    15    1
   16    15    16    1
@<TRIPOS>SUBSTRUCTURE
       1 MOL1            1 RESIDUE      1      MOL     
@<SCITEGIC>MOL_PROPERTY
VConf Rank
SciTegic.value.IntegerValue
746

@<SCITEGIC>MOL_PROPERTY
Conf_Id
SciTegic.value.IntegerValue
33

@<SCITEGIC>MOL_PROPERTY
Delta U+W
SciTegic.value.DoubleValue
0.015

@<SCITEGIC>MOL_PROPERTY
U+W
SciTegic.value.DoubleValue
3.025

@<SCITEGIC>MOL_PROPERTY
Grad RMS
SciTegic.value.DoubleValue
0.000000

@<SCITEGIC>MOL_PROPERTY
U
SciTegic.value.DoubleValue
5.843

@<SCITEGIC>MOL_PROPERTY
W
SciTegic.value.DoubleValue
-2.819

@<SCITEGIC>MOL_PROPERTY
W(PB)
SciTegic.value.DoubleValue
-4.568

@<SCITEGIC>MOL_PROPERTY
W(SA)
SciTegic.value.DoubleValue
1.750

@<SCITEGIC>MOL_PROPERTY
Valence
SciTegic.value.DoubleValue
13.789

@<SCITEGIC>MOL_PROPERTY
Coulomb
SciTegic.value.DoubleValue
-8.574

@<SCITEGIC>MOL_PROPERTY
VdW
SciTegic.value.DoubleValue
0.628

@<SCITEGIC>MOL_PROPERTY
VdW6
SciTegic.value.DoubleValue
-3.284

@<SCITEGIC>MOL_PROPERTY
VdW12
SciTegic.value.DoubleValue
3.913

@<SCITEGIC>MOL_PROPERTY
Bond
SciTegic.value.DoubleValue
0.054

@<SCITEGIC>MOL_PROPERTY
Angle
SciTegic.value.DoubleValue
4.033

@<SCITEGIC>MOL_PROPERTY
Pdih
SciTegic.value.DoubleValue
9.702

@<SCITEGIC>MOL_PROPERTY
Idih
SciTegic.value.DoubleValue
0.000

@<SCITEGIC>MOL_PROPERTY
Tether
SciTegic.value.DoubleValue
0.000

@<TRIPOS>MOLECULE
guest-4_confgen4.mol2 : confsearch ligand conformer 747
          16          16           1
SMALL
USER_CHARGES
 
@<TRIPOS>ATOM
       1    C1      20.507364   19.055050   22.816832 C.3        1 MOL1        -0.1689
       2    H1      20.900569   19.977940   22.368625 H          1 MOL1         0.0830
       3    H2      21.180067   18.770139   23.637376 H          1 MOL1         0.0830
       4    C2      20.418334   17.947016   21.744751 C.3        1 MOL1        -0.1689
       5    H3      20.769440   18.333329   20.777946 H          1 MOL1         0.0830
       6    H4      21.043698   17.082037   22.005003 H          1 MOL1         0.0830
       7    C3      18.930370   17.547572   21.650702 C.3        1 MOL1        -0.1765
       8    H5      18.753121   16.648033   22.254882 H          1 MOL1         0.0830
       9    H6      18.623826   17.323679   20.620213 H          1 MOL1         0.0830
      10    C4      18.137725   18.715920   22.252091 C.3        1 MOL1         0.1214
      11    H7      17.182090   18.379219   22.679148 H          1 MOL1         0.0787
      12    C5      19.070029   19.282687   23.331231 C.3        1 MOL1        -0.1765
      13    H8      18.866383   20.340844   23.542976 H          1 MOL1         0.0830
      14    H9      18.920411   18.720775   24.262624 H          1 MOL1         0.0830
      15    O1      17.926362   19.701679   21.251886 O.3        1 MOL1        -0.5512
      16    H10     18.821963   19.937846   20.933628 H          1 MOL1         0.3776
@<TRIPOS>BOND
    1     1     2    1
    2     1     3    1
    3     1     4    1
    4     4     5    1
    5     4     6    1
    6     4     7    1
    7     7     8    1
    8     7     9    1
    9     7    10    1
   10    10    11    1
   11     1    12    1
   12    10    12    1
   13    12    13    1
   14    12    14    1
   15    10    15    1
   16    15    16    1
@<TRIPOS>SUBSTRUCTURE
       1 MOL1            1 RESIDUE      1      MOL     
@<SCITEGIC>MOL_PROPERTY
VConf Rank
SciTegic.value.IntegerValue
747

@<SCITEGIC>MOL_PROPERTY
Conf_Id
SciTegic.value.IntegerValue
20

@<SCITEGIC>MOL_PROPERTY
Delta U+W
SciTegic.value.DoubleValue
-0.483

@<SCITEGIC>MOL_PROPERTY
U+W
SciTegic.value.DoubleValue
2.527

@<SCITEGIC>MOL_PROPERTY
Grad RMS
SciTegic.value.DoubleValue
0.000000

@<SCITEGIC>MOL_PROPERTY
U
SciTegic.value.DoubleValue
4.508

@<SCITEGIC>MOL_PROPERTY
W
SciTegic.value.DoubleValue
-1.981

@<SCITEGIC>MOL_PROPERTY
W(PB)
SciTegic.value.DoubleValue
-3.712

@<SCITEGIC>MOL_PROPERTY
W(SA)
SciTegic.value.DoubleValue
1.732

@<SCITEGIC>MOL_PROPERTY
Valence
SciTegic.value.DoubleValue
14.705

@<SCITEGIC>MOL_PROPERTY
Coulomb
SciTegic.value.DoubleValue
-10.687

@<SCITEGIC>MOL_PROPERTY
VdW
SciTegic.value.DoubleValue
0.490

@<SCITEGIC>MOL_PROPERTY
VdW6
SciTegic.value.DoubleValue
-3.745

@<SCITEGIC>MOL_PROPERTY
VdW12
SciTegic.value.DoubleValue
4.235

@<SCITEGIC>MOL_PROPERTY
Bond
SciTegic.value.DoubleValue
0.068

@<SCITEGIC>MOL_PROPERTY
Angle
SciTegic.value.DoubleValue
3.901

@<SCITEGIC>MOL_PROPERTY
Pdih
SciTegic.value.DoubleValue
10.737

@<SCITEGIC>MOL_PROPERTY
Idih
SciTegic.value.DoubleValue
0.000

@<SCITEGIC>MOL_PROPERTY
Tether
SciTegic.value.DoubleValue
0.000

@<TRIPOS>MOLECULE
guest-4_confgen4.mol2 : confsearch ligand conformer 748
          16          16           1
SMALL
USER_CHARGES
 
@<TRIPOS>ATOM
       1    C1      20.487019   18.746207   23.209888 C.3        1 MOL1        -0.1689
       2    H1      20.045705   19.103059   24.150939 H          1 MOL1         0.0830
       3    H2      21.569457   18.632870   23.358636 H          1 MOL1         0.0830
       4    C2      20.150321   19.727886   22.079106 C.3        1 MOL1        -0.1689
       5    H3      20.204226   20.775504   22.405218 H          1 MOL1         0.0830
       6    H4      20.855633   19.590098   21.247736 H          1 MOL1         0.0830
       7    C3      18.733007   19.325629   21.631928 C.3        1 MOL1        -0.1765
       8    H5      18.567215   19.553741   20.571115 H          1 MOL1         0.0830
       9    H6      17.993745   19.888788   22.217700 H          1 MOL1         0.0830
      10    C4      18.600313   17.814290   21.914641 C.3        1 MOL1         0.1214
      11    H7      18.639688   17.250084   20.971434 H          1 MOL1         0.0787
      12    C5      19.810341   17.428215   22.790205 C.3        1 MOL1        -0.1765
      13    H8      19.519086   16.827731   23.662335 H          1 MOL1         0.0830
      14    H9      20.509062   16.829704   22.191327 H          1 MOL1         0.0830
      15    O1      17.387506   17.549456   22.609514 O.3        1 MOL1        -0.5512
      16    H10     16.657242   17.822273   22.014688 H          1 MOL1         0.3776
@<TRIPOS>BOND
    1     1     2    1
    2     1     3    1
    3     1     4    1
    4     4     5    1
    5     4     6    1
    6     4     7    1
    7     7     8    1
    8     7     9    1
    9     7    10    1
   10    10    11    1
   11     1    12    1
   12    10    12    1
   13    12    13    1
   14    12    14    1
   15    10    15    1
   16    15    16    1
@<TRIPOS>SUBSTRUCTURE
       1 MOL1            1 RESIDUE      1      MOL     
@<SCITEGIC>MOL_PROPERTY
VConf Rank
SciTegic.value.IntegerValue
748

@<SCITEGIC>MOL_PROPERTY
Conf_Id
SciTegic.value.IntegerValue
59

@<SCITEGIC>MOL_PROPERTY
Delta U+W
SciTegic.value.DoubleValue
0.000

@<SCITEGIC>MOL_PROPERTY
U+W
SciTegic.value.DoubleValue
3.010

@<SCITEGIC>MOL_PROPERTY
Grad RMS
SciTegic.value.DoubleValue
0.000000

@<SCITEGIC>MOL_PROPERTY
U
SciTegic.value.DoubleValue
5.843

@<SCITEGIC>MOL_PROPERTY
W
SciTegic.value.DoubleValue
-2.833

@<SCITEGIC>MOL_PROPERTY
W(PB)
SciTegic.value.DoubleValue
-4.568

@<SCITEGIC>MOL_PROPERTY
W(SA)
SciTegic.value.DoubleValue
1.735

@<SCITEGIC>MOL_PROPERTY
Valence
SciTegic.value.DoubleValue
13.789

@<SCITEGIC>MOL_PROPERTY
Coulomb
SciTegic.value.DoubleValue
-8.574

@<SCITEGIC>MOL_PROPERTY
VdW
SciTegic.value.DoubleValue
0.628

@<SCITEGIC>MOL_PROPERTY
VdW6
SciTegic.value.DoubleValue
-3.284

@<SCITEGIC>MOL_PROPERTY
VdW12
SciTegic.value.DoubleValue
3.912

@<SCITEGIC>MOL_PROPERTY
Bond
SciTegic.value.DoubleValue
0.054

@<SCITEGIC>MOL_PROPERTY
Angle
SciTegic.value.DoubleValue
4.034

@<SCITEGIC>MOL_PROPERTY
Pdih
SciTegic.value.DoubleValue
9.702

@<SCITEGIC>MOL_PROPERTY
Idih
SciTegic.value.DoubleValue
0.000

@<SCITEGIC>MOL_PROPERTY
Tether
SciTegic.value.DoubleValue
0.000

@<TRIPOS>MOLECULE
guest-4_confgen4.mol2 : confsearch ligand conformer 749
          16          16           1
SMALL
USER_CHARGES
 
@<TRIPOS>ATOM
       1    C1      20.779506   19.097635   22.542960 C.3        1 MOL1        -0.1689
       2    H1      21.433890   19.331708   23.393695 H          1 MOL1         0.0830
       3    H2      21.376495   19.161435   21.622550 H          1 MOL1         0.0830
       4    C2      19.581088   20.051856   22.448183 C.3        1 MOL1        -0.1689
       5    H3      19.198465   20.263816   23.456326 H          1 MOL1         0.0830
       6    H4      19.841585   21.006470   21.971217 H          1 MOL1         0.0830
       7    C3      18.524578   19.265386   21.650481 C.3        1 MOL1        -0.1765
       8    H5      18.648295   19.465431   20.578212 H          1 MOL1         0.0830
       9    H6      17.504437   19.561004   21.929658 H          1 MOL1         0.0830
      10    C4      18.794794   17.770266   21.917682 C.3        1 MOL1         0.1214
      11    H7      18.861692   17.236106   20.958663 H          1 MOL1         0.0787
      12    C5      20.147153   17.698506   22.657758 C.3        1 MOL1        -0.1765
      13    H8      19.988710   17.457315   23.717713 H          1 MOL1         0.0830
      14    H9      20.800430   16.926836   22.230439 H          1 MOL1         0.0830
      15    O1      17.761975   17.222322   22.728200 O.3        1 MOL1        -0.5512
      16    H10     17.989524   16.279820   22.874624 H          1 MOL1         0.3776
@<TRIPOS>BOND
    1     1     2    1
    2     1     3    1
    3     1     4    1
    4     4     5    1
    5     4     6    1
    6     4     7    1
    7     7     8    1
    8     7     9    1
    9     7    10    1
   10    10    11    1
   11     1    12    1
   12    10    12    1
   13    12    13    1
   14    12    14    1
   15    10    15    1
   16    15    16    1
@<TRIPOS>SUBSTRUCTURE
       1 MOL1            1 RESIDUE      1      MOL     
@<SCITEGIC>MOL_PROPERTY
VConf Rank
SciTegic.value.IntegerValue
749

@<SCITEGIC>MOL_PROPERTY
Conf_Id
SciTegic.value.IntegerValue
33

@<SCITEGIC>MOL_PROPERTY
Delta U+W
SciTegic.value.DoubleValue
0.015

@<SCITEGIC>MOL_PROPERTY
U+W
SciTegic.value.DoubleValue
3.025

@<SCITEGIC>MOL_PROPERTY
Grad RMS
SciTegic.value.DoubleValue
0.000000

@<SCITEGIC>MOL_PROPERTY
U
SciTegic.value.DoubleValue
5.843

@<SCITEGIC>MOL_PROPERTY
W
SciTegic.value.DoubleValue
-2.819

@<SCITEGIC>MOL_PROPERTY
W(PB)
SciTegic.value.DoubleValue
-4.568

@<SCITEGIC>MOL_PROPERTY
W(SA)
SciTegic.value.DoubleValue
1.750

@<SCITEGIC>MOL_PROPERTY
Valence
SciTegic.value.DoubleValue
13.789

@<SCITEGIC>MOL_PROPERTY
Coulomb
SciTegic.value.DoubleValue
-8.574

@<SCITEGIC>MOL_PROPERTY
VdW
SciTegic.value.DoubleValue
0.628

@<SCITEGIC>MOL_PROPERTY
VdW6
SciTegic.value.DoubleValue
-3.284

@<SCITEGIC>MOL_PROPERTY
VdW12
SciTegic.value.DoubleValue
3.913

@<SCITEGIC>MOL_PROPERTY
Bond
SciTegic.value.DoubleValue
0.054

@<SCITEGIC>MOL_PROPERTY
Angle
SciTegic.value.DoubleValue
4.033

@<SCITEGIC>MOL_PROPERTY
Pdih
SciTegic.value.DoubleValue
9.702

@<SCITEGIC>MOL_PROPERTY
Idih
SciTegic.value.DoubleValue
0.000

@<SCITEGIC>MOL_PROPERTY
Tether
SciTegic.value.DoubleValue
0.000

@<TRIPOS>MOLECULE
guest-4_confgen4.mol2 : confsearch ligand conformer 750
          16          16           1
SMALL
USER_CHARGES
 
@<TRIPOS>ATOM
       1    C1      19.620854   17.297998   22.193931 C.3        1 MOL1        -0.1689
       2    H1      20.489842   16.969624   22.780666 H          1 MOL1         0.0830
       3    H2      19.181520   16.408208   21.722489 H          1 MOL1         0.0830
       4    C2      20.060689   18.339445   21.141812 C.3        1 MOL1        -0.1689
       5    H3      21.142698   18.514314   21.218643 H          1 MOL1         0.0830
       6    H4      19.850494   17.994860   20.120010 H          1 MOL1         0.0830
       7    C3      19.287038   19.636620   21.459991 C.3        1 MOL1        -0.1765
       8    H5      18.403457   19.705158   20.811756 H          1 MOL1         0.0830
       9    H6      19.895012   20.535646   21.292289 H          1 MOL1         0.0830
      10    C4      18.826504   19.510081   22.918377 C.3        1 MOL1         0.1214
      11    H7      17.908364   20.085830   23.104159 H          1 MOL1         0.0787
      12    C5      18.597015   18.004598   23.107619 C.3        1 MOL1        -0.1765
      13    H8      18.694584   17.697669   24.157514 H          1 MOL1         0.0830
      14    H9      17.579218   17.755107   22.779801 H          1 MOL1         0.0830
      15    O1      19.873816   19.935245   23.778132 O.3        1 MOL1        -0.5512
      16    H10     20.640649   19.373360   23.542726 H          1 MOL1         0.3776
@<TRIPOS>BOND
    1     1     2    1
    2     1     3    1
    3     1     4    1
    4     4     5    1
    5     4     6    1
    6     4     7    1
    7     7     8    1
    8     7     9    1
    9     7    10    1
   10    10    11    1
   11     1    12    1
   12    10    12    1
   13    12    13    1
   14    12    14    1
   15    10    15    1
   16    15    16    1
@<TRIPOS>SUBSTRUCTURE
       1 MOL1            1 RESIDUE      1      MOL     
@<SCITEGIC>MOL_PROPERTY
VConf Rank
SciTegic.value.IntegerValue
750

@<SCITEGIC>MOL_PROPERTY
Conf_Id
SciTegic.value.IntegerValue
20

@<SCITEGIC>MOL_PROPERTY
Delta U+W
SciTegic.value.DoubleValue
-0.483

@<SCITEGIC>MOL_PROPERTY
U+W
SciTegic.value.DoubleValue
2.527

@<SCITEGIC>MOL_PROPERTY
Grad RMS
SciTegic.value.DoubleValue
0.000000

@<SCITEGIC>MOL_PROPERTY
U
SciTegic.value.DoubleValue
4.508

@<SCITEGIC>MOL_PROPERTY
W
SciTegic.value.DoubleValue
-1.981

@<SCITEGIC>MOL_PROPERTY
W(PB)
SciTegic.value.DoubleValue
-3.712

@<SCITEGIC>MOL_PROPERTY
W(SA)
SciTegic.value.DoubleValue
1.732

@<SCITEGIC>MOL_PROPERTY
Valence
SciTegic.value.DoubleValue
14.705

@<SCITEGIC>MOL_PROPERTY
Coulomb
SciTegic.value.DoubleValue
-10.687

@<SCITEGIC>MOL_PROPERTY
VdW
SciTegic.value.DoubleValue
0.490

@<SCITEGIC>MOL_PROPERTY
VdW6
SciTegic.value.DoubleValue
-3.745

@<SCITEGIC>MOL_PROPERTY
VdW12
SciTegic.value.DoubleValue
4.235

@<SCITEGIC>MOL_PROPERTY
Bond
SciTegic.value.DoubleValue
0.068

@<SCITEGIC>MOL_PROPERTY
Angle
SciTegic.value.DoubleValue
3.901

@<SCITEGIC>MOL_PROPERTY
Pdih
SciTegic.value.DoubleValue
10.737

@<SCITEGIC>MOL_PROPERTY
Idih
SciTegic.value.DoubleValue
0.000

@<SCITEGIC>MOL_PROPERTY
Tether
SciTegic.value.DoubleValue
0.000

@<TRIPOS>MOLECULE
guest-4_confgen4.mol2 : confsearch ligand conformer 751
          16          16           1
SMALL
USER_CHARGES
 
@<TRIPOS>ATOM
       1    C1      19.854129   17.599722   21.335970 C.3        1 MOL1        -0.1689
       2    H1      20.520165   18.181506   20.683589 H          1 MOL1         0.0830
       3    H2      19.888177   16.549972   21.014239 H          1 MOL1         0.0830
       4    C2      18.436547   18.185157   21.277196 C.3        1 MOL1        -0.1689
       5    H3      18.155417   18.498345   20.262485 H          1 MOL1         0.0830
       6    H4      17.711520   17.432887   21.617859 H          1 MOL1         0.0830
       7    C3      18.467685   19.364252   22.266803 C.3        1 MOL1        -0.1765
       8    H5      17.479315   19.542317   22.709820 H          1 MOL1         0.0830
       9    H6      18.768428   20.277128   21.734830 H          1 MOL1         0.0830
      10    C4      19.514268   19.002356   23.341687 C.3        1 MOL1         0.1214
      11    H7      19.010679   18.730338   24.280794 H          1 MOL1         0.0787
      12    C5      20.284454   17.778801   22.803580 C.3        1 MOL1        -0.1765
      13    H8      21.372365   17.898234   22.894174 H          1 MOL1         0.0830
      14    H9      19.996809   16.891727   23.382753 H          1 MOL1         0.0830
      15    O1      20.405548   20.092262   23.545681 O.3        1 MOL1        -0.5512
      16    H10     19.864058   20.840529   23.874950 H          1 MOL1         0.3776
@<TRIPOS>BOND
    1     1     2    1
    2     1     3    1
    3     1     4    1
    4     4     5    1
    5     4     6    1
    6     4     7    1
    7     7     8    1
    8     7     9    1
    9     7    10    1
   10    10    11    1
   11     1    12    1
   12    10    12    1
   13    12    13    1
   14    12    14    1
   15    10    15    1
   16    15    16    1
@<TRIPOS>SUBSTRUCTURE
       1 MOL1            1 RESIDUE      1      MOL     
@<SCITEGIC>MOL_PROPERTY
VConf Rank
SciTegic.value.IntegerValue
751

@<SCITEGIC>MOL_PROPERTY
Conf_Id
SciTegic.value.IntegerValue
59

@<SCITEGIC>MOL_PROPERTY
Delta U+W
SciTegic.value.DoubleValue
0.000

@<SCITEGIC>MOL_PROPERTY
U+W
SciTegic.value.DoubleValue
3.010

@<SCITEGIC>MOL_PROPERTY
Grad RMS
SciTegic.value.DoubleValue
0.000000

@<SCITEGIC>MOL_PROPERTY
U
SciTegic.value.DoubleValue
5.843

@<SCITEGIC>MOL_PROPERTY
W
SciTegic.value.DoubleValue
-2.833

@<SCITEGIC>MOL_PROPERTY
W(PB)
SciTegic.value.DoubleValue
-4.568

@<SCITEGIC>MOL_PROPERTY
W(SA)
SciTegic.value.DoubleValue
1.735

@<SCITEGIC>MOL_PROPERTY
Valence
SciTegic.value.DoubleValue
13.789

@<SCITEGIC>MOL_PROPERTY
Coulomb
SciTegic.value.DoubleValue
-8.574

@<SCITEGIC>MOL_PROPERTY
VdW
SciTegic.value.DoubleValue
0.628

@<SCITEGIC>MOL_PROPERTY
VdW6
SciTegic.value.DoubleValue
-3.284

@<SCITEGIC>MOL_PROPERTY
VdW12
SciTegic.value.DoubleValue
3.912

@<SCITEGIC>MOL_PROPERTY
Bond
SciTegic.value.DoubleValue
0.054

@<SCITEGIC>MOL_PROPERTY
Angle
SciTegic.value.DoubleValue
4.034

@<SCITEGIC>MOL_PROPERTY
Pdih
SciTegic.value.DoubleValue
9.702

@<SCITEGIC>MOL_PROPERTY
Idih
SciTegic.value.DoubleValue
0.000

@<SCITEGIC>MOL_PROPERTY
Tether
SciTegic.value.DoubleValue
0.000

@<TRIPOS>MOLECULE
guest-4_confgen4.mol2 : confsearch ligand conformer 752
          16          16           1
SMALL
USER_CHARGES
 
@<TRIPOS>ATOM
       1    C1      19.402036   18.676541   23.725548 C.3        1 MOL1        -0.1689
       2    H1      19.761176   19.315810   24.543541 H          1 MOL1         0.0830
       3    H2      18.714444   17.931012   24.148662 H          1 MOL1         0.0830
       4    C2      20.548483   17.965007   22.994037 C.3        1 MOL1        -0.1689
       5    H3      21.399377   18.652103   22.886536 H          1 MOL1         0.0830
       6    H4      20.894670   17.069350   23.527512 H          1 MOL1         0.0830
       7    C3      19.973004   17.635535   21.604308 C.3        1 MOL1        -0.1765
       8    H5      19.498979   16.645653   21.627057 H          1 MOL1         0.0830
       9    H6      20.758084   17.612114   20.836767 H          1 MOL1         0.0830
      10    C4      18.897588   18.701564   21.309587 C.3        1 MOL1         0.1214
      11    H7      17.963412   18.202841   21.012752 H          1 MOL1         0.0787
      12    C5      18.685704   19.480413   22.624972 C.3        1 MOL1        -0.1765
      13    H8      19.136898   20.479408   22.552762 H          1 MOL1         0.0830
      14    H9      17.619166   19.607758   22.851086 H          1 MOL1         0.0830
      15    O1      19.346330   19.580925   20.285258 O.3        1 MOL1        -0.5512
      16    H10     18.633264   20.239878   20.147973 H          1 MOL1         0.3776
@<TRIPOS>BOND
    1     1     2    1
    2     1     3    1
    3     1     4    1
    4     4     5    1
    5     4     6    1
    6     4     7    1
    7     7     8    1
    8     7     9    1
    9     7    10    1
   10    10    11    1
   11     1    12    1
   12    10    12    1
   13    12    13    1
   14    12    14    1
   15    10    15    1
   16    15    16    1
@<TRIPOS>SUBSTRUCTURE
       1 MOL1            1 RESIDUE      1      MOL     
@<SCITEGIC>MOL_PROPERTY
VConf Rank
SciTegic.value.IntegerValue
752

@<SCITEGIC>MOL_PROPERTY
Conf_Id
SciTegic.value.IntegerValue
33

@<SCITEGIC>MOL_PROPERTY
Delta U+W
SciTegic.value.DoubleValue
0.015

@<SCITEGIC>MOL_PROPERTY
U+W
SciTegic.value.DoubleValue
3.025

@<SCITEGIC>MOL_PROPERTY
Grad RMS
SciTegic.value.DoubleValue
0.000000

@<SCITEGIC>MOL_PROPERTY
U
SciTegic.value.DoubleValue
5.843

@<SCITEGIC>MOL_PROPERTY
W
SciTegic.value.DoubleValue
-2.819

@<SCITEGIC>MOL_PROPERTY
W(PB)
SciTegic.value.DoubleValue
-4.568

@<SCITEGIC>MOL_PROPERTY
W(SA)
SciTegic.value.DoubleValue
1.750

@<SCITEGIC>MOL_PROPERTY
Valence
SciTegic.value.DoubleValue
13.789

@<SCITEGIC>MOL_PROPERTY
Coulomb
SciTegic.value.DoubleValue
-8.574

@<SCITEGIC>MOL_PROPERTY
VdW
SciTegic.value.DoubleValue
0.628

@<SCITEGIC>MOL_PROPERTY
VdW6
SciTegic.value.DoubleValue
-3.284

@<SCITEGIC>MOL_PROPERTY
VdW12
SciTegic.value.DoubleValue
3.913

@<SCITEGIC>MOL_PROPERTY
Bond
SciTegic.value.DoubleValue
0.054

@<SCITEGIC>MOL_PROPERTY
Angle
SciTegic.value.DoubleValue
4.033

@<SCITEGIC>MOL_PROPERTY
Pdih
SciTegic.value.DoubleValue
9.702

@<SCITEGIC>MOL_PROPERTY
Idih
SciTegic.value.DoubleValue
0.000

@<SCITEGIC>MOL_PROPERTY
Tether
SciTegic.value.DoubleValue
0.000

@<TRIPOS>MOLECULE
guest-4_confgen4.mol2 : confsearch ligand conformer 753
          16          16           1
SMALL
USER_CHARGES
 
@<TRIPOS>ATOM
       1    C1      18.982519   17.406362   21.834975 C.3        1 MOL1        -0.1689
       2    H1      19.196275   16.587877   22.536130 H          1 MOL1         0.0830
       3    H2      18.469759   16.974327   20.964677 H          1 MOL1         0.0830
       4    C2      20.297491   18.107216   21.429172 C.3        1 MOL1        -0.1689
       5    H3      21.147744   17.627260   21.933095 H          1 MOL1         0.0830
       6    H4      20.472087   18.042677   20.346421 H          1 MOL1         0.0830
       7    C3      20.168585   19.576646   21.883702 C.3        1 MOL1        -0.1765
       8    H5      19.853237   20.197031   21.034409 H          1 MOL1         0.0830
       9    H6      21.118208   19.981216   22.258595 H          1 MOL1         0.0830
      10    C4      19.066522   19.596243   22.951440 C.3        1 MOL1         0.1214
      11    H7      18.559651   20.571141   22.991912 H          1 MOL1         0.0787
      12    C5      18.107894   18.478903   22.518381 C.3        1 MOL1        -0.1765
      13    H8      17.534360   18.072602   23.362171 H          1 MOL1         0.0830
      14    H9      17.391479   18.885294   21.792283 H          1 MOL1         0.0830
      15    O1      19.630783   19.265871   24.212103 O.3        1 MOL1        -0.5512
      16    H10     20.055160   18.393097   24.080450 H          1 MOL1         0.3776
@<TRIPOS>BOND
    1     1     2    1
    2     1     3    1
    3     1     4    1
    4     4     5    1
    5     4     6    1
    6     4     7    1
    7     7     8    1
    8     7     9    1
    9     7    10    1
   10    10    11    1
   11     1    12    1
   12    10    12    1
   13    12    13    1
   14    12    14    1
   15    10    15    1
   16    15    16    1
@<TRIPOS>SUBSTRUCTURE
       1 MOL1            1 RESIDUE      1      MOL     
@<SCITEGIC>MOL_PROPERTY
VConf Rank
SciTegic.value.IntegerValue
753

@<SCITEGIC>MOL_PROPERTY
Conf_Id
SciTegic.value.IntegerValue
20

@<SCITEGIC>MOL_PROPERTY
Delta U+W
SciTegic.value.DoubleValue
-0.483

@<SCITEGIC>MOL_PROPERTY
U+W
SciTegic.value.DoubleValue
2.527

@<SCITEGIC>MOL_PROPERTY
Grad RMS
SciTegic.value.DoubleValue
0.000000

@<SCITEGIC>MOL_PROPERTY
U
SciTegic.value.DoubleValue
4.508

@<SCITEGIC>MOL_PROPERTY
W
SciTegic.value.DoubleValue
-1.981

@<SCITEGIC>MOL_PROPERTY
W(PB)
SciTegic.value.DoubleValue
-3.712

@<SCITEGIC>MOL_PROPERTY
W(SA)
SciTegic.value.DoubleValue
1.732

@<SCITEGIC>MOL_PROPERTY
Valence
SciTegic.value.DoubleValue
14.705

@<SCITEGIC>MOL_PROPERTY
Coulomb
SciTegic.value.DoubleValue
-10.687

@<SCITEGIC>MOL_PROPERTY
VdW
SciTegic.value.DoubleValue
0.490

@<SCITEGIC>MOL_PROPERTY
VdW6
SciTegic.value.DoubleValue
-3.745

@<SCITEGIC>MOL_PROPERTY
VdW12
SciTegic.value.DoubleValue
4.235

@<SCITEGIC>MOL_PROPERTY
Bond
SciTegic.value.DoubleValue
0.068

@<SCITEGIC>MOL_PROPERTY
Angle
SciTegic.value.DoubleValue
3.901

@<SCITEGIC>MOL_PROPERTY
Pdih
SciTegic.value.DoubleValue
10.737

@<SCITEGIC>MOL_PROPERTY
Idih
SciTegic.value.DoubleValue
0.000

@<SCITEGIC>MOL_PROPERTY
Tether
SciTegic.value.DoubleValue
0.000

@<TRIPOS>MOLECULE
guest-4_confgen4.mol2 : confsearch ligand conformer 754
          16          16           1
SMALL
USER_CHARGES
 
@<TRIPOS>ATOM
       1    C1      19.592580   17.386675   23.148333 C.3        1 MOL1        -0.1689
       2    H1      19.466861   17.744433   24.179780 H          1 MOL1         0.0830
       3    H2      19.782615   16.305227   23.179966 H          1 MOL1         0.0830
       4    C2      20.730228   18.162166   22.470028 C.3        1 MOL1        -0.1689
       5    H3      21.575927   18.341582   23.147790 H          1 MOL1         0.0830
       6    H4      21.098570   17.595499   21.603519 H          1 MOL1         0.0830
       7    C3      20.072077   19.470587   21.995235 C.3        1 MOL1        -0.1765
       8    H5      20.568228   19.867349   21.100104 H          1 MOL1         0.0830
       9    H6      20.152407   20.226295   22.788480 H          1 MOL1         0.0830
      10    C4      18.590132   19.137719   21.721893 C.3        1 MOL1         0.1214
      11    H7      18.405479   19.104767   20.638225 H          1 MOL1         0.0787
      12    C5      18.340719   17.739477   22.324012 C.3        1 MOL1        -0.1765
      13    H8      17.430274   17.706060   22.937195 H          1 MOL1         0.0830
      14    H9      18.220390   17.014760   21.508299 H          1 MOL1         0.0830
      15    O1      17.747727   20.098567   22.347205 O.3        1 MOL1        -0.5512
      16    H10     17.955352   20.964373   21.936347 H          1 MOL1         0.3776
@<TRIPOS>BOND
    1     1     2    1
    2     1     3    1
    3     1     4    1
    4     4     5    1
    5     4     6    1
    6     4     7    1
    7     7     8    1
    8     7     9    1
    9     7    10    1
   10    10    11    1
   11     1    12    1
   12    10    12    1
   13    12    13    1
   14    12    14    1
   15    10    15    1
   16    15    16    1
@<TRIPOS>SUBSTRUCTURE
       1 MOL1            1 RESIDUE      1      MOL     
@<SCITEGIC>MOL_PROPERTY
VConf Rank
SciTegic.value.IntegerValue
754

@<SCITEGIC>MOL_PROPERTY
Conf_Id
SciTegic.value.IntegerValue
59

@<SCITEGIC>MOL_PROPERTY
Delta U+W
SciTegic.value.DoubleValue
0.000

@<SCITEGIC>MOL_PROPERTY
U+W
SciTegic.value.DoubleValue
3.010

@<SCITEGIC>MOL_PROPERTY
Grad RMS
SciTegic.value.DoubleValue
0.000000

@<SCITEGIC>MOL_PROPERTY
U
SciTegic.value.DoubleValue
5.843

@<SCITEGIC>MOL_PROPERTY
W
SciTegic.value.DoubleValue
-2.833

@<SCITEGIC>MOL_PROPERTY
W(PB)
SciTegic.value.DoubleValue
-4.568

@<SCITEGIC>MOL_PROPERTY
W(SA)
SciTegic.value.DoubleValue
1.735

@<SCITEGIC>MOL_PROPERTY
Valence
SciTegic.value.DoubleValue
13.789

@<SCITEGIC>MOL_PROPERTY
Coulomb
SciTegic.value.DoubleValue
-8.574

@<SCITEGIC>MOL_PROPERTY
VdW
SciTegic.value.DoubleValue
0.628

@<SCITEGIC>MOL_PROPERTY
VdW6
SciTegic.value.DoubleValue
-3.284

@<SCITEGIC>MOL_PROPERTY
VdW12
SciTegic.value.DoubleValue
3.912

@<SCITEGIC>MOL_PROPERTY
Bond
SciTegic.value.DoubleValue
0.054

@<SCITEGIC>MOL_PROPERTY
Angle
SciTegic.value.DoubleValue
4.034

@<SCITEGIC>MOL_PROPERTY
Pdih
SciTegic.value.DoubleValue
9.702

@<SCITEGIC>MOL_PROPERTY
Idih
SciTegic.value.DoubleValue
0.000

@<SCITEGIC>MOL_PROPERTY
Tether
SciTegic.value.DoubleValue
0.000

@<TRIPOS>MOLECULE
guest-4_confgen4.mol2 : confsearch ligand conformer 755
          16          16           1
SMALL
USER_CHARGES
 
@<TRIPOS>ATOM
       1    C1      18.357927   17.683079   22.303621 C.3        1 MOL1        -0.1689
       2    H1      18.113334   16.689327   22.702856 H          1 MOL1         0.0830
       3    H2      17.441547   18.119016   21.881922 H          1 MOL1         0.0830
       4    C2      19.447140   17.626682   21.223731 C.3        1 MOL1        -0.1689
       5    H3      20.212835   16.892583   21.510943 H          1 MOL1         0.0830
       6    H4      19.048775   17.341661   20.240517 H          1 MOL1         0.0830
       7    C3      20.061439   19.038670   21.222058 C.3        1 MOL1        -0.1765
       8    H5      19.520475   19.674961   20.509615 H          1 MOL1         0.0830
       9    H6      21.116697   19.020144   20.918568 H          1 MOL1         0.0830
      10    C4      19.871276   19.602720   22.645253 C.3        1 MOL1         0.1214
      11    H7      19.402746   20.595751   22.582887 H          1 MOL1         0.0787
      12    C5      18.933688   18.621470   23.379972 C.3        1 MOL1        -0.1765
      13    H8      19.499954   18.030053   24.112332 H          1 MOL1         0.0830
      14    H9      18.136980   19.151143   23.918070 H          1 MOL1         0.0830
      15    O1      21.124431   19.678416   23.314408 O.3        1 MOL1        -0.5512
      16    H10     20.943370   20.030236   24.211608 H          1 MOL1         0.3776
@<TRIPOS>BOND
    1     1     2    1
    2     1     3    1
    3     1     4    1
    4     4     5    1
    5     4     6    1
    6     4     7    1
    7     7     8    1
    8     7     9    1
    9     7    10    1
   10    10    11    1
   11     1    12    1
   12    10    12    1
   13    12    13    1
   14    12    14    1
   15    10    15    1
   16    15    16    1
@<TRIPOS>SUBSTRUCTURE
       1 MOL1            1 RESIDUE      1      MOL     
@<SCITEGIC>MOL_PROPERTY
VConf Rank
SciTegic.value.IntegerValue
755

@<SCITEGIC>MOL_PROPERTY
Conf_Id
SciTegic.value.IntegerValue
33

@<SCITEGIC>MOL_PROPERTY
Delta U+W
SciTegic.value.DoubleValue
0.015

@<SCITEGIC>MOL_PROPERTY
U+W
SciTegic.value.DoubleValue
3.025

@<SCITEGIC>MOL_PROPERTY
Grad RMS
SciTegic.value.DoubleValue
0.000000

@<SCITEGIC>MOL_PROPERTY
U
SciTegic.value.DoubleValue
5.843

@<SCITEGIC>MOL_PROPERTY
W
SciTegic.value.DoubleValue
-2.819

@<SCITEGIC>MOL_PROPERTY
W(PB)
SciTegic.value.DoubleValue
-4.568

@<SCITEGIC>MOL_PROPERTY
W(SA)
SciTegic.value.DoubleValue
1.750

@<SCITEGIC>MOL_PROPERTY
Valence
SciTegic.value.DoubleValue
13.789

@<SCITEGIC>MOL_PROPERTY
Coulomb
SciTegic.value.DoubleValue
-8.574

@<SCITEGIC>MOL_PROPERTY
VdW
SciTegic.value.DoubleValue
0.628

@<SCITEGIC>MOL_PROPERTY
VdW6
SciTegic.value.DoubleValue
-3.284

@<SCITEGIC>MOL_PROPERTY
VdW12
SciTegic.value.DoubleValue
3.913

@<SCITEGIC>MOL_PROPERTY
Bond
SciTegic.value.DoubleValue
0.054

@<SCITEGIC>MOL_PROPERTY
Angle
SciTegic.value.DoubleValue
4.033

@<SCITEGIC>MOL_PROPERTY
Pdih
SciTegic.value.DoubleValue
9.702

@<SCITEGIC>MOL_PROPERTY
Idih
SciTegic.value.DoubleValue
0.000

@<SCITEGIC>MOL_PROPERTY
Tether
SciTegic.value.DoubleValue
0.000

@<TRIPOS>MOLECULE
guest-4_confgen4.mol2 : confsearch ligand conformer 756
          16          16           1
SMALL
USER_CHARGES
 
@<TRIPOS>ATOM
       1    C1      19.675173   18.561327   20.956433 C.3        1 MOL1        -0.1689
       2    H1      19.011992   17.914747   20.365372 H          1 MOL1         0.0830
       3    H2      20.406053   19.007337   20.268040 H          1 MOL1         0.0830
       4    C2      20.367346   17.733769   22.061451 C.3        1 MOL1        -0.1689
       5    H3      20.039974   16.686480   22.004522 H          1 MOL1         0.0830
       6    H4      21.460395   17.747721   21.951684 H          1 MOL1         0.0830
       7    C3      19.937000   18.354484   23.407539 C.3        1 MOL1        -0.1765
       8    H5      20.718113   19.040046   23.761783 H          1 MOL1         0.0830
       9    H6      19.781234   17.594958   24.185268 H          1 MOL1         0.0830
      10    C4      18.662670   19.158571   23.116819 C.3        1 MOL1         0.1214
      11    H7      18.543868   19.996356   23.818947 H          1 MOL1         0.0787
      12    C5      18.853536   19.651804   21.676247 C.3        1 MOL1        -0.1765
      13    H8      17.897163   19.851440   21.174749 H          1 MOL1         0.0830
      14    H9      19.424092   20.589781   21.693184 H          1 MOL1         0.0830
      15    O1      17.539850   18.290613   23.169094 O.3        1 MOL1        -0.5512
      16    H10     17.733292   17.584329   22.518783 H          1 MOL1         0.3776
@<TRIPOS>BOND
    1     1     2    1
    2     1     3    1
    3     1     4    1
    4     4     5    1
    5     4     6    1
    6     4     7    1
    7     7     8    1
    8     7     9    1
    9     7    10    1
   10    10    11    1
   11     1    12    1
   12    10    12    1
   13    12    13    1
   14    12    14    1
   15    10    15    1
   16    15    16    1
@<TRIPOS>SUBSTRUCTURE
       1 MOL1            1 RESIDUE      1      MOL     
@<SCITEGIC>MOL_PROPERTY
VConf Rank
SciTegic.value.IntegerValue
756

@<SCITEGIC>MOL_PROPERTY
Conf_Id
SciTegic.value.IntegerValue
20

@<SCITEGIC>MOL_PROPERTY
Delta U+W
SciTegic.value.DoubleValue
-0.483

@<SCITEGIC>MOL_PROPERTY
U+W
SciTegic.value.DoubleValue
2.527

@<SCITEGIC>MOL_PROPERTY
Grad RMS
SciTegic.value.DoubleValue
0.000000

@<SCITEGIC>MOL_PROPERTY
U
SciTegic.value.DoubleValue
4.508

@<SCITEGIC>MOL_PROPERTY
W
SciTegic.value.DoubleValue
-1.981

@<SCITEGIC>MOL_PROPERTY
W(PB)
SciTegic.value.DoubleValue
-3.712

@<SCITEGIC>MOL_PROPERTY
W(SA)
SciTegic.value.DoubleValue
1.732

@<SCITEGIC>MOL_PROPERTY
Valence
SciTegic.value.DoubleValue
14.705

@<SCITEGIC>MOL_PROPERTY
Coulomb
SciTegic.value.DoubleValue
-10.687

@<SCITEGIC>MOL_PROPERTY
VdW
SciTegic.value.DoubleValue
0.490

@<SCITEGIC>MOL_PROPERTY
VdW6
SciTegic.value.DoubleValue
-3.745

@<SCITEGIC>MOL_PROPERTY
VdW12
SciTegic.value.DoubleValue
4.235

@<SCITEGIC>MOL_PROPERTY
Bond
SciTegic.value.DoubleValue
0.068

@<SCITEGIC>MOL_PROPERTY
Angle
SciTegic.value.DoubleValue
3.901

@<SCITEGIC>MOL_PROPERTY
Pdih
SciTegic.value.DoubleValue
10.737

@<SCITEGIC>MOL_PROPERTY
Idih
SciTegic.value.DoubleValue
0.000

@<SCITEGIC>MOL_PROPERTY
Tether
SciTegic.value.DoubleValue
0.000

@<TRIPOS>MOLECULE
guest-4_confgen4.mol2 : confsearch ligand conformer 757
          16          16           1
SMALL
USER_CHARGES
 
@<TRIPOS>ATOM
       1    C1      19.558037   17.184617   22.759421 C.3        1 MOL1        -0.1689
       2    H1      18.677700   16.636211   22.396194 H          1 MOL1         0.0830
       3    H2      20.232668   16.468057   23.247334 H          1 MOL1         0.0830
       4    C2      19.110470   18.306596   23.706297 C.3        1 MOL1        -0.1689
       5    H3      18.287012   17.995328   24.363403 H          1 MOL1         0.0830
       6    H4      19.955081   18.616732   24.337227 H          1 MOL1         0.0830
       7    C3      18.708522   19.460679   22.769768 C.3        1 MOL1        -0.1765
       8    H5      18.861594   20.436922   23.247645 H          1 MOL1         0.0830
       9    H6      17.642651   19.370951   22.519463 H          1 MOL1         0.0830
      10    C4      19.570813   19.309810   21.498794 C.3        1 MOL1         0.1214
      11    H7      20.353688   20.082026   21.481278 H          1 MOL1         0.0787
      12    C5      20.230087   17.917703   21.583809 C.3        1 MOL1        -0.1765
      13    H8      20.133606   17.352901   20.646946 H          1 MOL1         0.0830
      14    H9      21.301184   18.040910   21.790330 H          1 MOL1         0.0830
      15    O1      18.753130   19.395363   20.337776 O.3        1 MOL1        -0.5512
      16    H10     18.353323   20.290728   20.340727 H          1 MOL1         0.3776
@<TRIPOS>BOND
    1     1     2    1
    2     1     3    1
    3     1     4    1
    4     4     5    1
    5     4     6    1
    6     4     7    1
    7     7     8    1
    8     7     9    1
    9     7    10    1
   10    10    11    1
   11     1    12    1
   12    10    12    1
   13    12    13    1
   14    12    14    1
   15    10    15    1
   16    15    16    1
@<TRIPOS>SUBSTRUCTURE
       1 MOL1            1 RESIDUE      1      MOL     
@<SCITEGIC>MOL_PROPERTY
VConf Rank
SciTegic.value.IntegerValue
757

@<SCITEGIC>MOL_PROPERTY
Conf_Id
SciTegic.value.IntegerValue
59

@<SCITEGIC>MOL_PROPERTY
Delta U+W
SciTegic.value.DoubleValue
0.000

@<SCITEGIC>MOL_PROPERTY
U+W
SciTegic.value.DoubleValue
3.010

@<SCITEGIC>MOL_PROPERTY
Grad RMS
SciTegic.value.DoubleValue
0.000000

@<SCITEGIC>MOL_PROPERTY
U
SciTegic.value.DoubleValue
5.843

@<SCITEGIC>MOL_PROPERTY
W
SciTegic.value.DoubleValue
-2.833

@<SCITEGIC>MOL_PROPERTY
W(PB)
SciTegic.value.DoubleValue
-4.568

@<SCITEGIC>MOL_PROPERTY
W(SA)
SciTegic.value.DoubleValue
1.735

@<SCITEGIC>MOL_PROPERTY
Valence
SciTegic.value.DoubleValue
13.789

@<SCITEGIC>MOL_PROPERTY
Coulomb
SciTegic.value.DoubleValue
-8.574

@<SCITEGIC>MOL_PROPERTY
VdW
SciTegic.value.DoubleValue
0.628

@<SCITEGIC>MOL_PROPERTY
VdW6
SciTegic.value.DoubleValue
-3.284

@<SCITEGIC>MOL_PROPERTY
VdW12
SciTegic.value.DoubleValue
3.912

@<SCITEGIC>MOL_PROPERTY
Bond
SciTegic.value.DoubleValue
0.054

@<SCITEGIC>MOL_PROPERTY
Angle
SciTegic.value.DoubleValue
4.034

@<SCITEGIC>MOL_PROPERTY
Pdih
SciTegic.value.DoubleValue
9.702

@<SCITEGIC>MOL_PROPERTY
Idih
SciTegic.value.DoubleValue
0.000

@<SCITEGIC>MOL_PROPERTY
Tether
SciTegic.value.DoubleValue
0.000

@<TRIPOS>MOLECULE
guest-4_confgen4.mol2 : confsearch ligand conformer 758
          16          16           1
SMALL
USER_CHARGES
 
@<TRIPOS>ATOM
       1    C1      19.556024   20.038442   22.167095 C.3        1 MOL1        -0.1689
       2    H1      20.178096   20.863968   22.538972 H          1 MOL1         0.0830
       3    H2      18.890009   20.434201   21.387722 H          1 MOL1         0.0830
       4    C2      18.720753   19.389719   23.279393 C.3        1 MOL1        -0.1689
       5    H3      19.320824   19.319738   24.197378 H          1 MOL1         0.0830
       6    H4      17.809582   19.959665   23.506487 H          1 MOL1         0.0830
       7    C3      18.413525   17.974873   22.755086 C.3        1 MOL1        -0.1765
       8    H5      17.474155   17.988324   22.187205 H          1 MOL1         0.0830
       9    H6      18.296564   17.255729   23.576774 H          1 MOL1         0.0830
      10    C4      19.569573   17.596821   21.806177 C.3        1 MOL1         0.1214
      11    H7      19.154953   17.254740   20.846703 H          1 MOL1         0.0787
      12    C5      20.397168   18.882327   21.595708 C.3        1 MOL1        -0.1765
      13    H8      21.346565   18.817988   22.144605 H          1 MOL1         0.0830
      14    H9      20.631045   19.042458   20.535281 H          1 MOL1         0.0830
      15    O1      20.376739   16.584331   22.395449 O.3        1 MOL1        -0.5512
      16    H10     21.097041   16.392588   21.758324 H          1 MOL1         0.3776
@<TRIPOS>BOND
    1     1     2    1
    2     1     3    1
    3     1     4    1
    4     4     5    1
    5     4     6    1
    6     4     7    1
    7     7     8    1
    8     7     9    1
    9     7    10    1
   10    10    11    1
   11     1    12    1
   12    10    12    1
   13    12    13    1
   14    12    14    1
   15    10    15    1
   16    15    16    1
@<TRIPOS>SUBSTRUCTURE
       1 MOL1            1 RESIDUE      1      MOL     
@<SCITEGIC>MOL_PROPERTY
VConf Rank
SciTegic.value.IntegerValue
758

@<SCITEGIC>MOL_PROPERTY
Conf_Id
SciTegic.value.IntegerValue
33

@<SCITEGIC>MOL_PROPERTY
Delta U+W
SciTegic.value.DoubleValue
0.015

@<SCITEGIC>MOL_PROPERTY
U+W
SciTegic.value.DoubleValue
3.025

@<SCITEGIC>MOL_PROPERTY
Grad RMS
SciTegic.value.DoubleValue
0.000000

@<SCITEGIC>MOL_PROPERTY
U
SciTegic.value.DoubleValue
5.843

@<SCITEGIC>MOL_PROPERTY
W
SciTegic.value.DoubleValue
-2.819

@<SCITEGIC>MOL_PROPERTY
W(PB)
SciTegic.value.DoubleValue
-4.568

@<SCITEGIC>MOL_PROPERTY
W(SA)
SciTegic.value.DoubleValue
1.750

@<SCITEGIC>MOL_PROPERTY
Valence
SciTegic.value.DoubleValue
13.789

@<SCITEGIC>MOL_PROPERTY
Coulomb
SciTegic.value.DoubleValue
-8.574

@<SCITEGIC>MOL_PROPERTY
VdW
SciTegic.value.DoubleValue
0.628

@<SCITEGIC>MOL_PROPERTY
VdW6
SciTegic.value.DoubleValue
-3.284

@<SCITEGIC>MOL_PROPERTY
VdW12
SciTegic.value.DoubleValue
3.913

@<SCITEGIC>MOL_PROPERTY
Bond
SciTegic.value.DoubleValue
0.054

@<SCITEGIC>MOL_PROPERTY
Angle
SciTegic.value.DoubleValue
4.033

@<SCITEGIC>MOL_PROPERTY
Pdih
SciTegic.value.DoubleValue
9.702

@<SCITEGIC>MOL_PROPERTY
Idih
SciTegic.value.DoubleValue
0.000

@<SCITEGIC>MOL_PROPERTY
Tether
SciTegic.value.DoubleValue
0.000

@<TRIPOS>MOLECULE
guest-4_confgen4.mol2 : confsearch ligand conformer 759
          16          16           1
SMALL
USER_CHARGES
 
@<TRIPOS>ATOM
       1    C1      18.549564   19.076525   23.196645 C.3        1 MOL1        -0.1689
       2    H1      19.037281   19.691960   23.965150 H          1 MOL1         0.0830
       3    H2      17.476589   19.040487   23.429933 H          1 MOL1         0.0830
       4    C2      19.174772   17.664488   23.179737 C.3        1 MOL1        -0.1689
       5    H3      19.964333   17.596208   23.940761 H          1 MOL1         0.0830
       6    H4      18.428600   16.889699   23.403186 H          1 MOL1         0.0830
       7    C3      19.773790   17.467916   21.770846 C.3        1 MOL1        -0.1765
       8    H5      19.067365   16.904271   21.147236 H          1 MOL1         0.0830
       9    H6      20.718524   16.908523   21.794551 H          1 MOL1         0.0830
      10    C4      19.945793   18.874559   21.181979 C.3        1 MOL1         0.1214
      11    H7      19.890577   18.863035   20.083889 H          1 MOL1         0.0787
      12    C5      18.793183   19.679711   21.796940 C.3        1 MOL1        -0.1765
      13    H8      19.013046   20.754818   21.839483 H          1 MOL1         0.0830
      14    H9      17.895575   19.546465   21.178744 H          1 MOL1         0.0830
      15    O1      21.182258   19.417570   21.621410 O.3        1 MOL1        -0.5512
      16    H10     21.140504   19.387527   22.599427 H          1 MOL1         0.3776
@<TRIPOS>BOND
    1     1     2    1
    2     1     3    1
    3     1     4    1
    4     4     5    1
    5     4     6    1
    6     4     7    1
    7     7     8    1
    8     7     9    1
    9     7    10    1
   10    10    11    1
   11     1    12    1
   12    10    12    1
   13    12    13    1
   14    12    14    1
   15    10    15    1
   16    15    16    1
@<TRIPOS>SUBSTRUCTURE
       1 MOL1            1 RESIDUE      1      MOL     
@<SCITEGIC>MOL_PROPERTY
VConf Rank
SciTegic.value.IntegerValue
759

@<SCITEGIC>MOL_PROPERTY
Conf_Id
SciTegic.value.IntegerValue
20

@<SCITEGIC>MOL_PROPERTY
Delta U+W
SciTegic.value.DoubleValue
-0.483

@<SCITEGIC>MOL_PROPERTY
U+W
SciTegic.value.DoubleValue
2.527

@<SCITEGIC>MOL_PROPERTY
Grad RMS
SciTegic.value.DoubleValue
0.000000

@<SCITEGIC>MOL_PROPERTY
U
SciTegic.value.DoubleValue
4.508

@<SCITEGIC>MOL_PROPERTY
W
SciTegic.value.DoubleValue
-1.981

@<SCITEGIC>MOL_PROPERTY
W(PB)
SciTegic.value.DoubleValue
-3.712

@<SCITEGIC>MOL_PROPERTY
W(SA)
SciTegic.value.DoubleValue
1.732

@<SCITEGIC>MOL_PROPERTY
Valence
SciTegic.value.DoubleValue
14.705

@<SCITEGIC>MOL_PROPERTY
Coulomb
SciTegic.value.DoubleValue
-10.687

@<SCITEGIC>MOL_PROPERTY
VdW
SciTegic.value.DoubleValue
0.490

@<SCITEGIC>MOL_PROPERTY
VdW6
SciTegic.value.DoubleValue
-3.745

@<SCITEGIC>MOL_PROPERTY
VdW12
SciTegic.value.DoubleValue
4.235

@<SCITEGIC>MOL_PROPERTY
Bond
SciTegic.value.DoubleValue
0.068

@<SCITEGIC>MOL_PROPERTY
Angle
SciTegic.value.DoubleValue
3.901

@<SCITEGIC>MOL_PROPERTY
Pdih
SciTegic.value.DoubleValue
10.737

@<SCITEGIC>MOL_PROPERTY
Idih
SciTegic.value.DoubleValue
0.000

@<SCITEGIC>MOL_PROPERTY
Tether
SciTegic.value.DoubleValue
0.000

@<TRIPOS>MOLECULE
guest-4_confgen4.mol2 : confsearch ligand conformer 760
          16          16           1
SMALL
USER_CHARGES
 
@<TRIPOS>ATOM
       1    C1      18.332311   18.739677   21.300723 C.3        1 MOL1        -0.1689
       2    H1      17.977021   17.726361   21.066979 H          1 MOL1         0.0830
       3    H2      17.733617   19.456243   20.722153 H          1 MOL1         0.0830
       4    C2      19.831855   18.843303   20.990308 C.3        1 MOL1        -0.1689
       5    H3      20.105670   18.311533   20.068893 H          1 MOL1         0.0830
       6    H4      20.113194   19.899230   20.874153 H          1 MOL1         0.0830
       7    C3      20.522140   18.254067   22.234038 C.3        1 MOL1        -0.1765
       8    H5      21.510845   18.703003   22.394549 H          1 MOL1         0.0830
       9    H6      20.660917   17.173280   22.094662 H          1 MOL1         0.0830
      10    C4      19.577146   18.522761   23.424193 C.3        1 MOL1         0.1214
      11    H7      19.985268   19.325950   24.054940 H          1 MOL1         0.0787
      12    C5      18.235205   18.982897   22.818137 C.3        1 MOL1        -0.1765
      13    H8      17.377179   18.457019   23.257757 H          1 MOL1         0.0830
      14    H9      18.104062   20.055466   23.011729 H          1 MOL1         0.0830
      15    O1      19.391115   17.333010   24.181672 O.3        1 MOL1        -0.5512
      16    H10     20.272020   17.081734   24.531528 H          1 MOL1         0.3776
@<TRIPOS>BOND
    1     1     2    1
    2     1     3    1
    3     1     4    1
    4     4     5    1
    5     4     6    1
    6     4     7    1
    7     7     8    1
    8     7     9    1
    9     7    10    1
   10    10    11    1
   11     1    12    1
   12    10    12    1
   13    12    13    1
   14    12    14    1
   15    10    15    1
   16    15    16    1
@<TRIPOS>SUBSTRUCTURE
       1 MOL1            1 RESIDUE      1      MOL     
@<SCITEGIC>MOL_PROPERTY
VConf Rank
SciTegic.value.IntegerValue
760

@<SCITEGIC>MOL_PROPERTY
Conf_Id
SciTegic.value.IntegerValue
59

@<SCITEGIC>MOL_PROPERTY
Delta U+W
SciTegic.value.DoubleValue
0.000

@<SCITEGIC>MOL_PROPERTY
U+W
SciTegic.value.DoubleValue
3.010

@<SCITEGIC>MOL_PROPERTY
Grad RMS
SciTegic.value.DoubleValue
0.000000

@<SCITEGIC>MOL_PROPERTY
U
SciTegic.value.DoubleValue
5.843

@<SCITEGIC>MOL_PROPERTY
W
SciTegic.value.DoubleValue
-2.833

@<SCITEGIC>MOL_PROPERTY
W(PB)
SciTegic.value.DoubleValue
-4.568

@<SCITEGIC>MOL_PROPERTY
W(SA)
SciTegic.value.DoubleValue
1.735

@<SCITEGIC>MOL_PROPERTY
Valence
SciTegic.value.DoubleValue
13.789

@<SCITEGIC>MOL_PROPERTY
Coulomb
SciTegic.value.DoubleValue
-8.574

@<SCITEGIC>MOL_PROPERTY
VdW
SciTegic.value.DoubleValue
0.628

@<SCITEGIC>MOL_PROPERTY
VdW6
SciTegic.value.DoubleValue
-3.284

@<SCITEGIC>MOL_PROPERTY
VdW12
SciTegic.value.DoubleValue
3.912

@<SCITEGIC>MOL_PROPERTY
Bond
SciTegic.value.DoubleValue
0.054

@<SCITEGIC>MOL_PROPERTY
Angle
SciTegic.value.DoubleValue
4.034

@<SCITEGIC>MOL_PROPERTY
Pdih
SciTegic.value.DoubleValue
9.702

@<SCITEGIC>MOL_PROPERTY
Idih
SciTegic.value.DoubleValue
0.000

@<SCITEGIC>MOL_PROPERTY
Tether
SciTegic.value.DoubleValue
0.000

@<TRIPOS>MOLECULE
guest-4_confgen4.mol2 : confsearch ligand conformer 761
          16          16           1
SMALL
USER_CHARGES
 
@<TRIPOS>ATOM
       1    C1      20.018268   19.392077   21.228536 C.3        1 MOL1        -0.1689
       2    H1      20.207433   19.315177   20.149156 H          1 MOL1         0.0830
       3    H2      20.240551   20.421049   21.543857 H          1 MOL1         0.0830
       4    C2      20.869388   18.407529   22.042162 C.3        1 MOL1        -0.1689
       5    H3      20.928308   17.446525   21.512370 H          1 MOL1         0.0830
       6    H4      21.892097   18.773261   22.206324 H          1 MOL1         0.0830
       7    C3      20.092607   18.223631   23.358927 C.3        1 MOL1        -0.1765
       8    H5      20.426321   18.970540   24.090942 H          1 MOL1         0.0830
       9    H6      20.263981   17.230003   23.794075 H          1 MOL1         0.0830
      10    C4      18.605661   18.470535   23.030553 C.3        1 MOL1         0.1214
      11    H7      18.194831   19.206241   23.737288 H          1 MOL1         0.0787
      12    C5      18.565729   19.037070   21.595569 C.3        1 MOL1        -0.1765
      13    H8      18.189729   18.277445   20.896730 H          1 MOL1         0.0830
      14    H9      17.908796   19.913686   21.526073 H          1 MOL1         0.0830
      15    O1      17.879366   17.249040   23.096450 O.3        1 MOL1        -0.5512
      16    H10     16.949550   17.462103   22.869345 H          1 MOL1         0.3776
@<TRIPOS>BOND
    1     1     2    1
    2     1     3    1
    3     1     4    1
    4     4     5    1
    5     4     6    1
    6     4     7    1
    7     7     8    1
    8     7     9    1
    9     7    10    1
   10    10    11    1
   11     1    12    1
   12    10    12    1
   13    12    13    1
   14    12    14    1
   15    10    15    1
   16    15    16    1
@<TRIPOS>SUBSTRUCTURE
       1 MOL1            1 RESIDUE      1      MOL     
@<SCITEGIC>MOL_PROPERTY
VConf Rank
SciTegic.value.IntegerValue
761

@<SCITEGIC>MOL_PROPERTY
Conf_Id
SciTegic.value.IntegerValue
33

@<SCITEGIC>MOL_PROPERTY
Delta U+W
SciTegic.value.DoubleValue
0.015

@<SCITEGIC>MOL_PROPERTY
U+W
SciTegic.value.DoubleValue
3.025

@<SCITEGIC>MOL_PROPERTY
Grad RMS
SciTegic.value.DoubleValue
0.000000

@<SCITEGIC>MOL_PROPERTY
U
SciTegic.value.DoubleValue
5.843

@<SCITEGIC>MOL_PROPERTY
W
SciTegic.value.DoubleValue
-2.819

@<SCITEGIC>MOL_PROPERTY
W(PB)
SciTegic.value.DoubleValue
-4.568

@<SCITEGIC>MOL_PROPERTY
W(SA)
SciTegic.value.DoubleValue
1.750

@<SCITEGIC>MOL_PROPERTY
Valence
SciTegic.value.DoubleValue
13.789

@<SCITEGIC>MOL_PROPERTY
Coulomb
SciTegic.value.DoubleValue
-8.574

@<SCITEGIC>MOL_PROPERTY
VdW
SciTegic.value.DoubleValue
0.628

@<SCITEGIC>MOL_PROPERTY
VdW6
SciTegic.value.DoubleValue
-3.284

@<SCITEGIC>MOL_PROPERTY
VdW12
SciTegic.value.DoubleValue
3.913

@<SCITEGIC>MOL_PROPERTY
Bond
SciTegic.value.DoubleValue
0.054

@<SCITEGIC>MOL_PROPERTY
Angle
SciTegic.value.DoubleValue
4.033

@<SCITEGIC>MOL_PROPERTY
Pdih
SciTegic.value.DoubleValue
9.702

@<SCITEGIC>MOL_PROPERTY
Idih
SciTegic.value.DoubleValue
0.000

@<SCITEGIC>MOL_PROPERTY
Tether
SciTegic.value.DoubleValue
0.000

@<TRIPOS>MOLECULE
guest-4_confgen4.mol2 : confsearch ligand conformer 762
          16          16           1
SMALL
USER_CHARGES
 
@<TRIPOS>ATOM
       1    C1      19.573065   17.292378   22.359336 C.3        1 MOL1        -0.1689
       2    H1      20.573074   17.009214   22.715745 H          1 MOL1         0.0830
       3    H2      19.001200   16.367652   22.201699 H          1 MOL1         0.0830
       4    C2      19.692785   18.114897   21.057740 C.3        1 MOL1        -0.1689
       5    H3      20.750661   18.228906   20.783644 H          1 MOL1         0.0830
       6    H4      19.182658   17.620909   20.219441 H          1 MOL1         0.0830
       7    C3      19.066761   19.494574   21.352735 C.3        1 MOL1        -0.1765
       8    H5      18.030998   19.512834   20.988756 H          1 MOL1         0.0830
       9    H6      19.608961   20.311888   20.858748 H          1 MOL1         0.0830
      10    C4      19.060763   19.640831   22.880336 C.3        1 MOL1         0.1214
      11    H7      18.247686   20.298140   23.220679 H          1 MOL1         0.0787
      12    C5      18.878082   18.205494   23.391602 C.3        1 MOL1        -0.1765
      13    H8      19.280393   18.070316   24.404458 H          1 MOL1         0.0830
      14    H9      17.805591   17.972429   23.424248 H          1 MOL1         0.0830
      15    O1      20.322509   20.132630   23.308047 O.3        1 MOL1        -0.5512
      16    H10     20.976565   19.490672   22.962701 H          1 MOL1         0.3776
@<TRIPOS>BOND
    1     1     2    1
    2     1     3    1
    3     1     4    1
    4     4     5    1
    5     4     6    1
    6     4     7    1
    7     7     8    1
    8     7     9    1
    9     7    10    1
   10    10    11    1
   11     1    12    1
   12    10    12    1
   13    12    13    1
   14    12    14    1
   15    10    15    1
   16    15    16    1
@<TRIPOS>SUBSTRUCTURE
       1 MOL1            1 RESIDUE      1      MOL     
@<SCITEGIC>MOL_PROPERTY
VConf Rank
SciTegic.value.IntegerValue
762

@<SCITEGIC>MOL_PROPERTY
Conf_Id
SciTegic.value.IntegerValue
20

@<SCITEGIC>MOL_PROPERTY
Delta U+W
SciTegic.value.DoubleValue
-0.483

@<SCITEGIC>MOL_PROPERTY
U+W
SciTegic.value.DoubleValue
2.527

@<SCITEGIC>MOL_PROPERTY
Grad RMS
SciTegic.value.DoubleValue
0.000000

@<SCITEGIC>MOL_PROPERTY
U
SciTegic.value.DoubleValue
4.508

@<SCITEGIC>MOL_PROPERTY
W
SciTegic.value.DoubleValue
-1.981

@<SCITEGIC>MOL_PROPERTY
W(PB)
SciTegic.value.DoubleValue
-3.712

@<SCITEGIC>MOL_PROPERTY
W(SA)
SciTegic.value.DoubleValue
1.732

@<SCITEGIC>MOL_PROPERTY
Valence
SciTegic.value.DoubleValue
14.705

@<SCITEGIC>MOL_PROPERTY
Coulomb
SciTegic.value.DoubleValue
-10.687

@<SCITEGIC>MOL_PROPERTY
VdW
SciTegic.value.DoubleValue
0.490

@<SCITEGIC>MOL_PROPERTY
VdW6
SciTegic.value.DoubleValue
-3.745

@<SCITEGIC>MOL_PROPERTY
VdW12
SciTegic.value.DoubleValue
4.235

@<SCITEGIC>MOL_PROPERTY
Bond
SciTegic.value.DoubleValue
0.068

@<SCITEGIC>MOL_PROPERTY
Angle
SciTegic.value.DoubleValue
3.901

@<SCITEGIC>MOL_PROPERTY
Pdih
SciTegic.value.DoubleValue
10.737

@<SCITEGIC>MOL_PROPERTY
Idih
SciTegic.value.DoubleValue
0.000

@<SCITEGIC>MOL_PROPERTY
Tether
SciTegic.value.DoubleValue
0.000

@<TRIPOS>MOLECULE
guest-4_confgen4.mol2 : confsearch ligand conformer 763
          16          16           1
SMALL
USER_CHARGES
 
@<TRIPOS>ATOM
       1    C1      19.512744   17.930541   23.618366 C.3        1 MOL1        -0.1689
       2    H1      20.533769   17.524116   23.619866 H          1 MOL1         0.0830
       3    H2      19.067997   17.747343   24.605930 H          1 MOL1         0.0830
       4    C2      18.704717   17.287132   22.483093 C.3        1 MOL1        -0.1689
       5    H3      18.922023   16.216240   22.370274 H          1 MOL1         0.0830
       6    H4      17.630252   17.400409   22.683887 H          1 MOL1         0.0830
       7    C3      19.089178   18.097985   21.231989 C.3        1 MOL1        -0.1765
       8    H5      18.271674   18.117471   20.499764 H          1 MOL1         0.0830
       9    H6      19.961208   17.633433   20.751844 H          1 MOL1         0.0830
      10    C4      19.442967   19.516905   21.725122 C.3        1 MOL1         0.1214
      11    H7      18.639302   20.219023   21.459282 H          1 MOL1         0.0787
      12    C5      19.554292   19.427815   23.261190 C.3        1 MOL1        -0.1765
      13    H8      20.465133   19.909066   23.641699 H          1 MOL1         0.0830
      14    H9      18.693684   19.938323   23.712650 H          1 MOL1         0.0830
      15    O1      20.682620   19.935794   21.166837 O.3        1 MOL1        -0.5512
      16    H10     20.558007   19.963940   20.194617 H          1 MOL1         0.3776
@<TRIPOS>BOND
    1     1     2    1
    2     1     3    1
    3     1     4    1
    4     4     5    1
    5     4     6    1
    6     4     7    1
    7     7     8    1
    8     7     9    1
    9     7    10    1
   10    10    11    1
   11     1    12    1
   12    10    12    1
   13    12    13    1
   14    12    14    1
   15    10    15    1
   16    15    16    1
@<TRIPOS>SUBSTRUCTURE
       1 MOL1            1 RESIDUE      1      MOL     
@<SCITEGIC>MOL_PROPERTY
VConf Rank
SciTegic.value.IntegerValue
763

@<SCITEGIC>MOL_PROPERTY
Conf_Id
SciTegic.value.IntegerValue
59

@<SCITEGIC>MOL_PROPERTY
Delta U+W
SciTegic.value.DoubleValue
0.000

@<SCITEGIC>MOL_PROPERTY
U+W
SciTegic.value.DoubleValue
3.010

@<SCITEGIC>MOL_PROPERTY
Grad RMS
SciTegic.value.DoubleValue
0.000000

@<SCITEGIC>MOL_PROPERTY
U
SciTegic.value.DoubleValue
5.843

@<SCITEGIC>MOL_PROPERTY
W
SciTegic.value.DoubleValue
-2.833

@<SCITEGIC>MOL_PROPERTY
W(PB)
SciTegic.value.DoubleValue
-4.568

@<SCITEGIC>MOL_PROPERTY
W(SA)
SciTegic.value.DoubleValue
1.735

@<SCITEGIC>MOL_PROPERTY
Valence
SciTegic.value.DoubleValue
13.789

@<SCITEGIC>MOL_PROPERTY
Coulomb
SciTegic.value.DoubleValue
-8.574

@<SCITEGIC>MOL_PROPERTY
VdW
SciTegic.value.DoubleValue
0.628

@<SCITEGIC>MOL_PROPERTY
VdW6
SciTegic.value.DoubleValue
-3.284

@<SCITEGIC>MOL_PROPERTY
VdW12
SciTegic.value.DoubleValue
3.912

@<SCITEGIC>MOL_PROPERTY
Bond
SciTegic.value.DoubleValue
0.054

@<SCITEGIC>MOL_PROPERTY
Angle
SciTegic.value.DoubleValue
4.034

@<SCITEGIC>MOL_PROPERTY
Pdih
SciTegic.value.DoubleValue
9.702

@<SCITEGIC>MOL_PROPERTY
Idih
SciTegic.value.DoubleValue
0.000

@<SCITEGIC>MOL_PROPERTY
Tether
SciTegic.value.DoubleValue
0.000

@<TRIPOS>MOLECULE
guest-4_confgen4.mol2 : confsearch ligand conformer 764
          16          16           1
SMALL
USER_CHARGES
 
@<TRIPOS>ATOM
       1    C1      19.655248   20.020636   22.103467 C.3        1 MOL1        -0.1689
       2    H1      19.476684   20.793222   21.343214 H          1 MOL1         0.0830
       3    H2      19.993756   20.516213   23.024031 H          1 MOL1         0.0830
       4    C2      20.702659   18.991907   21.655836 C.3        1 MOL1        -0.1689
       5    H3      20.560652   18.761291   20.590787 H          1 MOL1         0.0830
       6    H4      21.730947   19.351996   21.795845 H          1 MOL1         0.0830
       7    C3      20.398354   17.740214   22.499483 C.3        1 MOL1        -0.1765
       8    H5      20.972377   17.777603   23.434461 H          1 MOL1         0.0830
       9    H6      20.679312   16.818930   21.971925 H          1 MOL1         0.0830
      10    C4      18.892613   17.788941   22.831399 C.3        1 MOL1         0.1214
      11    H7      18.755217   17.662498   23.915214 H          1 MOL1         0.0787
      12    C5      18.396311   19.183618   22.395172 C.3        1 MOL1        -0.1765
      13    H8      17.792983   19.104092   21.480594 H          1 MOL1         0.0830
      14    H9      17.774520   19.650992   23.169629 H          1 MOL1         0.0830
      15    O1      18.199149   16.774674   22.114274 O.3        1 MOL1        -0.5512
      16    H10     17.251835   16.859084   22.353025 H          1 MOL1         0.3776
@<TRIPOS>BOND
    1     1     2    1
    2     1     3    1
    3     1     4    1
    4     4     5    1
    5     4     6    1
    6     4     7    1
    7     7     8    1
    8     7     9    1
    9     7    10    1
   10    10    11    1
   11     1    12    1
   12    10    12    1
   13    12    13    1
   14    12    14    1
   15    10    15    1
   16    15    16    1
@<TRIPOS>SUBSTRUCTURE
       1 MOL1            1 RESIDUE      1      MOL     
@<SCITEGIC>MOL_PROPERTY
VConf Rank
SciTegic.value.IntegerValue
764

@<SCITEGIC>MOL_PROPERTY
Conf_Id
SciTegic.value.IntegerValue
33

@<SCITEGIC>MOL_PROPERTY
Delta U+W
SciTegic.value.DoubleValue
0.015

@<SCITEGIC>MOL_PROPERTY
U+W
SciTegic.value.DoubleValue
3.025

@<SCITEGIC>MOL_PROPERTY
Grad RMS
SciTegic.value.DoubleValue
0.000000

@<SCITEGIC>MOL_PROPERTY
U
SciTegic.value.DoubleValue
5.843

@<SCITEGIC>MOL_PROPERTY
W
SciTegic.value.DoubleValue
-2.819

@<SCITEGIC>MOL_PROPERTY
W(PB)
SciTegic.value.DoubleValue
-4.568

@<SCITEGIC>MOL_PROPERTY
W(SA)
SciTegic.value.DoubleValue
1.750

@<SCITEGIC>MOL_PROPERTY
Valence
SciTegic.value.DoubleValue
13.789

@<SCITEGIC>MOL_PROPERTY
Coulomb
SciTegic.value.DoubleValue
-8.574

@<SCITEGIC>MOL_PROPERTY
VdW
SciTegic.value.DoubleValue
0.628

@<SCITEGIC>MOL_PROPERTY
VdW6
SciTegic.value.DoubleValue
-3.284

@<SCITEGIC>MOL_PROPERTY
VdW12
SciTegic.value.DoubleValue
3.913

@<SCITEGIC>MOL_PROPERTY
Bond
SciTegic.value.DoubleValue
0.054

@<SCITEGIC>MOL_PROPERTY
Angle
SciTegic.value.DoubleValue
4.033

@<SCITEGIC>MOL_PROPERTY
Pdih
SciTegic.value.DoubleValue
9.702

@<SCITEGIC>MOL_PROPERTY
Idih
SciTegic.value.DoubleValue
0.000

@<SCITEGIC>MOL_PROPERTY
Tether
SciTegic.value.DoubleValue
0.000

@<TRIPOS>MOLECULE
guest-4_confgen4.mol2 : confsearch ligand conformer 765
          16          16           1
SMALL
USER_CHARGES
 
@<TRIPOS>ATOM
       1    C1      18.488250   19.552639   22.581776 C.3        1 MOL1        -0.1689
       2    H1      18.769676   20.567247   22.267773 H          1 MOL1         0.0830
       3    H2      17.508496   19.616044   23.074787 H          1 MOL1         0.0830
       4    C2      19.564476   18.978466   23.528920 C.3        1 MOL1        -0.1689
       5    H3      20.366226   19.715577   23.674148 H          1 MOL1         0.0830
       6    H4      19.147458   18.740561   24.517098 H          1 MOL1         0.0830
       7    C3      20.121466   17.713115   22.842563 C.3        1 MOL1        -0.1765
       8    H5      19.624717   16.824190   23.253259 H          1 MOL1         0.0830
       9    H6      21.201789   17.595159   23.000658 H          1 MOL1         0.0830
      10    C4      19.762252   17.842643   21.356232 C.3        1 MOL1         0.1214
      11    H7      19.658358   16.858122   20.877789 H          1 MOL1         0.0787
      12    C5      18.434453   18.611992   21.359218 C.3        1 MOL1        -0.1765
      13    H8      18.267866   19.157880   20.420997 H          1 MOL1         0.0830
      14    H9      17.609099   17.898236   21.481542 H          1 MOL1         0.0830
      15    O1      20.752852   18.621938   20.701849 O.3        1 MOL1        -0.5512
      16    H10     20.774319   19.469955   21.191305 H          1 MOL1         0.3776
@<TRIPOS>BOND
    1     1     2    1
    2     1     3    1
    3     1     4    1
    4     4     5    1
    5     4     6    1
    6     4     7    1
    7     7     8    1
    8     7     9    1
    9     7    10    1
   10    10    11    1
   11     1    12    1
   12    10    12    1
   13    12    13    1
   14    12    14    1
   15    10    15    1
   16    15    16    1
@<TRIPOS>SUBSTRUCTURE
       1 MOL1            1 RESIDUE      1      MOL     
@<SCITEGIC>MOL_PROPERTY
VConf Rank
SciTegic.value.IntegerValue
765

@<SCITEGIC>MOL_PROPERTY
Conf_Id
SciTegic.value.IntegerValue
20

@<SCITEGIC>MOL_PROPERTY
Delta U+W
SciTegic.value.DoubleValue
-0.483

@<SCITEGIC>MOL_PROPERTY
U+W
SciTegic.value.DoubleValue
2.527

@<SCITEGIC>MOL_PROPERTY
Grad RMS
SciTegic.value.DoubleValue
0.000000

@<SCITEGIC>MOL_PROPERTY
U
SciTegic.value.DoubleValue
4.508

@<SCITEGIC>MOL_PROPERTY
W
SciTegic.value.DoubleValue
-1.981

@<SCITEGIC>MOL_PROPERTY
W(PB)
SciTegic.value.DoubleValue
-3.712

@<SCITEGIC>MOL_PROPERTY
W(SA)
SciTegic.value.DoubleValue
1.732

@<SCITEGIC>MOL_PROPERTY
Valence
SciTegic.value.DoubleValue
14.705

@<SCITEGIC>MOL_PROPERTY
Coulomb
SciTegic.value.DoubleValue
-10.687

@<SCITEGIC>MOL_PROPERTY
VdW
SciTegic.value.DoubleValue
0.490

@<SCITEGIC>MOL_PROPERTY
VdW6
SciTegic.value.DoubleValue
-3.745

@<SCITEGIC>MOL_PROPERTY
VdW12
SciTegic.value.DoubleValue
4.235

@<SCITEGIC>MOL_PROPERTY
Bond
SciTegic.value.DoubleValue
0.068

@<SCITEGIC>MOL_PROPERTY
Angle
SciTegic.value.DoubleValue
3.901

@<SCITEGIC>MOL_PROPERTY
Pdih
SciTegic.value.DoubleValue
10.737

@<SCITEGIC>MOL_PROPERTY
Idih
SciTegic.value.DoubleValue
0.000

@<SCITEGIC>MOL_PROPERTY
Tether
SciTegic.value.DoubleValue
0.000

@<TRIPOS>MOLECULE
guest-4_confgen4.mol2 : confsearch ligand conformer 766
          16          16           1
SMALL
USER_CHARGES
 
@<TRIPOS>ATOM
       1    C1      18.768035   18.294516   21.011016 C.3        1 MOL1        -0.1689
       2    H1      18.085971   17.447901   21.171355 H          1 MOL1         0.0830
       3    H2      18.675050   18.618075   19.965403 H          1 MOL1         0.0830
       4    C2      20.200449   17.876120   21.369990 C.3        1 MOL1        -0.1689
       5    H3      20.431026   16.852684   21.044148 H          1 MOL1         0.0830
       6    H4      20.916012   18.558716   20.890763 H          1 MOL1         0.0830
       7    C3      20.273836   18.034521   22.899722 C.3        1 MOL1        -0.1765
       8    H5      21.293281   18.272322   23.229917 H          1 MOL1         0.0830
       9    H6      19.975899   17.091161   23.377310 H          1 MOL1         0.0830
      10    C4      19.281584   19.157427   23.268768 C.3        1 MOL1         0.1214
      11    H7      19.830679   20.072290   23.535299 H          1 MOL1         0.0787
      12    C5      18.434663   19.420946   22.006581 C.3        1 MOL1        -0.1765
      13    H8      17.359525   19.460706   22.226851 H          1 MOL1         0.0830
      14    H9      18.723375   20.389270   21.577540 H          1 MOL1         0.0830
      15    O1      18.445966   18.740969   24.342172 O.3        1 MOL1        -0.5512
      16    H10     19.034214   18.577911   25.109575 H          1 MOL1         0.3776
@<TRIPOS>BOND
    1     1     2    1
    2     1     3    1
    3     1     4    1
    4     4     5    1
    5     4     6    1
    6     4     7    1
    7     7     8    1
    8     7     9    1
    9     7    10    1
   10    10    11    1
   11     1    12    1
   12    10    12    1
   13    12    13    1
   14    12    14    1
   15    10    15    1
   16    15    16    1
@<TRIPOS>SUBSTRUCTURE
       1 MOL1            1 RESIDUE      1      MOL     
@<SCITEGIC>MOL_PROPERTY
VConf Rank
SciTegic.value.IntegerValue
766

@<SCITEGIC>MOL_PROPERTY
Conf_Id
SciTegic.value.IntegerValue
59

@<SCITEGIC>MOL_PROPERTY
Delta U+W
SciTegic.value.DoubleValue
0.000

@<SCITEGIC>MOL_PROPERTY
U+W
SciTegic.value.DoubleValue
3.010

@<SCITEGIC>MOL_PROPERTY
Grad RMS
SciTegic.value.DoubleValue
0.000000

@<SCITEGIC>MOL_PROPERTY
U
SciTegic.value.DoubleValue
5.843

@<SCITEGIC>MOL_PROPERTY
W
SciTegic.value.DoubleValue
-2.833

@<SCITEGIC>MOL_PROPERTY
W(PB)
SciTegic.value.DoubleValue
-4.568

@<SCITEGIC>MOL_PROPERTY
W(SA)
SciTegic.value.DoubleValue
1.735

@<SCITEGIC>MOL_PROPERTY
Valence
SciTegic.value.DoubleValue
13.789

@<SCITEGIC>MOL_PROPERTY
Coulomb
SciTegic.value.DoubleValue
-8.574

@<SCITEGIC>MOL_PROPERTY
VdW
SciTegic.value.DoubleValue
0.628

@<SCITEGIC>MOL_PROPERTY
VdW6
SciTegic.value.DoubleValue
-3.284

@<SCITEGIC>MOL_PROPERTY
VdW12
SciTegic.value.DoubleValue
3.912

@<SCITEGIC>MOL_PROPERTY
Bond
SciTegic.value.DoubleValue
0.054

@<SCITEGIC>MOL_PROPERTY
Angle
SciTegic.value.DoubleValue
4.034

@<SCITEGIC>MOL_PROPERTY
Pdih
SciTegic.value.DoubleValue
9.702

@<SCITEGIC>MOL_PROPERTY
Idih
SciTegic.value.DoubleValue
0.000

@<SCITEGIC>MOL_PROPERTY
Tether
SciTegic.value.DoubleValue
0.000

@<TRIPOS>MOLECULE
guest-4_confgen4.mol2 : confsearch ligand conformer 767
          16          16           1
SMALL
USER_CHARGES
 
@<TRIPOS>ATOM
       1    C1      18.308687   18.850782   23.126905 C.3        1 MOL1        -0.1689
       2    H1      17.901982   18.527184   24.094703 H          1 MOL1         0.0830
       3    H2      17.693051   19.682153   22.756183 H          1 MOL1         0.0830
       4    C2      18.323720   17.717835   22.091563 C.3        1 MOL1        -0.1689
       5    H3      18.616565   16.777416   22.578935 H          1 MOL1         0.0830
       6    H4      17.343818   17.569346   21.617869 H          1 MOL1         0.0830
       7    C3      19.408072   18.134149   21.080653 C.3        1 MOL1        -0.1765
       8    H5      18.954825   18.732691   20.279778 H          1 MOL1         0.0830
       9    H6      19.884262   17.260553   20.615797 H          1 MOL1         0.0830
      10    C4      20.416844   19.009080   21.853100 C.3        1 MOL1         0.1214
      11    H7      20.573949   19.950668   21.306978 H          1 MOL1         0.0787
      12    C5      19.778956   19.296380   23.228707 C.3        1 MOL1        -0.1765
      13    H8      20.282247   18.712223   24.011165 H          1 MOL1         0.0830
      14    H9      19.858701   20.357854   23.496588 H          1 MOL1         0.0830
      15    O1      21.645753   18.311573   22.017916 O.3        1 MOL1        -0.5512
      16    H10     22.241185   18.906024   22.521520 H          1 MOL1         0.3776
@<TRIPOS>BOND
    1     1     2    1
    2     1     3    1
    3     1     4    1
    4     4     5    1
    5     4     6    1
    6     4     7    1
    7     7     8    1
    8     7     9    1
    9     7    10    1
   10    10    11    1
   11     1    12    1
   12    10    12    1
   13    12    13    1
   14    12    14    1
   15    10    15    1
   16    15    16    1
@<TRIPOS>SUBSTRUCTURE
       1 MOL1            1 RESIDUE      1      MOL     
@<SCITEGIC>MOL_PROPERTY
VConf Rank
SciTegic.value.IntegerValue
767

@<SCITEGIC>MOL_PROPERTY
Conf_Id
SciTegic.value.IntegerValue
33

@<SCITEGIC>MOL_PROPERTY
Delta U+W
SciTegic.value.DoubleValue
0.015

@<SCITEGIC>MOL_PROPERTY
U+W
SciTegic.value.DoubleValue
3.025

@<SCITEGIC>MOL_PROPERTY
Grad RMS
SciTegic.value.DoubleValue
0.000000

@<SCITEGIC>MOL_PROPERTY
U
SciTegic.value.DoubleValue
5.843

@<SCITEGIC>MOL_PROPERTY
W
SciTegic.value.DoubleValue
-2.819

@<SCITEGIC>MOL_PROPERTY
W(PB)
SciTegic.value.DoubleValue
-4.568

@<SCITEGIC>MOL_PROPERTY
W(SA)
SciTegic.value.DoubleValue
1.750

@<SCITEGIC>MOL_PROPERTY
Valence
SciTegic.value.DoubleValue
13.789

@<SCITEGIC>MOL_PROPERTY
Coulomb
SciTegic.value.DoubleValue
-8.574

@<SCITEGIC>MOL_PROPERTY
VdW
SciTegic.value.DoubleValue
0.628

@<SCITEGIC>MOL_PROPERTY
VdW6
SciTegic.value.DoubleValue
-3.284

@<SCITEGIC>MOL_PROPERTY
VdW12
SciTegic.value.DoubleValue
3.913

@<SCITEGIC>MOL_PROPERTY
Bond
SciTegic.value.DoubleValue
0.054

@<SCITEGIC>MOL_PROPERTY
Angle
SciTegic.value.DoubleValue
4.033

@<SCITEGIC>MOL_PROPERTY
Pdih
SciTegic.value.DoubleValue
9.702

@<SCITEGIC>MOL_PROPERTY
Idih
SciTegic.value.DoubleValue
0.000

@<SCITEGIC>MOL_PROPERTY
Tether
SciTegic.value.DoubleValue
0.000

@<TRIPOS>MOLECULE
guest-4_confgen4.mol2 : confsearch ligand conformer 768
          16          16           1
SMALL
USER_CHARGES
 
@<TRIPOS>ATOM
       1    C1      20.398974   17.770620   22.062955 C.3        1 MOL1        -0.1689
       2    H1      20.098474   16.746353   21.802564 H          1 MOL1         0.0830
       3    H2      21.497071   17.804467   22.068938 H          1 MOL1         0.0830
       4    C2      19.811422   18.156857   23.437955 C.3        1 MOL1        -0.1689
       5    H3      19.227452   17.319158   23.843499 H          1 MOL1         0.0830
       6    H4      20.602171   18.393740   24.162939 H          1 MOL1         0.0830
       7    C3      18.896966   19.376584   23.196140 C.3        1 MOL1        -0.1765
       8    H5      19.443530   20.298160   23.436110 H          1 MOL1         0.0830
       9    H6      17.994626   19.350805   23.821539 H          1 MOL1         0.0830
      10    C4      18.566018   19.369359   21.697669 C.3        1 MOL1         0.1214
      11    H7      18.357871   20.382432   21.324385 H          1 MOL1         0.0787
      12    C5      19.818459   18.772223   21.042097 C.3        1 MOL1        -0.1765
      13    H8      19.597194   18.300276   20.075498 H          1 MOL1         0.0830
      14    H9      20.544773   19.575969   20.862984 H          1 MOL1         0.0830
      15    O1      17.461200   18.507438   21.466856 O.3        1 MOL1        -0.5512
      16    H10     17.735553   17.639322   21.827784 H          1 MOL1         0.3776
@<TRIPOS>BOND
    1     1     2    1
    2     1     3    1
    3     1     4    1
    4     4     5    1
    5     4     6    1
    6     4     7    1
    7     7     8    1
    8     7     9    1
    9     7    10    1
   10    10    11    1
   11     1    12    1
   12    10    12    1
   13    12    13    1
   14    12    14    1
   15    10    15    1
   16    15    16    1
@<TRIPOS>SUBSTRUCTURE
       1 MOL1            1 RESIDUE      1      MOL     
@<SCITEGIC>MOL_PROPERTY
VConf Rank
SciTegic.value.IntegerValue
768

@<SCITEGIC>MOL_PROPERTY
Conf_Id
SciTegic.value.IntegerValue
20

@<SCITEGIC>MOL_PROPERTY
Delta U+W
SciTegic.value.DoubleValue
-0.483

@<SCITEGIC>MOL_PROPERTY
U+W
SciTegic.value.DoubleValue
2.527

@<SCITEGIC>MOL_PROPERTY
Grad RMS
SciTegic.value.DoubleValue
0.000000

@<SCITEGIC>MOL_PROPERTY
U
SciTegic.value.DoubleValue
4.508

@<SCITEGIC>MOL_PROPERTY
W
SciTegic.value.DoubleValue
-1.981

@<SCITEGIC>MOL_PROPERTY
W(PB)
SciTegic.value.DoubleValue
-3.712

@<SCITEGIC>MOL_PROPERTY
W(SA)
SciTegic.value.DoubleValue
1.732

@<SCITEGIC>MOL_PROPERTY
Valence
SciTegic.value.DoubleValue
14.705

@<SCITEGIC>MOL_PROPERTY
Coulomb
SciTegic.value.DoubleValue
-10.687

@<SCITEGIC>MOL_PROPERTY
VdW
SciTegic.value.DoubleValue
0.490

@<SCITEGIC>MOL_PROPERTY
VdW6
SciTegic.value.DoubleValue
-3.745

@<SCITEGIC>MOL_PROPERTY
VdW12
SciTegic.value.DoubleValue
4.235

@<SCITEGIC>MOL_PROPERTY
Bond
SciTegic.value.DoubleValue
0.068

@<SCITEGIC>MOL_PROPERTY
Angle
SciTegic.value.DoubleValue
3.901

@<SCITEGIC>MOL_PROPERTY
Pdih
SciTegic.value.DoubleValue
10.737

@<SCITEGIC>MOL_PROPERTY
Idih
SciTegic.value.DoubleValue
0.000

@<SCITEGIC>MOL_PROPERTY
Tether
SciTegic.value.DoubleValue
0.000

@<TRIPOS>MOLECULE
guest-4_confgen4.mol2 : confsearch ligand conformer 769
          16          16           1
SMALL
USER_CHARGES
 
@<TRIPOS>ATOM
       1    C1      19.518992   17.817231   21.071228 C.3        1 MOL1        -0.1689
       2    H1      19.410027   18.570190   20.278223 H          1 MOL1         0.0830
       3    H2      19.755911   16.853453   20.600434 H          1 MOL1         0.0830
       4    C2      18.233013   17.760872   21.907177 C.3        1 MOL1        -0.1689
       5    H3      17.328915   17.852457   21.289944 H          1 MOL1         0.0830
       6    H4      18.184876   16.805111   22.447388 H          1 MOL1         0.0830
       7    C3      18.377276   18.919704   22.910598 C.3        1 MOL1        -0.1765
       8    H5      17.844845   18.708209   23.846884 H          1 MOL1         0.0830
       9    H6      17.946517   19.832123   22.476175 H          1 MOL1         0.0830
      10    C4      19.891062   19.103564   23.147932 C.3        1 MOL1         0.1214
      11    H7      20.165466   18.720584   24.141686 H          1 MOL1         0.0787
      12    C5      20.605161   18.268539   22.065052 C.3        1 MOL1        -0.1765
      13    H8      21.403341   18.831738   21.563318 H          1 MOL1         0.0830
      14    H9      21.062742   17.388532   22.535464 H          1 MOL1         0.0830
      15    O1      20.244646   20.475784   23.021911 O.3        1 MOL1        -0.5512
      16    H10     19.756775   20.957444   23.722995 H          1 MOL1         0.3776
@<TRIPOS>BOND
    1     1     2    1
    2     1     3    1
    3     1     4    1
    4     4     5    1
    5     4     6    1
    6     4     7    1
    7     7     8    1
    8     7     9    1
    9     7    10    1
   10    10    11    1
   11     1    12    1
   12    10    12    1
   13    12    13    1
   14    12    14    1
   15    10    15    1
   16    15    16    1
@<TRIPOS>SUBSTRUCTURE
       1 MOL1            1 RESIDUE      1      MOL     
@<SCITEGIC>MOL_PROPERTY
VConf Rank
SciTegic.value.IntegerValue
769

@<SCITEGIC>MOL_PROPERTY
Conf_Id
SciTegic.value.IntegerValue
59

@<SCITEGIC>MOL_PROPERTY
Delta U+W
SciTegic.value.DoubleValue
0.000

@<SCITEGIC>MOL_PROPERTY
U+W
SciTegic.value.DoubleValue
3.010

@<SCITEGIC>MOL_PROPERTY
Grad RMS
SciTegic.value.DoubleValue
0.000000

@<SCITEGIC>MOL_PROPERTY
U
SciTegic.value.DoubleValue
5.843

@<SCITEGIC>MOL_PROPERTY
W
SciTegic.value.DoubleValue
-2.833

@<SCITEGIC>MOL_PROPERTY
W(PB)
SciTegic.value.DoubleValue
-4.568

@<SCITEGIC>MOL_PROPERTY
W(SA)
SciTegic.value.DoubleValue
1.735

@<SCITEGIC>MOL_PROPERTY
Valence
SciTegic.value.DoubleValue
13.789

@<SCITEGIC>MOL_PROPERTY
Coulomb
SciTegic.value.DoubleValue
-8.574

@<SCITEGIC>MOL_PROPERTY
VdW
SciTegic.value.DoubleValue
0.628

@<SCITEGIC>MOL_PROPERTY
VdW6
SciTegic.value.DoubleValue
-3.284

@<SCITEGIC>MOL_PROPERTY
VdW12
SciTegic.value.DoubleValue
3.912

@<SCITEGIC>MOL_PROPERTY
Bond
SciTegic.value.DoubleValue
0.054

@<SCITEGIC>MOL_PROPERTY
Angle
SciTegic.value.DoubleValue
4.034

@<SCITEGIC>MOL_PROPERTY
Pdih
SciTegic.value.DoubleValue
9.702

@<SCITEGIC>MOL_PROPERTY
Idih
SciTegic.value.DoubleValue
0.000

@<SCITEGIC>MOL_PROPERTY
Tether
SciTegic.value.DoubleValue
0.000

@<TRIPOS>MOLECULE
guest-4_confgen4.mol2 : confsearch ligand conformer 770
          16          16           1
SMALL
USER_CHARGES
 
@<TRIPOS>ATOM
       1    C1      18.198709   18.615135   22.992191 C.3        1 MOL1        -0.1689
       2    H1      17.159883   18.937647   22.838616 H          1 MOL1         0.0830
       3    H2      18.242823   18.029121   23.920773 H          1 MOL1         0.0830
       4    C2      19.170602   19.799611   23.082561 C.3        1 MOL1        -0.1689
       5    H3      18.884879   20.567174   22.349834 H          1 MOL1         0.0830
       6    H4      19.177955   20.261174   24.079330 H          1 MOL1         0.0830
       7    C3      20.538694   19.205433   22.700001 C.3        1 MOL1        -0.1765
       8    H5      21.047336   18.841045   23.601993 H          1 MOL1         0.0830
       9    H6      21.188499   19.956029   22.230558 H          1 MOL1         0.0830
      10    C4      20.253851   18.011159   21.765992 C.3        1 MOL1         0.1214
      11    H7      20.787075   17.124007   22.137679 H          1 MOL1         0.0787
      12    C5      18.730090   17.772135   21.818481 C.3        1 MOL1        -0.1765
      13    H8      18.259276   18.110819   20.885523 H          1 MOL1         0.0830
      14    H9      18.492859   16.708397   21.948975 H          1 MOL1         0.0830
      15    O1      20.656698   18.320691   20.437157 O.3        1 MOL1        -0.5512
      16    H10     20.443386   17.536334   19.888695 H          1 MOL1         0.3776
@<TRIPOS>BOND
    1     1     2    1
    2     1     3    1
    3     1     4    1
    4     4     5    1
    5     4     6    1
    6     4     7    1
    7     7     8    1
    8     7     9    1
    9     7    10    1
   10    10    11    1
   11     1    12    1
   12    10    12    1
   13    12    13    1
   14    12    14    1
   15    10    15    1
   16    15    16    1
@<TRIPOS>SUBSTRUCTURE
       1 MOL1            1 RESIDUE      1      MOL     
@<SCITEGIC>MOL_PROPERTY
VConf Rank
SciTegic.value.IntegerValue
770

@<SCITEGIC>MOL_PROPERTY
Conf_Id
SciTegic.value.IntegerValue
33

@<SCITEGIC>MOL_PROPERTY
Delta U+W
SciTegic.value.DoubleValue
0.015

@<SCITEGIC>MOL_PROPERTY
U+W
SciTegic.value.DoubleValue
3.025

@<SCITEGIC>MOL_PROPERTY
Grad RMS
SciTegic.value.DoubleValue
0.000000

@<SCITEGIC>MOL_PROPERTY
U
SciTegic.value.DoubleValue
5.843

@<SCITEGIC>MOL_PROPERTY
W
SciTegic.value.DoubleValue
-2.819

@<SCITEGIC>MOL_PROPERTY
W(PB)
SciTegic.value.DoubleValue
-4.568

@<SCITEGIC>MOL_PROPERTY
W(SA)
SciTegic.value.DoubleValue
1.750

@<SCITEGIC>MOL_PROPERTY
Valence
SciTegic.value.DoubleValue
13.789

@<SCITEGIC>MOL_PROPERTY
Coulomb
SciTegic.value.DoubleValue
-8.574

@<SCITEGIC>MOL_PROPERTY
VdW
SciTegic.value.DoubleValue
0.628

@<SCITEGIC>MOL_PROPERTY
VdW6
SciTegic.value.DoubleValue
-3.284

@<SCITEGIC>MOL_PROPERTY
VdW12
SciTegic.value.DoubleValue
3.913

@<SCITEGIC>MOL_PROPERTY
Bond
SciTegic.value.DoubleValue
0.054

@<SCITEGIC>MOL_PROPERTY
Angle
SciTegic.value.DoubleValue
4.033

@<SCITEGIC>MOL_PROPERTY
Pdih
SciTegic.value.DoubleValue
9.702

@<SCITEGIC>MOL_PROPERTY
Idih
SciTegic.value.DoubleValue
0.000

@<SCITEGIC>MOL_PROPERTY
Tether
SciTegic.value.DoubleValue
0.000

@<TRIPOS>MOLECULE
guest-4_confgen4.mol2 : confsearch ligand conformer 771
          16          16           1
SMALL
USER_CHARGES
 
@<TRIPOS>ATOM
       1    C1      18.130996   18.270728   21.920358 C.3        1 MOL1        -0.1689
       2    H1      17.405831   18.336918   22.743147 H          1 MOL1         0.0830
       3    H2      17.587337   17.947223   21.022151 H          1 MOL1         0.0830
       4    C2      19.256419   17.280077   22.290565 C.3        1 MOL1        -0.1689
       5    H3      19.075370   16.866026   23.292069 H          1 MOL1         0.0830
       6    H4      19.302129   16.438858   21.585398 H          1 MOL1         0.0830
       7    C3      20.571957   18.087305   22.277180 C.3        1 MOL1        -0.1765
       8    H5      21.082771   17.940356   21.316402 H          1 MOL1         0.0830
       9    H6      21.260678   17.774000   23.073113 H          1 MOL1         0.0830
      10    C4      20.167195   19.561955   22.405904 C.3        1 MOL1         0.1214
      11    H7      20.906963   20.226966   21.937409 H          1 MOL1         0.0787
      12    C5      18.808891   19.639108   21.695965 C.3        1 MOL1        -0.1765
      13    H8      18.194945   20.472821   22.062021 H          1 MOL1         0.0830
      14    H9      18.976257   19.793869   20.621879 H          1 MOL1         0.0830
      15    O1      19.996127   19.881862   23.778930 O.3        1 MOL1        -0.5512
      16    H10     19.327888   19.245692   24.107423 H          1 MOL1         0.3776
@<TRIPOS>BOND
    1     1     2    1
    2     1     3    1
    3     1     4    1
    4     4     5    1
    5     4     6    1
    6     4     7    1
    7     7     8    1
    8     7     9    1
    9     7    10    1
   10    10    11    1
   11     1    12    1
   12    10    12    1
   13    12    13    1
   14    12    14    1
   15    10    15    1
   16    15    16    1
@<TRIPOS>SUBSTRUCTURE
       1 MOL1            1 RESIDUE      1      MOL     
@<SCITEGIC>MOL_PROPERTY
VConf Rank
SciTegic.value.IntegerValue
771

@<SCITEGIC>MOL_PROPERTY
Conf_Id
SciTegic.value.IntegerValue
20

@<SCITEGIC>MOL_PROPERTY
Delta U+W
SciTegic.value.DoubleValue
-0.483

@<SCITEGIC>MOL_PROPERTY
U+W
SciTegic.value.DoubleValue
2.527

@<SCITEGIC>MOL_PROPERTY
Grad RMS
SciTegic.value.DoubleValue
0.000000

@<SCITEGIC>MOL_PROPERTY
U
SciTegic.value.DoubleValue
4.508

@<SCITEGIC>MOL_PROPERTY
W
SciTegic.value.DoubleValue
-1.981

@<SCITEGIC>MOL_PROPERTY
W(PB)
SciTegic.value.DoubleValue
-3.712

@<SCITEGIC>MOL_PROPERTY
W(SA)
SciTegic.value.DoubleValue
1.732

@<SCITEGIC>MOL_PROPERTY
Valence
SciTegic.value.DoubleValue
14.705

@<SCITEGIC>MOL_PROPERTY
Coulomb
SciTegic.value.DoubleValue
-10.687

@<SCITEGIC>MOL_PROPERTY
VdW
SciTegic.value.DoubleValue
0.490

@<SCITEGIC>MOL_PROPERTY
VdW6
SciTegic.value.DoubleValue
-3.745

@<SCITEGIC>MOL_PROPERTY
VdW12
SciTegic.value.DoubleValue
4.235

@<SCITEGIC>MOL_PROPERTY
Bond
SciTegic.value.DoubleValue
0.068

@<SCITEGIC>MOL_PROPERTY
Angle
SciTegic.value.DoubleValue
3.901

@<SCITEGIC>MOL_PROPERTY
Pdih
SciTegic.value.DoubleValue
10.737

@<SCITEGIC>MOL_PROPERTY
Idih
SciTegic.value.DoubleValue
0.000

@<SCITEGIC>MOL_PROPERTY
Tether
SciTegic.value.DoubleValue
0.000

@<TRIPOS>MOLECULE
guest-4_confgen4.mol2 : confsearch ligand conformer 772
          16          16           1
SMALL
USER_CHARGES
 
@<TRIPOS>ATOM
       1    C1      19.623240   17.613426   21.237789 C.3        1 MOL1        -0.1689
       2    H1      18.633236   17.350480   20.839756 H          1 MOL1         0.0830
       3    H2      20.384538   17.107791   20.628360 H          1 MOL1         0.0830
       4    C2      19.702745   17.220825   22.719433 C.3        1 MOL1        -0.1689
       5    H3      19.212299   16.259373   22.923962 H          1 MOL1         0.0830
       6    H4      20.755385   17.141413   23.024831 H          1 MOL1         0.0830
       7    C3      19.031659   18.390619   23.462255 C.3        1 MOL1        -0.1765
       8    H5      19.445129   18.514939   24.471429 H          1 MOL1         0.0830
       9    H6      17.956225   18.189276   23.560675 H          1 MOL1         0.0830
      10    C4      19.263469   19.646339   22.595588 C.3        1 MOL1         0.1214
      11    H7      20.021727   20.291447   23.062920 H          1 MOL1         0.0787
      12    C5      19.790034   19.144211   21.235283 C.3        1 MOL1        -0.1765
      13    H8      19.265179   19.606669   20.388713 H          1 MOL1         0.0830
      14    H9      20.854253   19.398745   21.147352 H          1 MOL1         0.0830
      15    O1      18.041467   20.352828   22.418178 O.3        1 MOL1        -0.5512
      16    H10     17.748982   20.637152   23.309887 H          1 MOL1         0.3776
@<TRIPOS>BOND
    1     1     2    1
    2     1     3    1
    3     1     4    1
    4     4     5    1
    5     4     6    1
    6     4     7    1
    7     7     8    1
    8     7     9    1
    9     7    10    1
   10    10    11    1
   11     1    12    1
   12    10    12    1
   13    12    13    1
   14    12    14    1
   15    10    15    1
   16    15    16    1
@<TRIPOS>SUBSTRUCTURE
       1 MOL1            1 RESIDUE      1      MOL     
@<SCITEGIC>MOL_PROPERTY
VConf Rank
SciTegic.value.IntegerValue
772

@<SCITEGIC>MOL_PROPERTY
Conf_Id
SciTegic.value.IntegerValue
59

@<SCITEGIC>MOL_PROPERTY
Delta U+W
SciTegic.value.DoubleValue
0.000

@<SCITEGIC>MOL_PROPERTY
U+W
SciTegic.value.DoubleValue
3.010

@<SCITEGIC>MOL_PROPERTY
Grad RMS
SciTegic.value.DoubleValue
0.000000

@<SCITEGIC>MOL_PROPERTY
U
SciTegic.value.DoubleValue
5.843

@<SCITEGIC>MOL_PROPERTY
W
SciTegic.value.DoubleValue
-2.833

@<SCITEGIC>MOL_PROPERTY
W(PB)
SciTegic.value.DoubleValue
-4.568

@<SCITEGIC>MOL_PROPERTY
W(SA)
SciTegic.value.DoubleValue
1.735

@<SCITEGIC>MOL_PROPERTY
Valence
SciTegic.value.DoubleValue
13.789

@<SCITEGIC>MOL_PROPERTY
Coulomb
SciTegic.value.DoubleValue
-8.574

@<SCITEGIC>MOL_PROPERTY
VdW
SciTegic.value.DoubleValue
0.628

@<SCITEGIC>MOL_PROPERTY
VdW6
SciTegic.value.DoubleValue
-3.284

@<SCITEGIC>MOL_PROPERTY
VdW12
SciTegic.value.DoubleValue
3.912

@<SCITEGIC>MOL_PROPERTY
Bond
SciTegic.value.DoubleValue
0.054

@<SCITEGIC>MOL_PROPERTY
Angle
SciTegic.value.DoubleValue
4.034

@<SCITEGIC>MOL_PROPERTY
Pdih
SciTegic.value.DoubleValue
9.702

@<SCITEGIC>MOL_PROPERTY
Idih
SciTegic.value.DoubleValue
0.000

@<SCITEGIC>MOL_PROPERTY
Tether
SciTegic.value.DoubleValue
0.000

@<TRIPOS>MOLECULE
guest-4_confgen4.mol2 : confsearch ligand conformer 773
          16          16           1
SMALL
USER_CHARGES
 
@<TRIPOS>ATOM
       1    C1      19.384031   17.616433   23.324041 C.3        1 MOL1        -0.1689
       2    H1      19.127423   17.536981   24.389217 H          1 MOL1         0.0830
       3    H2      19.525058   16.601129   22.927947 H          1 MOL1         0.0830
       4    C2      20.655756   18.443227   23.089832 C.3        1 MOL1        -0.1689
       5    H3      20.666708   19.303669   23.773352 H          1 MOL1         0.0830
       6    H4      21.571769   17.860140   23.255881 H          1 MOL1         0.0830
       7    C3      20.530401   18.939827   21.637679 C.3        1 MOL1        -0.1765
       8    H5      20.992072   18.211688   20.958150 H          1 MOL1         0.0830
       9    H6      21.041133   19.901299   21.493651 H          1 MOL1         0.0830
      10    C4      19.020963   19.026943   21.331404 C.3        1 MOL1         0.1214
      11    H7      18.807956   18.486521   20.397545 H          1 MOL1         0.0787
      12    C5      18.297819   18.345953   22.512527 C.3        1 MOL1        -0.1765
      13    H8      17.814123   19.099880   23.148462 H          1 MOL1         0.0830
      14    H9      17.522691   17.651076   22.164434 H          1 MOL1         0.0830
      15    O1      18.619046   20.387742   21.228509 O.3        1 MOL1        -0.5512
      16    H10     17.655666   20.383402   21.045726 H          1 MOL1         0.3776
@<TRIPOS>BOND
    1     1     2    1
    2     1     3    1
    3     1     4    1
    4     4     5    1
    5     4     6    1
    6     4     7    1
    7     7     8    1
    8     7     9    1
    9     7    10    1
   10    10    11    1
   11     1    12    1
   12    10    12    1
   13    12    13    1
   14    12    14    1
   15    10    15    1
   16    15    16    1
@<TRIPOS>SUBSTRUCTURE
       1 MOL1            1 RESIDUE      1      MOL     
@<SCITEGIC>MOL_PROPERTY
VConf Rank
SciTegic.value.IntegerValue
773

@<SCITEGIC>MOL_PROPERTY
Conf_Id
SciTegic.value.IntegerValue
33

@<SCITEGIC>MOL_PROPERTY
Delta U+W
SciTegic.value.DoubleValue
0.015

@<SCITEGIC>MOL_PROPERTY
U+W
SciTegic.value.DoubleValue
3.025

@<SCITEGIC>MOL_PROPERTY
Grad RMS
SciTegic.value.DoubleValue
0.000000

@<SCITEGIC>MOL_PROPERTY
U
SciTegic.value.DoubleValue
5.843

@<SCITEGIC>MOL_PROPERTY
W
SciTegic.value.DoubleValue
-2.819

@<SCITEGIC>MOL_PROPERTY
W(PB)
SciTegic.value.DoubleValue
-4.568

@<SCITEGIC>MOL_PROPERTY
W(SA)
SciTegic.value.DoubleValue
1.750

@<SCITEGIC>MOL_PROPERTY
Valence
SciTegic.value.DoubleValue
13.789

@<SCITEGIC>MOL_PROPERTY
Coulomb
SciTegic.value.DoubleValue
-8.574

@<SCITEGIC>MOL_PROPERTY
VdW
SciTegic.value.DoubleValue
0.628

@<SCITEGIC>MOL_PROPERTY
VdW6
SciTegic.value.DoubleValue
-3.284

@<SCITEGIC>MOL_PROPERTY
VdW12
SciTegic.value.DoubleValue
3.913

@<SCITEGIC>MOL_PROPERTY
Bond
SciTegic.value.DoubleValue
0.054

@<SCITEGIC>MOL_PROPERTY
Angle
SciTegic.value.DoubleValue
4.033

@<SCITEGIC>MOL_PROPERTY
Pdih
SciTegic.value.DoubleValue
9.702

@<SCITEGIC>MOL_PROPERTY
Idih
SciTegic.value.DoubleValue
0.000

@<SCITEGIC>MOL_PROPERTY
Tether
SciTegic.value.DoubleValue
0.000

@<TRIPOS>MOLECULE
guest-4_confgen4.mol2 : confsearch ligand conformer 774
          16          16           1
SMALL
USER_CHARGES
 
@<TRIPOS>ATOM
       1    C1      18.494411   19.124036   23.118245 C.3        1 MOL1        -0.1689
       2    H1      18.850503   20.014405   23.654593 H          1 MOL1         0.0830
       3    H2      17.466969   18.923005   23.451333 H          1 MOL1         0.0830
       4    C2      19.428881   17.928688   23.406223 C.3        1 MOL1        -0.1689
       5    H3      20.236610   18.240266   24.082773 H          1 MOL1         0.0830
       6    H4      18.890018   17.101943   23.889048 H          1 MOL1         0.0830
       7    C3      20.011948   17.491281   22.045656 C.3        1 MOL1        -0.1765
       8    H5      19.435830   16.641790   21.655689 H          1 MOL1         0.0830
       9    H6      21.060840   17.175641   22.124419 H          1 MOL1         0.0830
      10    C4      19.834536   18.688684   21.102393 C.3        1 MOL1         0.1214
      11    H7      19.748541   18.368615   20.053993 H          1 MOL1         0.0787
      12    C5      18.546942   19.363273   21.594315 C.3        1 MOL1        -0.1765
      13    H8      18.512985   20.430855   21.339131 H          1 MOL1         0.0830
      14    H9      17.685400   18.878071   21.116877 H          1 MOL1         0.0830
      15    O1      20.924910   19.582745   21.271352 O.3        1 MOL1        -0.5512
      16    H10     20.922429   19.810466   22.223875 H          1 MOL1         0.3776
@<TRIPOS>BOND
    1     1     2    1
    2     1     3    1
    3     1     4    1
    4     4     5    1
    5     4     6    1
    6     4     7    1
    7     7     8    1
    8     7     9    1
    9     7    10    1
   10    10    11    1
   11     1    12    1
   12    10    12    1
   13    12    13    1
   14    12    14    1
   15    10    15    1
   16    15    16    1
@<TRIPOS>SUBSTRUCTURE
       1 MOL1            1 RESIDUE      1      MOL     
@<SCITEGIC>MOL_PROPERTY
VConf Rank
SciTegic.value.IntegerValue
774

@<SCITEGIC>MOL_PROPERTY
Conf_Id
SciTegic.value.IntegerValue
20

@<SCITEGIC>MOL_PROPERTY
Delta U+W
SciTegic.value.DoubleValue
-0.483

@<SCITEGIC>MOL_PROPERTY
U+W
SciTegic.value.DoubleValue
2.527

@<SCITEGIC>MOL_PROPERTY
Grad RMS
SciTegic.value.DoubleValue
0.000000

@<SCITEGIC>MOL_PROPERTY
U
SciTegic.value.DoubleValue
4.508

@<SCITEGIC>MOL_PROPERTY
W
SciTegic.value.DoubleValue
-1.981

@<SCITEGIC>MOL_PROPERTY
W(PB)
SciTegic.value.DoubleValue
-3.712

@<SCITEGIC>MOL_PROPERTY
W(SA)
SciTegic.value.DoubleValue
1.732

@<SCITEGIC>MOL_PROPERTY
Valence
SciTegic.value.DoubleValue
14.705

@<SCITEGIC>MOL_PROPERTY
Coulomb
SciTegic.value.DoubleValue
-10.687

@<SCITEGIC>MOL_PROPERTY
VdW
SciTegic.value.DoubleValue
0.490

@<SCITEGIC>MOL_PROPERTY
VdW6
SciTegic.value.DoubleValue
-3.745

@<SCITEGIC>MOL_PROPERTY
VdW12
SciTegic.value.DoubleValue
4.235

@<SCITEGIC>MOL_PROPERTY
Bond
SciTegic.value.DoubleValue
0.068

@<SCITEGIC>MOL_PROPERTY
Angle
SciTegic.value.DoubleValue
3.901

@<SCITEGIC>MOL_PROPERTY
Pdih
SciTegic.value.DoubleValue
10.737

@<SCITEGIC>MOL_PROPERTY
Idih
SciTegic.value.DoubleValue
0.000

@<SCITEGIC>MOL_PROPERTY
Tether
SciTegic.value.DoubleValue
0.000

@<TRIPOS>MOLECULE
guest-4_confgen4.mol2 : confsearch ligand conformer 775
          16          16           1
SMALL
USER_CHARGES
 
@<TRIPOS>ATOM
       1    C1      20.705580   19.012788   22.610139 C.3        1 MOL1        -0.1689
       2    H1      21.354125   18.155217   22.382902 H          1 MOL1         0.0830
       3    H2      21.342818   19.857495   22.905170 H          1 MOL1         0.0830
       4    C2      19.703533   18.623773   23.705720 C.3        1 MOL1        -0.1689
       5    H3      20.157918   17.995214   24.483672 H          1 MOL1         0.0830
       6    H4      19.308326   19.530715   24.184147 H          1 MOL1         0.0830
       7    C3      18.574116   17.898157   22.951761 C.3        1 MOL1        -0.1765
       8    H5      17.609803   18.017424   23.462369 H          1 MOL1         0.0830
       9    H6      18.800384   16.824210   22.904587 H          1 MOL1         0.0830
      10    C4      18.542259   18.500811   21.531383 C.3        1 MOL1         0.1214
      11    H7      17.667988   19.158873   21.421278 H          1 MOL1         0.0787
      12    C5      19.830676   19.336514   21.385037 C.3        1 MOL1        -0.1765
      13    H8      20.358400   19.127698   20.444865 H          1 MOL1         0.0830
      14    H9      19.568490   20.402491   21.390839 H          1 MOL1         0.0830
      15    O1      18.517245   17.463298   20.558331 O.3        1 MOL1        -0.5512
      16    H10     17.687907   16.960854   20.704210 H          1 MOL1         0.3776
@<TRIPOS>BOND
    1     1     2    1
    2     1     3    1
    3     1     4    1
    4     4     5    1
    5     4     6    1
    6     4     7    1
    7     7     8    1
    8     7     9    1
    9     7    10    1
   10    10    11    1
   11     1    12    1
   12    10    12    1
   13    12    13    1
   14    12    14    1
   15    10    15    1
   16    15    16    1
@<TRIPOS>SUBSTRUCTURE
       1 MOL1            1 RESIDUE      1      MOL     
@<SCITEGIC>MOL_PROPERTY
VConf Rank
SciTegic.value.IntegerValue
775

@<SCITEGIC>MOL_PROPERTY
Conf_Id
SciTegic.value.IntegerValue
59

@<SCITEGIC>MOL_PROPERTY
Delta U+W
SciTegic.value.DoubleValue
0.000

@<SCITEGIC>MOL_PROPERTY
U+W
SciTegic.value.DoubleValue
3.010

@<SCITEGIC>MOL_PROPERTY
Grad RMS
SciTegic.value.DoubleValue
0.000000

@<SCITEGIC>MOL_PROPERTY
U
SciTegic.value.DoubleValue
5.843

@<SCITEGIC>MOL_PROPERTY
W
SciTegic.value.DoubleValue
-2.833

@<SCITEGIC>MOL_PROPERTY
W(PB)
SciTegic.value.DoubleValue
-4.568

@<SCITEGIC>MOL_PROPERTY
W(SA)
SciTegic.value.DoubleValue
1.735

@<SCITEGIC>MOL_PROPERTY
Valence
SciTegic.value.DoubleValue
13.789

@<SCITEGIC>MOL_PROPERTY
Coulomb
SciTegic.value.DoubleValue
-8.574

@<SCITEGIC>MOL_PROPERTY
VdW
SciTegic.value.DoubleValue
0.628

@<SCITEGIC>MOL_PROPERTY
VdW6
SciTegic.value.DoubleValue
-3.284

@<SCITEGIC>MOL_PROPERTY
VdW12
SciTegic.value.DoubleValue
3.912

@<SCITEGIC>MOL_PROPERTY
Bond
SciTegic.value.DoubleValue
0.054

@<SCITEGIC>MOL_PROPERTY
Angle
SciTegic.value.DoubleValue
4.034

@<SCITEGIC>MOL_PROPERTY
Pdih
SciTegic.value.DoubleValue
9.702

@<SCITEGIC>MOL_PROPERTY
Idih
SciTegic.value.DoubleValue
0.000

@<SCITEGIC>MOL_PROPERTY
Tether
SciTegic.value.DoubleValue
0.000

@<TRIPOS>MOLECULE
guest-4_confgen4.mol2 : confsearch ligand conformer 776
          16          16           1
SMALL
USER_CHARGES
 
@<TRIPOS>ATOM
       1    C1      18.697533   19.492605   23.138708 C.3        1 MOL1        -0.1689
       2    H1      17.682283   19.587541   23.547379 H          1 MOL1         0.0830
       3    H2      19.333519   20.248958   23.619410 H          1 MOL1         0.0830
       4    C2      18.733873   19.679868   21.615770 C.3        1 MOL1        -0.1689
       5    H3      17.859230   19.191685   21.163714 H          1 MOL1         0.0830
       6    H4      18.726683   20.738570   21.322955 H          1 MOL1         0.0830
       7    C3      20.017043   18.955305   21.169048 C.3        1 MOL1        -0.1765
       8    H5      20.860182   19.658199   21.180878 H          1 MOL1         0.0830
       9    H6      19.924651   18.562010   20.147871 H          1 MOL1         0.0830
      10    C4      20.276250   17.841384   22.204321 C.3        1 MOL1         0.1214
      11    H7      21.312306   17.915265   22.565774 H          1 MOL1         0.0787
      12    C5      19.292204   18.090825   23.366718 C.3        1 MOL1        -0.1765
      13    H8      18.484704   17.346253   23.348301 H          1 MOL1         0.0830
      14    H9      19.792818   18.021168   24.341079 H          1 MOL1         0.0830
      15    O1      20.035700   16.565538   21.622727 O.3        1 MOL1        -0.5512
      16    H10     20.203636   15.900739   22.323704 H          1 MOL1         0.3776
@<TRIPOS>BOND
    1     1     2    1
    2     1     3    1
    3     1     4    1
    4     4     5    1
    5     4     6    1
    6     4     7    1
    7     7     8    1
    8     7     9    1
    9     7    10    1
   10    10    11    1
   11     1    12    1
   12    10    12    1
   13    12    13    1
   14    12    14    1
   15    10    15    1
   16    15    16    1
@<TRIPOS>SUBSTRUCTURE
       1 MOL1            1 RESIDUE      1      MOL     
@<SCITEGIC>MOL_PROPERTY
VConf Rank
SciTegic.value.IntegerValue
776

@<SCITEGIC>MOL_PROPERTY
Conf_Id
SciTegic.value.IntegerValue
33

@<SCITEGIC>MOL_PROPERTY
Delta U+W
SciTegic.value.DoubleValue
0.015

@<SCITEGIC>MOL_PROPERTY
U+W
SciTegic.value.DoubleValue
3.025

@<SCITEGIC>MOL_PROPERTY
Grad RMS
SciTegic.value.DoubleValue
0.000000

@<SCITEGIC>MOL_PROPERTY
U
SciTegic.value.DoubleValue
5.843

@<SCITEGIC>MOL_PROPERTY
W
SciTegic.value.DoubleValue
-2.819

@<SCITEGIC>MOL_PROPERTY
W(PB)
SciTegic.value.DoubleValue
-4.568

@<SCITEGIC>MOL_PROPERTY
W(SA)
SciTegic.value.DoubleValue
1.750

@<SCITEGIC>MOL_PROPERTY
Valence
SciTegic.value.DoubleValue
13.789

@<SCITEGIC>MOL_PROPERTY
Coulomb
SciTegic.value.DoubleValue
-8.574

@<SCITEGIC>MOL_PROPERTY
VdW
SciTegic.value.DoubleValue
0.628

@<SCITEGIC>MOL_PROPERTY
VdW6
SciTegic.value.DoubleValue
-3.284

@<SCITEGIC>MOL_PROPERTY
VdW12
SciTegic.value.DoubleValue
3.913

@<SCITEGIC>MOL_PROPERTY
Bond
SciTegic.value.DoubleValue
0.054

@<SCITEGIC>MOL_PROPERTY
Angle
SciTegic.value.DoubleValue
4.033

@<SCITEGIC>MOL_PROPERTY
Pdih
SciTegic.value.DoubleValue
9.702

@<SCITEGIC>MOL_PROPERTY
Idih
SciTegic.value.DoubleValue
0.000

@<SCITEGIC>MOL_PROPERTY
Tether
SciTegic.value.DoubleValue
0.000

@<TRIPOS>MOLECULE
guest-4_confgen4.mol2 : confsearch ligand conformer 777
          16          16           1
SMALL
USER_CHARGES
 
@<TRIPOS>ATOM
       1    C1      20.464475   19.388040   22.265397 C.3        1 MOL1        -0.1689
       2    H1      20.937245   19.495211   23.251415 H          1 MOL1         0.0830
       3    H2      21.061631   19.963856   21.545093 H          1 MOL1         0.0830
       4    C2      19.005754   19.891650   22.324808 C.3        1 MOL1        -0.1689
       5    H3      18.772875   20.243531   23.339290 H          1 MOL1         0.0830
       6    H4      18.839586   20.730276   21.634811 H          1 MOL1         0.0830
       7    C3      18.111803   18.687459   21.959827 C.3        1 MOL1        -0.1765
       8    H5      17.837551   18.742649   20.898055 H          1 MOL1         0.0830
       9    H6      17.182336   18.666766   22.544351 H          1 MOL1         0.0830
      10    C4      18.970157   17.436064   22.188371 C.3        1 MOL1         0.1214
      11    H7      18.657023   16.606378   21.538331 H          1 MOL1         0.0787
      12    C5      20.397271   17.898758   21.865546 C.3        1 MOL1        -0.1765
      13    H8      21.156723   17.294948   22.379987 H          1 MOL1         0.0830
      14    H9      20.568046   17.800862   20.785326 H          1 MOL1         0.0830
      15    O1      18.897787   17.062771   23.556662 O.3        1 MOL1        -0.5512
      16    H10     19.191489   17.854543   24.052644 H          1 MOL1         0.3776
@<TRIPOS>BOND
    1     1     2    1
    2     1     3    1
    3     1     4    1
    4     4     5    1
    5     4     6    1
    6     4     7    1
    7     7     8    1
    8     7     9    1
    9     7    10    1
   10    10    11    1
   11     1    12    1
   12    10    12    1
   13    12    13    1
   14    12    14    1
   15    10    15    1
   16    15    16    1
@<TRIPOS>SUBSTRUCTURE
       1 MOL1            1 RESIDUE      1      MOL     
@<SCITEGIC>MOL_PROPERTY
VConf Rank
SciTegic.value.IntegerValue
777

@<SCITEGIC>MOL_PROPERTY
Conf_Id
SciTegic.value.IntegerValue
20

@<SCITEGIC>MOL_PROPERTY
Delta U+W
SciTegic.value.DoubleValue
-0.483

@<SCITEGIC>MOL_PROPERTY
U+W
SciTegic.value.DoubleValue
2.527

@<SCITEGIC>MOL_PROPERTY
Grad RMS
SciTegic.value.DoubleValue
0.000000

@<SCITEGIC>MOL_PROPERTY
U
SciTegic.value.DoubleValue
4.508

@<SCITEGIC>MOL_PROPERTY
W
SciTegic.value.DoubleValue
-1.981

@<SCITEGIC>MOL_PROPERTY
W(PB)
SciTegic.value.DoubleValue
-3.712

@<SCITEGIC>MOL_PROPERTY
W(SA)
SciTegic.value.DoubleValue
1.732

@<SCITEGIC>MOL_PROPERTY
Valence
SciTegic.value.DoubleValue
14.705

@<SCITEGIC>MOL_PROPERTY
Coulomb
SciTegic.value.DoubleValue
-10.687

@<SCITEGIC>MOL_PROPERTY
VdW
SciTegic.value.DoubleValue
0.490

@<SCITEGIC>MOL_PROPERTY
VdW6
SciTegic.value.DoubleValue
-3.745

@<SCITEGIC>MOL_PROPERTY
VdW12
SciTegic.value.DoubleValue
4.235

@<SCITEGIC>MOL_PROPERTY
Bond
SciTegic.value.DoubleValue
0.068

@<SCITEGIC>MOL_PROPERTY
Angle
SciTegic.value.DoubleValue
3.901

@<SCITEGIC>MOL_PROPERTY
Pdih
SciTegic.value.DoubleValue
10.737

@<SCITEGIC>MOL_PROPERTY
Idih
SciTegic.value.DoubleValue
0.000

@<SCITEGIC>MOL_PROPERTY
Tether
SciTegic.value.DoubleValue
0.000

@<TRIPOS>MOLECULE
guest-4_confgen4.mol2 : confsearch ligand conformer 778
          16          16           1
SMALL
USER_CHARGES
 
@<TRIPOS>ATOM
       1    C1      19.788407   19.455074   23.370932 C.3        1 MOL1        -0.1689
       2    H1      20.414010   18.839399   24.032175 H          1 MOL1         0.0830
       3    H2      19.798638   20.486222   23.749448 H          1 MOL1         0.0830
       4    C2      18.371898   18.867362   23.309098 C.3        1 MOL1        -0.1689
       5    H3      18.028522   18.500641   24.286016 H          1 MOL1         0.0830
       6    H4      17.667237   19.636700   22.963848 H          1 MOL1         0.0830
       7    C3      18.469179   17.742581   22.262216 C.3        1 MOL1        -0.1765
       8    H5      17.511245   17.588350   21.748972 H          1 MOL1         0.0830
       9    H6      18.738897   16.802693   22.762864 H          1 MOL1         0.0830
      10    C4      19.580111   18.161131   21.276150 C.3        1 MOL1         0.1214
      11    H7      19.135707   18.482729   20.322946 H          1 MOL1         0.0787
      12    C5      20.310823   19.354316   21.925920 C.3        1 MOL1        -0.1765
      13    H8      21.402671   19.239856   21.897845 H          1 MOL1         0.0830
      14    H9      20.057232   20.270949   21.377689 H          1 MOL1         0.0830
      15    O1      20.486094   17.083607   21.071145 O.3        1 MOL1        -0.5512
      16    H10     19.968896   16.353924   20.669148 H          1 MOL1         0.3776
@<TRIPOS>BOND
    1     1     2    1
    2     1     3    1
    3     1     4    1
    4     4     5    1
    5     4     6    1
    6     4     7    1
    7     7     8    1
    8     7     9    1
    9     7    10    1
   10    10    11    1
   11     1    12    1
   12    10    12    1
   13    12    13    1
   14    12    14    1
   15    10    15    1
   16    15    16    1
@<TRIPOS>SUBSTRUCTURE
       1 MOL1            1 RESIDUE      1      MOL     
@<SCITEGIC>MOL_PROPERTY
VConf Rank
SciTegic.value.IntegerValue
778

@<SCITEGIC>MOL_PROPERTY
Conf_Id
SciTegic.value.IntegerValue
59

@<SCITEGIC>MOL_PROPERTY
Delta U+W
SciTegic.value.DoubleValue
0.000

@<SCITEGIC>MOL_PROPERTY
U+W
SciTegic.value.DoubleValue
3.010

@<SCITEGIC>MOL_PROPERTY
Grad RMS
SciTegic.value.DoubleValue
0.000000

@<SCITEGIC>MOL_PROPERTY
U
SciTegic.value.DoubleValue
5.843

@<SCITEGIC>MOL_PROPERTY
W
SciTegic.value.DoubleValue
-2.833

@<SCITEGIC>MOL_PROPERTY
W(PB)
SciTegic.value.DoubleValue
-4.568

@<SCITEGIC>MOL_PROPERTY
W(SA)
SciTegic.value.DoubleValue
1.735

@<SCITEGIC>MOL_PROPERTY
Valence
SciTegic.value.DoubleValue
13.789

@<SCITEGIC>MOL_PROPERTY
Coulomb
SciTegic.value.DoubleValue
-8.574

@<SCITEGIC>MOL_PROPERTY
VdW
SciTegic.value.DoubleValue
0.628

@<SCITEGIC>MOL_PROPERTY
VdW6
SciTegic.value.DoubleValue
-3.284

@<SCITEGIC>MOL_PROPERTY
VdW12
SciTegic.value.DoubleValue
3.912

@<SCITEGIC>MOL_PROPERTY
Bond
SciTegic.value.DoubleValue
0.054

@<SCITEGIC>MOL_PROPERTY
Angle
SciTegic.value.DoubleValue
4.034

@<SCITEGIC>MOL_PROPERTY
Pdih
SciTegic.value.DoubleValue
9.702

@<SCITEGIC>MOL_PROPERTY
Idih
SciTegic.value.DoubleValue
0.000

@<SCITEGIC>MOL_PROPERTY
Tether
SciTegic.value.DoubleValue
0.000

@<TRIPOS>MOLECULE
guest-4_confgen4.mol2 : confsearch ligand conformer 779
          16          16           1
SMALL
USER_CHARGES
 
@<TRIPOS>ATOM
       1    C1      18.697699   18.304347   21.110566 C.3        1 MOL1        -0.1689
       2    H1      18.699784   17.577203   20.287149 H          1 MOL1         0.0830
       3    H2      17.773059   18.894609   21.045346 H          1 MOL1         0.0830
       4    C2      19.912555   19.241260   21.065340 C.3        1 MOL1        -0.1689
       5    H3      20.805849   18.672135   20.772421 H          1 MOL1         0.0830
       6    H4      19.780295   20.065589   20.351456 H          1 MOL1         0.0830
       7    C3      20.069940   19.738216   22.514251 C.3        1 MOL1        -0.1765
       8    H5      19.485440   20.656832   22.654214 H          1 MOL1         0.0830
       9    H6      21.117087   19.969561   22.750857 H          1 MOL1         0.0830
      10    C4      19.494695   18.632589   23.423360 C.3        1 MOL1         0.1214
      11    H7      18.767790   19.076147   24.119337 H          1 MOL1         0.0787
      12    C5      18.787180   17.627190   22.490444 C.3        1 MOL1        -0.1765
      13    H8      19.378918   16.705587   22.405155 H          1 MOL1         0.0830
      14    H9      17.793334   17.355839   22.869239 H          1 MOL1         0.0830
      15    O1      20.544040   17.987333   24.134989 O.3        1 MOL1        -0.5512
      16    H10     20.124952   17.291472   24.684235 H          1 MOL1         0.3776
@<TRIPOS>BOND
    1     1     2    1
    2     1     3    1
    3     1     4    1
    4     4     5    1
    5     4     6    1
    6     4     7    1
    7     7     8    1
    8     7     9    1
    9     7    10    1
   10    10    11    1
   11     1    12    1
   12    10    12    1
   13    12    13    1
   14    12    14    1
   15    10    15    1
   16    15    16    1
@<TRIPOS>SUBSTRUCTURE
       1 MOL1            1 RESIDUE      1      MOL     
@<SCITEGIC>MOL_PROPERTY
VConf Rank
SciTegic.value.IntegerValue
779

@<SCITEGIC>MOL_PROPERTY
Conf_Id
SciTegic.value.IntegerValue
33

@<SCITEGIC>MOL_PROPERTY
Delta U+W
SciTegic.value.DoubleValue
0.015

@<SCITEGIC>MOL_PROPERTY
U+W
SciTegic.value.DoubleValue
3.025

@<SCITEGIC>MOL_PROPERTY
Grad RMS
SciTegic.value.DoubleValue
0.000000

@<SCITEGIC>MOL_PROPERTY
U
SciTegic.value.DoubleValue
5.843

@<SCITEGIC>MOL_PROPERTY
W
SciTegic.value.DoubleValue
-2.819

@<SCITEGIC>MOL_PROPERTY
W(PB)
SciTegic.value.DoubleValue
-4.568

@<SCITEGIC>MOL_PROPERTY
W(SA)
SciTegic.value.DoubleValue
1.750

@<SCITEGIC>MOL_PROPERTY
Valence
SciTegic.value.DoubleValue
13.789

@<SCITEGIC>MOL_PROPERTY
Coulomb
SciTegic.value.DoubleValue
-8.574

@<SCITEGIC>MOL_PROPERTY
VdW
SciTegic.value.DoubleValue
0.628

@<SCITEGIC>MOL_PROPERTY
VdW6
SciTegic.value.DoubleValue
-3.284

@<SCITEGIC>MOL_PROPERTY
VdW12
SciTegic.value.DoubleValue
3.913

@<SCITEGIC>MOL_PROPERTY
Bond
SciTegic.value.DoubleValue
0.054

@<SCITEGIC>MOL_PROPERTY
Angle
SciTegic.value.DoubleValue
4.033

@<SCITEGIC>MOL_PROPERTY
Pdih
SciTegic.value.DoubleValue
9.702

@<SCITEGIC>MOL_PROPERTY
Idih
SciTegic.value.DoubleValue
0.000

@<SCITEGIC>MOL_PROPERTY
Tether
SciTegic.value.DoubleValue
0.000

@<TRIPOS>MOLECULE
guest-4_confgen4.mol2 : confsearch ligand conformer 780
          16          16           1
SMALL
USER_CHARGES
 
@<TRIPOS>ATOM
       1    C1      18.796502   18.287640   23.416771 C.3        1 MOL1        -0.1689
       2    H1      19.391170   17.614090   24.049169 H          1 MOL1         0.0830
       3    H2      17.867923   18.518409   23.956662 H          1 MOL1         0.0830
       4    C2      18.510278   17.614623   22.056570 C.3        1 MOL1        -0.1689
       5    H3      18.965511   16.614953   22.031066 H          1 MOL1         0.0830
       6    H4      17.431901   17.494256   21.884483 H          1 MOL1         0.0830
       7    C3      19.146630   18.517912   20.978812 C.3        1 MOL1        -0.1765
       8    H5      18.377660   19.172908   20.548364 H          1 MOL1         0.0830
       9    H6      19.589228   17.937979   20.157965 H          1 MOL1         0.0830
      10    C4      20.185766   19.381056   21.706941 C.3        1 MOL1         0.1214
      11    H7      20.340624   20.343332   21.197994 H          1 MOL1         0.0787
      12    C5      19.594001   19.572983   23.109772 C.3        1 MOL1        -0.1765
      13    H8      20.367116   19.773209   23.863566 H          1 MOL1         0.0830
      14    H9      18.911728   20.433150   23.094309 H          1 MOL1         0.0830
      15    O1      21.404777   18.659562   21.808252 O.3        1 MOL1        -0.5512
      16    H10     21.170937   17.827701   22.269218 H          1 MOL1         0.3776
@<TRIPOS>BOND
    1     1     2    1
    2     1     3    1
    3     1     4    1
    4     4     5    1
    5     4     6    1
    6     4     7    1
    7     7     8    1
    8     7     9    1
    9     7    10    1
   10    10    11    1
   11     1    12    1
   12    10    12    1
   13    12    13    1
   14    12    14    1
   15    10    15    1
   16    15    16    1
@<TRIPOS>SUBSTRUCTURE
       1 MOL1            1 RESIDUE      1      MOL     
@<SCITEGIC>MOL_PROPERTY
VConf Rank
SciTegic.value.IntegerValue
780

@<SCITEGIC>MOL_PROPERTY
Conf_Id
SciTegic.value.IntegerValue
20

@<SCITEGIC>MOL_PROPERTY
Delta U+W
SciTegic.value.DoubleValue
-0.483

@<SCITEGIC>MOL_PROPERTY
U+W
SciTegic.value.DoubleValue
2.527

@<SCITEGIC>MOL_PROPERTY
Grad RMS
SciTegic.value.DoubleValue
0.000000

@<SCITEGIC>MOL_PROPERTY
U
SciTegic.value.DoubleValue
4.508

@<SCITEGIC>MOL_PROPERTY
W
SciTegic.value.DoubleValue
-1.981

@<SCITEGIC>MOL_PROPERTY
W(PB)
SciTegic.value.DoubleValue
-3.712

@<SCITEGIC>MOL_PROPERTY
W(SA)
SciTegic.value.DoubleValue
1.732

@<SCITEGIC>MOL_PROPERTY
Valence
SciTegic.value.DoubleValue
14.705

@<SCITEGIC>MOL_PROPERTY
Coulomb
SciTegic.value.DoubleValue
-10.687

@<SCITEGIC>MOL_PROPERTY
VdW
SciTegic.value.DoubleValue
0.490

@<SCITEGIC>MOL_PROPERTY
VdW6
SciTegic.value.DoubleValue
-3.745

@<SCITEGIC>MOL_PROPERTY
VdW12
SciTegic.value.DoubleValue
4.235

@<SCITEGIC>MOL_PROPERTY
Bond
SciTegic.value.DoubleValue
0.068

@<SCITEGIC>MOL_PROPERTY
Angle
SciTegic.value.DoubleValue
3.901

@<SCITEGIC>MOL_PROPERTY
Pdih
SciTegic.value.DoubleValue
10.737

@<SCITEGIC>MOL_PROPERTY
Idih
SciTegic.value.DoubleValue
0.000

@<SCITEGIC>MOL_PROPERTY
Tether
SciTegic.value.DoubleValue
0.000

@<TRIPOS>MOLECULE
guest-4_confgen4.mol2 : confsearch ligand conformer 781
          16          16           1
SMALL
USER_CHARGES
 
@<TRIPOS>ATOM
       1    C1      20.116509   18.108633   21.156528 C.3        1 MOL1        -0.1689
       2    H1      19.720885   17.109943   20.924631 H          1 MOL1         0.0830
       3    H2      20.864683   18.367708   20.395108 H          1 MOL1         0.0830
       4    C2      20.699076   18.114097   22.576498 C.3        1 MOL1        -0.1689
       5    H3      21.241148   17.187463   22.809449 H          1 MOL1         0.0830
       6    H4      21.395745   18.956753   22.686991 H          1 MOL1         0.0830
       7    C3      19.478151   18.324290   23.490673 C.3        1 MOL1        -0.1765
       8    H5      19.755256   18.844293   24.416771 H          1 MOL1         0.0830
       9    H6      19.057425   17.347349   23.765192 H          1 MOL1         0.0830
      10    C4      18.454251   19.135668   22.669105 C.3        1 MOL1         0.1214
      11    H7      18.418588   20.173426   23.031465 H          1 MOL1         0.0787
      12    C5      18.958460   19.122074   21.211222 C.3        1 MOL1        -0.1765
      13    H8      18.163701   18.866664   20.497678 H          1 MOL1         0.0830
      14    H9      19.331013   20.121616   20.951991 H          1 MOL1         0.0830
      15    O1      17.169593   18.529813   22.749618 O.3        1 MOL1        -0.5512
      16    H10     16.905083   18.555744   23.693490 H          1 MOL1         0.3776
@<TRIPOS>BOND
    1     1     2    1
    2     1     3    1
    3     1     4    1
    4     4     5    1
    5     4     6    1
    6     4     7    1
    7     7     8    1
    8     7     9    1
    9     7    10    1
   10    10    11    1
   11     1    12    1
   12    10    12    1
   13    12    13    1
   14    12    14    1
   15    10    15    1
   16    15    16    1
@<TRIPOS>SUBSTRUCTURE
       1 MOL1            1 RESIDUE      1      MOL     
@<SCITEGIC>MOL_PROPERTY
VConf Rank
SciTegic.value.IntegerValue
781

@<SCITEGIC>MOL_PROPERTY
Conf_Id
SciTegic.value.IntegerValue
59

@<SCITEGIC>MOL_PROPERTY
Delta U+W
SciTegic.value.DoubleValue
0.000

@<SCITEGIC>MOL_PROPERTY
U+W
SciTegic.value.DoubleValue
3.010

@<SCITEGIC>MOL_PROPERTY
Grad RMS
SciTegic.value.DoubleValue
0.000000

@<SCITEGIC>MOL_PROPERTY
U
SciTegic.value.DoubleValue
5.843

@<SCITEGIC>MOL_PROPERTY
W
SciTegic.value.DoubleValue
-2.833

@<SCITEGIC>MOL_PROPERTY
W(PB)
SciTegic.value.DoubleValue
-4.568

@<SCITEGIC>MOL_PROPERTY
W(SA)
SciTegic.value.DoubleValue
1.735

@<SCITEGIC>MOL_PROPERTY
Valence
SciTegic.value.DoubleValue
13.789

@<SCITEGIC>MOL_PROPERTY
Coulomb
SciTegic.value.DoubleValue
-8.574

@<SCITEGIC>MOL_PROPERTY
VdW
SciTegic.value.DoubleValue
0.628

@<SCITEGIC>MOL_PROPERTY
VdW6
SciTegic.value.DoubleValue
-3.284

@<SCITEGIC>MOL_PROPERTY
VdW12
SciTegic.value.DoubleValue
3.912

@<SCITEGIC>MOL_PROPERTY
Bond
SciTegic.value.DoubleValue
0.054

@<SCITEGIC>MOL_PROPERTY
Angle
SciTegic.value.DoubleValue
4.034

@<SCITEGIC>MOL_PROPERTY
Pdih
SciTegic.value.DoubleValue
9.702

@<SCITEGIC>MOL_PROPERTY
Idih
SciTegic.value.DoubleValue
0.000

@<SCITEGIC>MOL_PROPERTY
Tether
SciTegic.value.DoubleValue
0.000

@<TRIPOS>MOLECULE
guest-4_confgen4.mol2 : confsearch ligand conformer 782
          16          16           1
SMALL
USER_CHARGES
 
@<TRIPOS>ATOM
       1    C1      20.022704   17.746867   21.299413 C.3        1 MOL1        -0.1689
       2    H1      20.583180   16.803991   21.239328 H          1 MOL1         0.0830
       3    H2      19.733767   18.040337   20.280585 H          1 MOL1         0.0830
       4    C2      20.840434   18.871955   21.948430 C.3        1 MOL1        -0.1689
       5    H3      21.421650   18.467210   22.788697 H          1 MOL1         0.0830
       6    H4      21.537949   19.344090   21.243303 H          1 MOL1         0.0830
       7    C3      19.784336   19.858556   22.479797 C.3        1 MOL1        -0.1765
       8    H5      19.552209   20.601840   21.706021 H          1 MOL1         0.0830
       9    H6      20.145397   20.399517   23.364679 H          1 MOL1         0.0830
      10    C4      18.517853   19.029334   22.776796 C.3        1 MOL1         0.1214
      11    H7      17.653061   19.498097   22.284947 H          1 MOL1         0.0787
      12    C5      18.767337   17.626977   22.182754 C.3        1 MOL1        -0.1765
      13    H8      18.956102   16.901481   22.985752 H          1 MOL1         0.0830
      14    H9      17.903064   17.273741   21.605602 H          1 MOL1         0.0830
      15    O1      18.309710   18.937641   24.181134 O.3        1 MOL1        -0.5512
      16    H10     17.503864   18.394276   24.311122 H          1 MOL1         0.3776
@<TRIPOS>BOND
    1     1     2    1
    2     1     3    1
    3     1     4    1
    4     4     5    1
    5     4     6    1
    6     4     7    1
    7     7     8    1
    8     7     9    1
    9     7    10    1
   10    10    11    1
   11     1    12    1
   12    10    12    1
   13    12    13    1
   14    12    14    1
   15    10    15    1
   16    15    16    1
@<TRIPOS>SUBSTRUCTURE
       1 MOL1            1 RESIDUE      1      MOL     
@<SCITEGIC>MOL_PROPERTY
VConf Rank
SciTegic.value.IntegerValue
782

@<SCITEGIC>MOL_PROPERTY
Conf_Id
SciTegic.value.IntegerValue
33

@<SCITEGIC>MOL_PROPERTY
Delta U+W
SciTegic.value.DoubleValue
0.015

@<SCITEGIC>MOL_PROPERTY
U+W
SciTegic.value.DoubleValue
3.025

@<SCITEGIC>MOL_PROPERTY
Grad RMS
SciTegic.value.DoubleValue
0.000000

@<SCITEGIC>MOL_PROPERTY
U
SciTegic.value.DoubleValue
5.843

@<SCITEGIC>MOL_PROPERTY
W
SciTegic.value.DoubleValue
-2.819

@<SCITEGIC>MOL_PROPERTY
W(PB)
SciTegic.value.DoubleValue
-4.568

@<SCITEGIC>MOL_PROPERTY
W(SA)
SciTegic.value.DoubleValue
1.750

@<SCITEGIC>MOL_PROPERTY
Valence
SciTegic.value.DoubleValue
13.789

@<SCITEGIC>MOL_PROPERTY
Coulomb
SciTegic.value.DoubleValue
-8.574

@<SCITEGIC>MOL_PROPERTY
VdW
SciTegic.value.DoubleValue
0.628

@<SCITEGIC>MOL_PROPERTY
VdW6
SciTegic.value.DoubleValue
-3.284

@<SCITEGIC>MOL_PROPERTY
VdW12
SciTegic.value.DoubleValue
3.913

@<SCITEGIC>MOL_PROPERTY
Bond
SciTegic.value.DoubleValue
0.054

@<SCITEGIC>MOL_PROPERTY
Angle
SciTegic.value.DoubleValue
4.033

@<SCITEGIC>MOL_PROPERTY
Pdih
SciTegic.value.DoubleValue
9.702

@<SCITEGIC>MOL_PROPERTY
Idih
SciTegic.value.DoubleValue
0.000

@<SCITEGIC>MOL_PROPERTY
Tether
SciTegic.value.DoubleValue
0.000

@<TRIPOS>MOLECULE
guest-4_confgen4.mol2 : confsearch ligand conformer 783
          16          16           1
SMALL
USER_CHARGES
 
@<TRIPOS>ATOM
       1    C1      19.240487   19.934458   22.146707 C.3        1 MOL1        -0.1689
       2    H1      18.318657   20.252127   21.640206 H          1 MOL1         0.0830
       3    H2      19.789777   20.840205   22.438081 H          1 MOL1         0.0830
       4    C2      20.076803   19.041706   21.204057 C.3        1 MOL1        -0.1689
       5    H3      19.560245   18.928177   20.240986 H          1 MOL1         0.0830
       6    H4      21.063996   19.479975   21.003135 H          1 MOL1         0.0830
       7    C3      20.209788   17.671699   21.902507 C.3        1 MOL1        -0.1765
       8    H5      21.174980   17.617523   22.423169 H          1 MOL1         0.0830
       9    H6      20.166393   16.835985   21.191378 H          1 MOL1         0.0830
      10    C4      19.080167   17.611764   22.939501 C.3        1 MOL1         0.1214
      11    H7      19.343089   16.962669   23.787163 H          1 MOL1         0.0787
      12    C5      18.900556   19.070775   23.379938 C.3        1 MOL1        -0.1765
      13    H8      17.889850   19.268841   23.761051 H          1 MOL1         0.0830
      14    H9      19.611106   19.289320   24.188009 H          1 MOL1         0.0830
      15    O1      17.889375   17.163709   22.308577 O.3        1 MOL1        -0.5512
      16    H10     17.736484   17.794830   21.575451 H          1 MOL1         0.3776
@<TRIPOS>BOND
    1     1     2    1
    2     1     3    1
    3     1     4    1
    4     4     5    1
    5     4     6    1
    6     4     7    1
    7     7     8    1
    8     7     9    1
    9     7    10    1
   10    10    11    1
   11     1    12    1
   12    10    12    1
   13    12    13    1
   14    12    14    1
   15    10    15    1
   16    15    16    1
@<TRIPOS>SUBSTRUCTURE
       1 MOL1            1 RESIDUE      1      MOL     
@<SCITEGIC>MOL_PROPERTY
VConf Rank
SciTegic.value.IntegerValue
783

@<SCITEGIC>MOL_PROPERTY
Conf_Id
SciTegic.value.IntegerValue
20

@<SCITEGIC>MOL_PROPERTY
Delta U+W
SciTegic.value.DoubleValue
-0.483

@<SCITEGIC>MOL_PROPERTY
U+W
SciTegic.value.DoubleValue
2.527

@<SCITEGIC>MOL_PROPERTY
Grad RMS
SciTegic.value.DoubleValue
0.000000

@<SCITEGIC>MOL_PROPERTY
U
SciTegic.value.DoubleValue
4.508

@<SCITEGIC>MOL_PROPERTY
W
SciTegic.value.DoubleValue
-1.981

@<SCITEGIC>MOL_PROPERTY
W(PB)
SciTegic.value.DoubleValue
-3.712

@<SCITEGIC>MOL_PROPERTY
W(SA)
SciTegic.value.DoubleValue
1.732

@<SCITEGIC>MOL_PROPERTY
Valence
SciTegic.value.DoubleValue
14.705

@<SCITEGIC>MOL_PROPERTY
Coulomb
SciTegic.value.DoubleValue
-10.687

@<SCITEGIC>MOL_PROPERTY
VdW
SciTegic.value.DoubleValue
0.490

@<SCITEGIC>MOL_PROPERTY
VdW6
SciTegic.value.DoubleValue
-3.745

@<SCITEGIC>MOL_PROPERTY
VdW12
SciTegic.value.DoubleValue
4.235

@<SCITEGIC>MOL_PROPERTY
Bond
SciTegic.value.DoubleValue
0.068

@<SCITEGIC>MOL_PROPERTY
Angle
SciTegic.value.DoubleValue
3.901

@<SCITEGIC>MOL_PROPERTY
Pdih
SciTegic.value.DoubleValue
10.737

@<SCITEGIC>MOL_PROPERTY
Idih
SciTegic.value.DoubleValue
0.000

@<SCITEGIC>MOL_PROPERTY
Tether
SciTegic.value.DoubleValue
0.000

@<TRIPOS>MOLECULE
guest-4_confgen4.mol2 : confsearch ligand conformer 784
          16          16           1
SMALL
USER_CHARGES
 
@<TRIPOS>ATOM
       1    C1      19.172966   19.566999   21.287764 C.3        1 MOL1        -0.1689
       2    H1      20.052794   20.220182   21.371013 H          1 MOL1         0.0830
       3    H2      18.564536   19.915371   20.442132 H          1 MOL1         0.0830
       4    C2      18.397080   19.577998   22.612003 C.3        1 MOL1        -0.1689
       5    H3      18.358609   20.577764   23.065598 H          1 MOL1         0.0830
       6    H4      17.366075   19.239197   22.439181 H          1 MOL1         0.0830
       7    C3      19.138074   18.560458   23.498625 C.3        1 MOL1        -0.1765
       8    H5      18.459836   18.090120   24.222242 H          1 MOL1         0.0830
       9    H6      19.927382   19.076532   24.062046 H          1 MOL1         0.0830
      10    C4      19.757203   17.519702   22.541971 C.3        1 MOL1         0.1214
      11    H7      19.195054   16.576085   22.597589 H          1 MOL1         0.0787
      12    C5      19.629458   18.105887   21.120739 C.3        1 MOL1        -0.1765
      13    H8      20.568753   18.037880   20.555830 H          1 MOL1         0.0830
      14    H9      18.866351   17.542307   20.568356 H          1 MOL1         0.0830
      15    O1      21.126714   17.309688   22.864806 O.3        1 MOL1        -0.5512
      16    H10     21.148681   16.949366   23.776518 H          1 MOL1         0.3776
@<TRIPOS>BOND
    1     1     2    1
    2     1     3    1
    3     1     4    1
    4     4     5    1
    5     4     6    1
    6     4     7    1
    7     7     8    1
    8     7     9    1
    9     7    10    1
   10    10    11    1
   11     1    12    1
   12    10    12    1
   13    12    13    1
   14    12    14    1
   15    10    15    1
   16    15    16    1
@<TRIPOS>SUBSTRUCTURE
       1 MOL1            1 RESIDUE      1      MOL     
@<SCITEGIC>MOL_PROPERTY
VConf Rank
SciTegic.value.IntegerValue
784

@<SCITEGIC>MOL_PROPERTY
Conf_Id
SciTegic.value.IntegerValue
59

@<SCITEGIC>MOL_PROPERTY
Delta U+W
SciTegic.value.DoubleValue
0.000

@<SCITEGIC>MOL_PROPERTY
U+W
SciTegic.value.DoubleValue
3.010

@<SCITEGIC>MOL_PROPERTY
Grad RMS
SciTegic.value.DoubleValue
0.000000

@<SCITEGIC>MOL_PROPERTY
U
SciTegic.value.DoubleValue
5.843

@<SCITEGIC>MOL_PROPERTY
W
SciTegic.value.DoubleValue
-2.833

@<SCITEGIC>MOL_PROPERTY
W(PB)
SciTegic.value.DoubleValue
-4.568

@<SCITEGIC>MOL_PROPERTY
W(SA)
SciTegic.value.DoubleValue
1.735

@<SCITEGIC>MOL_PROPERTY
Valence
SciTegic.value.DoubleValue
13.789

@<SCITEGIC>MOL_PROPERTY
Coulomb
SciTegic.value.DoubleValue
-8.574

@<SCITEGIC>MOL_PROPERTY
VdW
SciTegic.value.DoubleValue
0.628

@<SCITEGIC>MOL_PROPERTY
VdW6
SciTegic.value.DoubleValue
-3.284

@<SCITEGIC>MOL_PROPERTY
VdW12
SciTegic.value.DoubleValue
3.912

@<SCITEGIC>MOL_PROPERTY
Bond
SciTegic.value.DoubleValue
0.054

@<SCITEGIC>MOL_PROPERTY
Angle
SciTegic.value.DoubleValue
4.034

@<SCITEGIC>MOL_PROPERTY
Pdih
SciTegic.value.DoubleValue
9.702

@<SCITEGIC>MOL_PROPERTY
Idih
SciTegic.value.DoubleValue
0.000

@<SCITEGIC>MOL_PROPERTY
Tether
SciTegic.value.DoubleValue
0.000

@<TRIPOS>MOLECULE
guest-4_confgen4.mol2 : confsearch ligand conformer 785
          16          16           1
SMALL
USER_CHARGES
 
@<TRIPOS>ATOM
       1    C1      20.564533   19.214383   22.970880 C.3        1 MOL1        -0.1689
       2    H1      21.098670   20.173678   23.005662 H          1 MOL1         0.0830
       3    H2      20.947944   18.578093   23.780665 H          1 MOL1         0.0830
       4    C2      20.738365   18.497680   21.624831 C.3        1 MOL1        -0.1689
       5    H3      20.701224   19.232718   20.808731 H          1 MOL1         0.0830
       6    H4      21.692049   17.956744   21.557626 H          1 MOL1         0.0830
       7    C3      19.521968   17.558431   21.528578 C.3        1 MOL1        -0.1765
       8    H5      19.771699   16.585597   21.971649 H          1 MOL1         0.0830
       9    H6      19.227239   17.384195   20.485124 H          1 MOL1         0.0830
      10    C4      18.394779   18.212598   22.353992 C.3        1 MOL1         0.1214
      11    H7      17.990642   17.476672   23.064348 H          1 MOL1         0.0787
      12    C5      19.041708   19.385947   23.119805 C.3        1 MOL1        -0.1765
      13    H8      18.738844   20.343770   22.675249 H          1 MOL1         0.0830
      14    H9      18.740316   19.393876   24.175242 H          1 MOL1         0.0830
      15    O1      17.371268   18.694324   21.491285 O.3        1 MOL1        -0.5512
      16    H10     16.691367   19.107205   22.064692 H          1 MOL1         0.3776
@<TRIPOS>BOND
    1     1     2    1
    2     1     3    1
    3     1     4    1
    4     4     5    1
    5     4     6    1
    6     4     7    1
    7     7     8    1
    8     7     9    1
    9     7    10    1
   10    10    11    1
   11     1    12    1
   12    10    12    1
   13    12    13    1
   14    12    14    1
   15    10    15    1
   16    15    16    1
@<TRIPOS>SUBSTRUCTURE
       1 MOL1            1 RESIDUE      1      MOL     
@<SCITEGIC>MOL_PROPERTY
VConf Rank
SciTegic.value.IntegerValue
785

@<SCITEGIC>MOL_PROPERTY
Conf_Id
SciTegic.value.IntegerValue
33

@<SCITEGIC>MOL_PROPERTY
Delta U+W
SciTegic.value.DoubleValue
0.015

@<SCITEGIC>MOL_PROPERTY
U+W
SciTegic.value.DoubleValue
3.025

@<SCITEGIC>MOL_PROPERTY
Grad RMS
SciTegic.value.DoubleValue
0.000000

@<SCITEGIC>MOL_PROPERTY
U
SciTegic.value.DoubleValue
5.843

@<SCITEGIC>MOL_PROPERTY
W
SciTegic.value.DoubleValue
-2.819

@<SCITEGIC>MOL_PROPERTY
W(PB)
SciTegic.value.DoubleValue
-4.568

@<SCITEGIC>MOL_PROPERTY
W(SA)
SciTegic.value.DoubleValue
1.750

@<SCITEGIC>MOL_PROPERTY
Valence
SciTegic.value.DoubleValue
13.789

@<SCITEGIC>MOL_PROPERTY
Coulomb
SciTegic.value.DoubleValue
-8.574

@<SCITEGIC>MOL_PROPERTY
VdW
SciTegic.value.DoubleValue
0.628

@<SCITEGIC>MOL_PROPERTY
VdW6
SciTegic.value.DoubleValue
-3.284

@<SCITEGIC>MOL_PROPERTY
VdW12
SciTegic.value.DoubleValue
3.913

@<SCITEGIC>MOL_PROPERTY
Bond
SciTegic.value.DoubleValue
0.054

@<SCITEGIC>MOL_PROPERTY
Angle
SciTegic.value.DoubleValue
4.033

@<SCITEGIC>MOL_PROPERTY
Pdih
SciTegic.value.DoubleValue
9.702

@<SCITEGIC>MOL_PROPERTY
Idih
SciTegic.value.DoubleValue
0.000

@<SCITEGIC>MOL_PROPERTY
Tether
SciTegic.value.DoubleValue
0.000

@<TRIPOS>MOLECULE
guest-4_confgen4.mol2 : confsearch ligand conformer 786
          16          16           1
SMALL
USER_CHARGES
 
@<TRIPOS>ATOM
       1    C1      18.942475   19.717394   22.865791 C.3        1 MOL1        -0.1689
       2    H1      17.891075   19.961764   22.660683 H          1 MOL1         0.0830
       3    H2      19.334079   20.480203   23.552643 H          1 MOL1         0.0830
       4    C2      19.740470   19.679908   21.544118 C.3        1 MOL1        -0.1689
       5    H3      19.075516   19.907172   20.699479 H          1 MOL1         0.0830
       6    H4      20.550177   20.422442   21.540008 H          1 MOL1         0.0830
       7    C3      20.300471   18.247694   21.411458 C.3        1 MOL1        -0.1765
       8    H5      21.340180   18.226231   21.763827 H          1 MOL1         0.0830
       9    H6      20.292413   17.892194   20.372439 H          1 MOL1         0.0830
      10    C4      19.443767   17.369202   22.333035 C.3        1 MOL1         0.1214
      11    H7      20.004987   16.496288   22.696403 H          1 MOL1         0.0787
      12    C5      19.051264   18.306767   23.482761 C.3        1 MOL1        -0.1765
      13    H8      18.120359   17.994664   23.974708 H          1 MOL1         0.0830
      14    H9      19.847888   18.297266   24.238355 H          1 MOL1         0.0830
      15    O1      18.272813   16.965357   21.638353 O.3        1 MOL1        -0.5512
      16    H10     17.843820   17.799216   21.355853 H          1 MOL1         0.3776
@<TRIPOS>BOND
    1     1     2    1
    2     1     3    1
    3     1     4    1
    4     4     5    1
    5     4     6    1
    6     4     7    1
    7     7     8    1
    8     7     9    1
    9     7    10    1
   10    10    11    1
   11     1    12    1
   12    10    12    1
   13    12    13    1
   14    12    14    1
   15    10    15    1
   16    15    16    1
@<TRIPOS>SUBSTRUCTURE
       1 MOL1            1 RESIDUE      1      MOL     
@<SCITEGIC>MOL_PROPERTY
VConf Rank
SciTegic.value.IntegerValue
786

@<SCITEGIC>MOL_PROPERTY
Conf_Id
SciTegic.value.IntegerValue
20

@<SCITEGIC>MOL_PROPERTY
Delta U+W
SciTegic.value.DoubleValue
-0.483

@<SCITEGIC>MOL_PROPERTY
U+W
SciTegic.value.DoubleValue
2.527

@<SCITEGIC>MOL_PROPERTY
Grad RMS
SciTegic.value.DoubleValue
0.000000

@<SCITEGIC>MOL_PROPERTY
U
SciTegic.value.DoubleValue
4.508

@<SCITEGIC>MOL_PROPERTY
W
SciTegic.value.DoubleValue
-1.981

@<SCITEGIC>MOL_PROPERTY
W(PB)
SciTegic.value.DoubleValue
-3.712

@<SCITEGIC>MOL_PROPERTY
W(SA)
SciTegic.value.DoubleValue
1.732

@<SCITEGIC>MOL_PROPERTY
Valence
SciTegic.value.DoubleValue
14.705

@<SCITEGIC>MOL_PROPERTY
Coulomb
SciTegic.value.DoubleValue
-10.687

@<SCITEGIC>MOL_PROPERTY
VdW
SciTegic.value.DoubleValue
0.490

@<SCITEGIC>MOL_PROPERTY
VdW6
SciTegic.value.DoubleValue
-3.745

@<SCITEGIC>MOL_PROPERTY
VdW12
SciTegic.value.DoubleValue
4.235

@<SCITEGIC>MOL_PROPERTY
Bond
SciTegic.value.DoubleValue
0.068

@<SCITEGIC>MOL_PROPERTY
Angle
SciTegic.value.DoubleValue
3.901

@<SCITEGIC>MOL_PROPERTY
Pdih
SciTegic.value.DoubleValue
10.737

@<SCITEGIC>MOL_PROPERTY
Idih
SciTegic.value.DoubleValue
0.000

@<SCITEGIC>MOL_PROPERTY
Tether
SciTegic.value.DoubleValue
0.000

@<TRIPOS>MOLECULE
guest-4_confgen4.mol2 : confsearch ligand conformer 787
          16          16           1
SMALL
USER_CHARGES
 
@<TRIPOS>ATOM
       1    C1      18.639460   19.137124   23.435468 C.3        1 MOL1        -0.1689
       2    H1      17.623740   19.320073   23.057951 H          1 MOL1         0.0830
       3    H2      18.666694   19.414069   24.498108 H          1 MOL1         0.0830
       4    C2      19.650610   19.930765   22.596757 C.3        1 MOL1        -0.1689
       5    H3      19.281696   20.931625   22.334190 H          1 MOL1         0.0830
       6    H4      20.587474   20.046555   23.159344 H          1 MOL1         0.0830
       7    C3      19.893161   19.051643   21.356245 C.3        1 MOL1        -0.1765
       8    H5      20.901787   19.200978   20.949773 H          1 MOL1         0.0830
       9    H6      19.170735   19.320548   20.573573 H          1 MOL1         0.0830
      10    C4      19.673869   17.592298   21.807801 C.3        1 MOL1         0.1214
      11    H7      20.640351   17.073419   21.886516 H          1 MOL1         0.0787
      12    C5      19.018392   17.662923   23.202503 C.3        1 MOL1        -0.1765
      13    H8      18.144734   17.002840   23.286368 H          1 MOL1         0.0830
      14    H9      19.749333   17.346560   23.957965 H          1 MOL1         0.0830
      15    O1      18.814270   16.919918   20.895176 O.3        1 MOL1        -0.5512
      16    H10     19.273260   16.914200   20.028673 H          1 MOL1         0.3776
@<TRIPOS>BOND
    1     1     2    1
    2     1     3    1
    3     1     4    1
    4     4     5    1
    5     4     6    1
    6     4     7    1
    7     7     8    1
    8     7     9    1
    9     7    10    1
   10    10    11    1
   11     1    12    1
   12    10    12    1
   13    12    13    1
   14    12    14    1
   15    10    15    1
   16    15    16    1
@<TRIPOS>SUBSTRUCTURE
       1 MOL1            1 RESIDUE      1      MOL     
@<SCITEGIC>MOL_PROPERTY
VConf Rank
SciTegic.value.IntegerValue
787

@<SCITEGIC>MOL_PROPERTY
Conf_Id
SciTegic.value.IntegerValue
59

@<SCITEGIC>MOL_PROPERTY
Delta U+W
SciTegic.value.DoubleValue
0.000

@<SCITEGIC>MOL_PROPERTY
U+W
SciTegic.value.DoubleValue
3.010

@<SCITEGIC>MOL_PROPERTY
Grad RMS
SciTegic.value.DoubleValue
0.000000

@<SCITEGIC>MOL_PROPERTY
U
SciTegic.value.DoubleValue
5.843

@<SCITEGIC>MOL_PROPERTY
W
SciTegic.value.DoubleValue
-2.833

@<SCITEGIC>MOL_PROPERTY
W(PB)
SciTegic.value.DoubleValue
-4.568

@<SCITEGIC>MOL_PROPERTY
W(SA)
SciTegic.value.DoubleValue
1.735

@<SCITEGIC>MOL_PROPERTY
Valence
SciTegic.value.DoubleValue
13.789

@<SCITEGIC>MOL_PROPERTY
Coulomb
SciTegic.value.DoubleValue
-8.574

@<SCITEGIC>MOL_PROPERTY
VdW
SciTegic.value.DoubleValue
0.628

@<SCITEGIC>MOL_PROPERTY
VdW6
SciTegic.value.DoubleValue
-3.284

@<SCITEGIC>MOL_PROPERTY
VdW12
SciTegic.value.DoubleValue
3.912

@<SCITEGIC>MOL_PROPERTY
Bond
SciTegic.value.DoubleValue
0.054

@<SCITEGIC>MOL_PROPERTY
Angle
SciTegic.value.DoubleValue
4.034

@<SCITEGIC>MOL_PROPERTY
Pdih
SciTegic.value.DoubleValue
9.702

@<SCITEGIC>MOL_PROPERTY
Idih
SciTegic.value.DoubleValue
0.000

@<SCITEGIC>MOL_PROPERTY
Tether
SciTegic.value.DoubleValue
0.000

@<TRIPOS>MOLECULE
guest-4_confgen4.mol2 : confsearch ligand conformer 788
          16          16           1
SMALL
USER_CHARGES
 
@<TRIPOS>ATOM
       1    C1      19.819267   19.690902   23.165435 C.3        1 MOL1        -0.1689
       2    H1      20.512513   19.893162   23.993239 H          1 MOL1         0.0830
       3    H2      19.355809   20.641082   22.865457 H          1 MOL1         0.0830
       4    C2      18.727711   18.683094   23.550863 C.3        1 MOL1        -0.1689
       5    H3      19.162784   17.889308   24.173995 H          1 MOL1         0.0830
       6    H4      17.905649   19.148814   24.111186 H          1 MOL1         0.0830
       7    C3      18.261511   18.088254   22.209259 C.3        1 MOL1        -0.1765
       8    H5      17.434101   18.687856   21.808066 H          1 MOL1         0.0830
       9    H6      17.900364   17.057911   22.327521 H          1 MOL1         0.0830
      10    C4      19.462918   18.180694   21.245996 C.3        1 MOL1         0.1214
      11    H7      19.143115   18.664901   20.311765 H          1 MOL1         0.0787
      12    C5      20.522879   19.049616   21.955356 C.3        1 MOL1        -0.1765
      13    H8      21.354058   18.423884   22.308036 H          1 MOL1         0.0830
      14    H9      20.936526   19.811325   21.281900 H          1 MOL1         0.0830
      15    O1      19.985202   16.882935   20.987273 O.3        1 MOL1        -0.5512
      16    H10     20.748209   17.002174   20.383011 H          1 MOL1         0.3776
@<TRIPOS>BOND
    1     1     2    1
    2     1     3    1
    3     1     4    1
    4     4     5    1
    5     4     6    1
    6     4     7    1
    7     7     8    1
    8     7     9    1
    9     7    10    1
   10    10    11    1
   11     1    12    1
   12    10    12    1
   13    12    13    1
   14    12    14    1
   15    10    15    1
   16    15    16    1
@<TRIPOS>SUBSTRUCTURE
       1 MOL1            1 RESIDUE      1      MOL     
@<SCITEGIC>MOL_PROPERTY
VConf Rank
SciTegic.value.IntegerValue
788

@<SCITEGIC>MOL_PROPERTY
Conf_Id
SciTegic.value.IntegerValue
33

@<SCITEGIC>MOL_PROPERTY
Delta U+W
SciTegic.value.DoubleValue
0.015

@<SCITEGIC>MOL_PROPERTY
U+W
SciTegic.value.DoubleValue
3.025

@<SCITEGIC>MOL_PROPERTY
Grad RMS
SciTegic.value.DoubleValue
0.000000

@<SCITEGIC>MOL_PROPERTY
U
SciTegic.value.DoubleValue
5.843

@<SCITEGIC>MOL_PROPERTY
W
SciTegic.value.DoubleValue
-2.819

@<SCITEGIC>MOL_PROPERTY
W(PB)
SciTegic.value.DoubleValue
-4.568

@<SCITEGIC>MOL_PROPERTY
W(SA)
SciTegic.value.DoubleValue
1.750

@<SCITEGIC>MOL_PROPERTY
Valence
SciTegic.value.DoubleValue
13.789

@<SCITEGIC>MOL_PROPERTY
Coulomb
SciTegic.value.DoubleValue
-8.574

@<SCITEGIC>MOL_PROPERTY
VdW
SciTegic.value.DoubleValue
0.628

@<SCITEGIC>MOL_PROPERTY
VdW6
SciTegic.value.DoubleValue
-3.284

@<SCITEGIC>MOL_PROPERTY
VdW12
SciTegic.value.DoubleValue
3.913

@<SCITEGIC>MOL_PROPERTY
Bond
SciTegic.value.DoubleValue
0.054

@<SCITEGIC>MOL_PROPERTY
Angle
SciTegic.value.DoubleValue
4.033

@<SCITEGIC>MOL_PROPERTY
Pdih
SciTegic.value.DoubleValue
9.702

@<SCITEGIC>MOL_PROPERTY
Idih
SciTegic.value.DoubleValue
0.000

@<SCITEGIC>MOL_PROPERTY
Tether
SciTegic.value.DoubleValue
0.000

@<TRIPOS>MOLECULE
guest-4_confgen4.mol2 : confsearch ligand conformer 789
          16          16           1
SMALL
USER_CHARGES
 
@<TRIPOS>ATOM
       1    C1      18.401321   19.510478   22.116147 C.3        1 MOL1        -0.1689
       2    H1      17.388557   19.084626   22.129797 H          1 MOL1         0.0830
       3    H2      18.303757   20.598774   22.001735 H          1 MOL1         0.0830
       4    C2      19.216926   18.888923   20.961383 C.3        1 MOL1        -0.1689
       5    H3      18.598571   18.163050   20.415515 H          1 MOL1         0.0830
       6    H4      19.546883   19.652247   20.243424 H          1 MOL1         0.0830
       7    C3      20.424129   18.179319   21.610658 C.3        1 MOL1        -0.1765
       8    H5      21.303839   18.834677   21.563360 H          1 MOL1         0.0830
       9    H6      20.678912   17.240713   21.100647 H          1 MOL1         0.0830
      10    C4      20.046371   17.957684   23.081430 C.3        1 MOL1         0.1214
      11    H7      20.935775   17.924727   23.727075 H          1 MOL1         0.0787
      12    C5      19.146973   19.154167   23.419759 C.3        1 MOL1        -0.1765
      13    H8      18.458317   18.936142   24.246936 H          1 MOL1         0.0830
      14    H9      19.777912   19.999615   23.724318 H          1 MOL1         0.0830
      15    O1      19.292950   16.759272   23.195323 O.3        1 MOL1        -0.5512
      16    H10     18.530560   16.879350   22.592409 H          1 MOL1         0.3776
@<TRIPOS>BOND
    1     1     2    1
    2     1     3    1
    3     1     4    1
    4     4     5    1
    5     4     6    1
    6     4     7    1
    7     7     8    1
    8     7     9    1
    9     7    10    1
   10    10    11    1
   11     1    12    1
   12    10    12    1
   13    12    13    1
   14    12    14    1
   15    10    15    1
   16    15    16    1
@<TRIPOS>SUBSTRUCTURE
       1 MOL1            1 RESIDUE      1      MOL     
@<SCITEGIC>MOL_PROPERTY
VConf Rank
SciTegic.value.IntegerValue
789

@<SCITEGIC>MOL_PROPERTY
Conf_Id
SciTegic.value.IntegerValue
20

@<SCITEGIC>MOL_PROPERTY
Delta U+W
SciTegic.value.DoubleValue
-0.483

@<SCITEGIC>MOL_PROPERTY
U+W
SciTegic.value.DoubleValue
2.527

@<SCITEGIC>MOL_PROPERTY
Grad RMS
SciTegic.value.DoubleValue
0.000000

@<SCITEGIC>MOL_PROPERTY
U
SciTegic.value.DoubleValue
4.508

@<SCITEGIC>MOL_PROPERTY
W
SciTegic.value.DoubleValue
-1.981

@<SCITEGIC>MOL_PROPERTY
W(PB)
SciTegic.value.DoubleValue
-3.712

@<SCITEGIC>MOL_PROPERTY
W(SA)
SciTegic.value.DoubleValue
1.732

@<SCITEGIC>MOL_PROPERTY
Valence
SciTegic.value.DoubleValue
14.705

@<SCITEGIC>MOL_PROPERTY
Coulomb
SciTegic.value.DoubleValue
-10.687

@<SCITEGIC>MOL_PROPERTY
VdW
SciTegic.value.DoubleValue
0.490

@<SCITEGIC>MOL_PROPERTY
VdW6
SciTegic.value.DoubleValue
-3.745

@<SCITEGIC>MOL_PROPERTY
VdW12
SciTegic.value.DoubleValue
4.235

@<SCITEGIC>MOL_PROPERTY
Bond
SciTegic.value.DoubleValue
0.068

@<SCITEGIC>MOL_PROPERTY
Angle
SciTegic.value.DoubleValue
3.901

@<SCITEGIC>MOL_PROPERTY
Pdih
SciTegic.value.DoubleValue
10.737

@<SCITEGIC>MOL_PROPERTY
Idih
SciTegic.value.DoubleValue
0.000

@<SCITEGIC>MOL_PROPERTY
Tether
SciTegic.value.DoubleValue
0.000

@<TRIPOS>MOLECULE
guest-4_confgen4.mol2 : confsearch ligand conformer 790
          16          16           1
SMALL
USER_CHARGES
 
@<TRIPOS>ATOM
       1    C1      19.717164   18.689990   20.911896 C.3        1 MOL1        -0.1689
       2    H1      20.662513   19.250337   20.913542 H          1 MOL1         0.0830
       3    H2      19.476371   18.424409   19.873565 H          1 MOL1         0.0830
       4    C2      18.617775   19.534110   21.571088 C.3        1 MOL1        -0.1689
       5    H3      18.684056   20.595485   21.295681 H          1 MOL1         0.0830
       6    H4      17.630900   19.160507   21.264293 H          1 MOL1         0.0830
       7    C3      18.814253   19.307268   23.081219 C.3        1 MOL1        -0.1765
       8    H5      17.866480   19.398940   23.627267 H          1 MOL1         0.0830
       9    H6      19.505408   20.064692   23.475427 H          1 MOL1         0.0830
      10    C4      19.422661   17.897203   23.233651 C.3        1 MOL1         0.1214
      11    H7      18.664903   17.200118   23.620165 H          1 MOL1         0.0787
      12    C5      19.849419   17.452962   21.819310 C.3        1 MOL1        -0.1765
      13    H8      20.868797   17.044878   21.800434 H          1 MOL1         0.0830
      14    H9      19.168377   16.665748   21.470658 H          1 MOL1         0.0830
      15    O1      20.553159   17.940920   24.096177 O.3        1 MOL1        -0.5512
      16    H10     20.227331   18.237967   24.972037 H          1 MOL1         0.3776
@<TRIPOS>BOND
    1     1     2    1
    2     1     3    1
    3     1     4    1
    4     4     5    1
    5     4     6    1
    6     4     7    1
    7     7     8    1
    8     7     9    1
    9     7    10    1
   10    10    11    1
   11     1    12    1
   12    10    12    1
   13    12    13    1
   14    12    14    1
   15    10    15    1
   16    15    16    1
@<TRIPOS>SUBSTRUCTURE
       1 MOL1            1 RESIDUE      1      MOL     
@<SCITEGIC>MOL_PROPERTY
VConf Rank
SciTegic.value.IntegerValue
790

@<SCITEGIC>MOL_PROPERTY
Conf_Id
SciTegic.value.IntegerValue
59

@<SCITEGIC>MOL_PROPERTY
Delta U+W
SciTegic.value.DoubleValue
0.000

@<SCITEGIC>MOL_PROPERTY
U+W
SciTegic.value.DoubleValue
3.010

@<SCITEGIC>MOL_PROPERTY
Grad RMS
SciTegic.value.DoubleValue
0.000000

@<SCITEGIC>MOL_PROPERTY
U
SciTegic.value.DoubleValue
5.843

@<SCITEGIC>MOL_PROPERTY
W
SciTegic.value.DoubleValue
-2.833

@<SCITEGIC>MOL_PROPERTY
W(PB)
SciTegic.value.DoubleValue
-4.568

@<SCITEGIC>MOL_PROPERTY
W(SA)
SciTegic.value.DoubleValue
1.735

@<SCITEGIC>MOL_PROPERTY
Valence
SciTegic.value.DoubleValue
13.789

@<SCITEGIC>MOL_PROPERTY
Coulomb
SciTegic.value.DoubleValue
-8.574

@<SCITEGIC>MOL_PROPERTY
VdW
SciTegic.value.DoubleValue
0.628

@<SCITEGIC>MOL_PROPERTY
VdW6
SciTegic.value.DoubleValue
-3.284

@<SCITEGIC>MOL_PROPERTY
VdW12
SciTegic.value.DoubleValue
3.912

@<SCITEGIC>MOL_PROPERTY
Bond
SciTegic.value.DoubleValue
0.054

@<SCITEGIC>MOL_PROPERTY
Angle
SciTegic.value.DoubleValue
4.034

@<SCITEGIC>MOL_PROPERTY
Pdih
SciTegic.value.DoubleValue
9.702

@<SCITEGIC>MOL_PROPERTY
Idih
SciTegic.value.DoubleValue
0.000

@<SCITEGIC>MOL_PROPERTY
Tether
SciTegic.value.DoubleValue
0.000

@<TRIPOS>MOLECULE
guest-4_confgen4.mol2 : confsearch ligand conformer 791
          16          16           1
SMALL
USER_CHARGES
 
@<TRIPOS>ATOM
       1    C1      19.656677   17.239099   22.657292 C.3        1 MOL1        -0.1689
       2    H1      19.448508   16.560216   23.495470 H          1 MOL1         0.0830
       3    H2      20.041561   16.641936   21.818910 H          1 MOL1         0.0830
       4    C2      20.674307   18.327291   23.026064 C.3        1 MOL1        -0.1689
       5    H3      20.480920   18.681141   24.048351 H          1 MOL1         0.0830
       6    H4      21.710674   17.966478   22.977066 H          1 MOL1         0.0830
       7    C3      20.400480   19.465645   22.025941 C.3        1 MOL1        -0.1765
       8    H5      21.017874   19.324718   21.129253 H          1 MOL1         0.0830
       9    H6      20.649579   20.446728   22.451904 H          1 MOL1         0.0830
      10    C4      18.912319   19.358229   21.633976 C.3        1 MOL1         0.1214
      11    H7      18.824834   19.353012   20.537692 H          1 MOL1         0.0787
      12    C5      18.406562   18.019046   22.210634 C.3        1 MOL1        -0.1765
      13    H8      17.760536   18.199000   23.080719 H          1 MOL1         0.0830
      14    H9      17.825179   17.454807   21.470043 H          1 MOL1         0.0830
      15    O1      18.178529   20.441537   22.192452 O.3        1 MOL1        -0.5512
      16    H10     17.244077   20.317028   21.922591 H          1 MOL1         0.3776
@<TRIPOS>BOND
    1     1     2    1
    2     1     3    1
    3     1     4    1
    4     4     5    1
    5     4     6    1
    6     4     7    1
    7     7     8    1
    8     7     9    1
    9     7    10    1
   10    10    11    1
   11     1    12    1
   12    10    12    1
   13    12    13    1
   14    12    14    1
   15    10    15    1
   16    15    16    1
@<TRIPOS>SUBSTRUCTURE
       1 MOL1            1 RESIDUE      1      MOL     
@<SCITEGIC>MOL_PROPERTY
VConf Rank
SciTegic.value.IntegerValue
791

@<SCITEGIC>MOL_PROPERTY
Conf_Id
SciTegic.value.IntegerValue
33

@<SCITEGIC>MOL_PROPERTY
Delta U+W
SciTegic.value.DoubleValue
0.015

@<SCITEGIC>MOL_PROPERTY
U+W
SciTegic.value.DoubleValue
3.025

@<SCITEGIC>MOL_PROPERTY
Grad RMS
SciTegic.value.DoubleValue
0.000000

@<SCITEGIC>MOL_PROPERTY
U
SciTegic.value.DoubleValue
5.843

@<SCITEGIC>MOL_PROPERTY
W
SciTegic.value.DoubleValue
-2.819

@<SCITEGIC>MOL_PROPERTY
W(PB)
SciTegic.value.DoubleValue
-4.568

@<SCITEGIC>MOL_PROPERTY
W(SA)
SciTegic.value.DoubleValue
1.750

@<SCITEGIC>MOL_PROPERTY
Valence
SciTegic.value.DoubleValue
13.789

@<SCITEGIC>MOL_PROPERTY
Coulomb
SciTegic.value.DoubleValue
-8.574

@<SCITEGIC>MOL_PROPERTY
VdW
SciTegic.value.DoubleValue
0.628

@<SCITEGIC>MOL_PROPERTY
VdW6
SciTegic.value.DoubleValue
-3.284

@<SCITEGIC>MOL_PROPERTY
VdW12
SciTegic.value.DoubleValue
3.913

@<SCITEGIC>MOL_PROPERTY
Bond
SciTegic.value.DoubleValue
0.054

@<SCITEGIC>MOL_PROPERTY
Angle
SciTegic.value.DoubleValue
4.033

@<SCITEGIC>MOL_PROPERTY
Pdih
SciTegic.value.DoubleValue
9.702

@<SCITEGIC>MOL_PROPERTY
Idih
SciTegic.value.DoubleValue
0.000

@<SCITEGIC>MOL_PROPERTY
Tether
SciTegic.value.DoubleValue
0.000

@<TRIPOS>MOLECULE
guest-4_confgen4.mol2 : confsearch ligand conformer 792
          16          16           1
SMALL
USER_CHARGES
 
@<TRIPOS>ATOM
       1    C1      20.131608   18.068337   21.297013 C.3        1 MOL1        -0.1689
       2    H1      19.593246   17.865290   20.360975 H          1 MOL1         0.0830
       3    H2      21.178236   17.767689   21.151490 H          1 MOL1         0.0830
       4    C2      19.474432   17.292920   22.459712 C.3        1 MOL1        -0.1689
       5    H3      18.618680   16.713773   22.086208 H          1 MOL1         0.0830
       6    H4      20.177620   16.587355   22.923074 H          1 MOL1         0.0830
       7    C3      18.998564   18.351039   23.477734 C.3        1 MOL1        -0.1765
       8    H5      19.743099   18.450488   24.278607 H          1 MOL1         0.0830
       9    H6      18.041460   18.080082   23.943073 H          1 MOL1         0.0830
      10    C4      18.915832   19.675479   22.707016 C.3        1 MOL1         0.1214
      11    H7      19.068409   20.539481   23.369740 H          1 MOL1         0.0787
      12    C5      20.029273   19.565840   21.656690 C.3        1 MOL1        -0.1765
      13    H8      19.834106   20.192950   20.776550 H          1 MOL1         0.0830
      14    H9      20.974710   19.901381   22.102989 H          1 MOL1         0.0830
      15    O1      17.659432   19.756571   22.049984 O.3        1 MOL1        -0.5512
      16    H10     17.613047   18.955088   21.489060 H          1 MOL1         0.3776
@<TRIPOS>BOND
    1     1     2    1
    2     1     3    1
    3     1     4    1
    4     4     5    1
    5     4     6    1
    6     4     7    1
    7     7     8    1
    8     7     9    1
    9     7    10    1
   10    10    11    1
   11     1    12    1
   12    10    12    1
   13    12    13    1
   14    12    14    1
   15    10    15    1
   16    15    16    1
@<TRIPOS>SUBSTRUCTURE
       1 MOL1            1 RESIDUE      1      MOL     
@<SCITEGIC>MOL_PROPERTY
VConf Rank
SciTegic.value.IntegerValue
792

@<SCITEGIC>MOL_PROPERTY
Conf_Id
SciTegic.value.IntegerValue
20

@<SCITEGIC>MOL_PROPERTY
Delta U+W
SciTegic.value.DoubleValue
-0.483

@<SCITEGIC>MOL_PROPERTY
U+W
SciTegic.value.DoubleValue
2.527

@<SCITEGIC>MOL_PROPERTY
Grad RMS
SciTegic.value.DoubleValue
0.000000

@<SCITEGIC>MOL_PROPERTY
U
SciTegic.value.DoubleValue
4.508

@<SCITEGIC>MOL_PROPERTY
W
SciTegic.value.DoubleValue
-1.981

@<SCITEGIC>MOL_PROPERTY
W(PB)
SciTegic.value.DoubleValue
-3.712

@<SCITEGIC>MOL_PROPERTY
W(SA)
SciTegic.value.DoubleValue
1.732

@<SCITEGIC>MOL_PROPERTY
Valence
SciTegic.value.DoubleValue
14.705

@<SCITEGIC>MOL_PROPERTY
Coulomb
SciTegic.value.DoubleValue
-10.687

@<SCITEGIC>MOL_PROPERTY
VdW
SciTegic.value.DoubleValue
0.490

@<SCITEGIC>MOL_PROPERTY
VdW6
SciTegic.value.DoubleValue
-3.745

@<SCITEGIC>MOL_PROPERTY
VdW12
SciTegic.value.DoubleValue
4.235

@<SCITEGIC>MOL_PROPERTY
Bond
SciTegic.value.DoubleValue
0.068

@<SCITEGIC>MOL_PROPERTY
Angle
SciTegic.value.DoubleValue
3.901

@<SCITEGIC>MOL_PROPERTY
Pdih
SciTegic.value.DoubleValue
10.737

@<SCITEGIC>MOL_PROPERTY
Idih
SciTegic.value.DoubleValue
0.000

@<SCITEGIC>MOL_PROPERTY
Tether
SciTegic.value.DoubleValue
0.000

@<TRIPOS>MOLECULE
guest-4_confgen4.mol2 : confsearch ligand conformer 793
          16          16           1
SMALL
USER_CHARGES
 
@<TRIPOS>ATOM
       1    C1      20.329992   17.989239   23.236145 C.3        1 MOL1        -0.1689
       2    H1      20.505889   16.967130   22.872784 H          1 MOL1         0.0830
       3    H2      20.993259   18.168683   24.093187 H          1 MOL1         0.0830
       4    C2      18.847728   18.159081   23.596388 C.3        1 MOL1        -0.1689
       5    H3      18.432926   17.269558   24.089791 H          1 MOL1         0.0830
       6    H4      18.727906   19.015448   24.274549 H          1 MOL1         0.0830
       7    C3      18.158731   18.458490   22.252441 C.3        1 MOL1        -0.1765
       8    H5      17.265454   19.081449   22.389643 H          1 MOL1         0.0830
       9    H6      17.843544   17.514396   21.787545 H          1 MOL1         0.0830
      10    C4      19.211780   19.163028   21.371309 C.3        1 MOL1         0.1214
      11    H7      18.977569   20.234414   21.288882 H          1 MOL1         0.0787
      12    C5      20.565486   18.991287   22.090906 C.3        1 MOL1        -0.1765
      13    H8      21.358196   18.650060   21.411792 H          1 MOL1         0.0830
      14    H9      20.875501   19.959087   22.506038 H          1 MOL1         0.0830
      15    O1      19.259753   18.557691   20.084781 O.3        1 MOL1        -0.5512
      16    H10     18.375852   18.686495   19.680232 H          1 MOL1         0.3776
@<TRIPOS>BOND
    1     1     2    1
    2     1     3    1
    3     1     4    1
    4     4     5    1
    5     4     6    1
    6     4     7    1
    7     7     8    1
    8     7     9    1
    9     7    10    1
   10    10    11    1
   11     1    12    1
   12    10    12    1
   13    12    13    1
   14    12    14    1
   15    10    15    1
   16    15    16    1
@<TRIPOS>SUBSTRUCTURE
       1 MOL1            1 RESIDUE      1      MOL     
@<SCITEGIC>MOL_PROPERTY
VConf Rank
SciTegic.value.IntegerValue
793

@<SCITEGIC>MOL_PROPERTY
Conf_Id
SciTegic.value.IntegerValue
59

@<SCITEGIC>MOL_PROPERTY
Delta U+W
SciTegic.value.DoubleValue
0.000

@<SCITEGIC>MOL_PROPERTY
U+W
SciTegic.value.DoubleValue
3.010

@<SCITEGIC>MOL_PROPERTY
Grad RMS
SciTegic.value.DoubleValue
0.000000

@<SCITEGIC>MOL_PROPERTY
U
SciTegic.value.DoubleValue
5.843

@<SCITEGIC>MOL_PROPERTY
W
SciTegic.value.DoubleValue
-2.833

@<SCITEGIC>MOL_PROPERTY
W(PB)
SciTegic.value.DoubleValue
-4.568

@<SCITEGIC>MOL_PROPERTY
W(SA)
SciTegic.value.DoubleValue
1.735

@<SCITEGIC>MOL_PROPERTY
Valence
SciTegic.value.DoubleValue
13.789

@<SCITEGIC>MOL_PROPERTY
Coulomb
SciTegic.value.DoubleValue
-8.574

@<SCITEGIC>MOL_PROPERTY
VdW
SciTegic.value.DoubleValue
0.628

@<SCITEGIC>MOL_PROPERTY
VdW6
SciTegic.value.DoubleValue
-3.284

@<SCITEGIC>MOL_PROPERTY
VdW12
SciTegic.value.DoubleValue
3.912

@<SCITEGIC>MOL_PROPERTY
Bond
SciTegic.value.DoubleValue
0.054

@<SCITEGIC>MOL_PROPERTY
Angle
SciTegic.value.DoubleValue
4.034

@<SCITEGIC>MOL_PROPERTY
Pdih
SciTegic.value.DoubleValue
9.702

@<SCITEGIC>MOL_PROPERTY
Idih
SciTegic.value.DoubleValue
0.000

@<SCITEGIC>MOL_PROPERTY
Tether
SciTegic.value.DoubleValue
0.000

@<TRIPOS>MOLECULE
guest-4_confgen4.mol2 : confsearch ligand conformer 794
          16          16           1
SMALL
USER_CHARGES
 
@<TRIPOS>ATOM
       1    C1      20.566744   19.490996   22.506364 C.3        1 MOL1        -0.1689
       2    H1      21.318257   20.040155   21.922917 H          1 MOL1         0.0830
       3    H2      20.647002   19.808392   23.555383 H          1 MOL1         0.0830
       4    C2      20.750871   17.970193   22.411598 C.3        1 MOL1        -0.1689
       5    H3      21.027495   17.696040   21.383981 H          1 MOL1         0.0830
       6    H4      21.532052   17.599151   23.088892 H          1 MOL1         0.0830
       7    C3      19.362553   17.392639   22.743383 C.3        1 MOL1        -0.1765
       8    H5      19.283808   17.220870   23.824762 H          1 MOL1         0.0830
       9    H6      19.193502   16.431592   22.239569 H          1 MOL1         0.0830
      10    C4      18.330740   18.461330   22.327381 C.3        1 MOL1         0.1214
      11    H7      17.648608   18.654457   23.168165 H          1 MOL1         0.0787
      12    C5      19.134937   19.736171   21.996043 C.3        1 MOL1        -0.1765
      13    H8      19.159327   19.899336   20.909965 H          1 MOL1         0.0830
      14    H9      18.690378   20.625738   22.460677 H          1 MOL1         0.0830
      15    O1      17.607688   18.025581   21.182298 O.3        1 MOL1        -0.5512
      16    H10     16.978654   18.743269   20.956980 H          1 MOL1         0.3776
@<TRIPOS>BOND
    1     1     2    1
    2     1     3    1
    3     1     4    1
    4     4     5    1
    5     4     6    1
    6     4     7    1
    7     7     8    1
    8     7     9    1
    9     7    10    1
   10    10    11    1
   11     1    12    1
   12    10    12    1
   13    12    13    1
   14    12    14    1
   15    10    15    1
   16    15    16    1
@<TRIPOS>SUBSTRUCTURE
       1 MOL1            1 RESIDUE      1      MOL     
@<SCITEGIC>MOL_PROPERTY
VConf Rank
SciTegic.value.IntegerValue
794

@<SCITEGIC>MOL_PROPERTY
Conf_Id
SciTegic.value.IntegerValue
33

@<SCITEGIC>MOL_PROPERTY
Delta U+W
SciTegic.value.DoubleValue
0.015

@<SCITEGIC>MOL_PROPERTY
U+W
SciTegic.value.DoubleValue
3.025

@<SCITEGIC>MOL_PROPERTY
Grad RMS
SciTegic.value.DoubleValue
0.000000

@<SCITEGIC>MOL_PROPERTY
U
SciTegic.value.DoubleValue
5.843

@<SCITEGIC>MOL_PROPERTY
W
SciTegic.value.DoubleValue
-2.819

@<SCITEGIC>MOL_PROPERTY
W(PB)
SciTegic.value.DoubleValue
-4.568

@<SCITEGIC>MOL_PROPERTY
W(SA)
SciTegic.value.DoubleValue
1.750

@<SCITEGIC>MOL_PROPERTY
Valence
SciTegic.value.DoubleValue
13.789

@<SCITEGIC>MOL_PROPERTY
Coulomb
SciTegic.value.DoubleValue
-8.574

@<SCITEGIC>MOL_PROPERTY
VdW
SciTegic.value.DoubleValue
0.628

@<SCITEGIC>MOL_PROPERTY
VdW6
SciTegic.value.DoubleValue
-3.284

@<SCITEGIC>MOL_PROPERTY
VdW12
SciTegic.value.DoubleValue
3.913

@<SCITEGIC>MOL_PROPERTY
Bond
SciTegic.value.DoubleValue
0.054

@<SCITEGIC>MOL_PROPERTY
Angle
SciTegic.value.DoubleValue
4.033

@<SCITEGIC>MOL_PROPERTY
Pdih
SciTegic.value.DoubleValue
9.702

@<SCITEGIC>MOL_PROPERTY
Idih
SciTegic.value.DoubleValue
0.000

@<SCITEGIC>MOL_PROPERTY
Tether
SciTegic.value.DoubleValue
0.000

@<TRIPOS>MOLECULE
guest-4_confgen4.mol2 : confsearch ligand conformer 795
          16          16           1
SMALL
USER_CHARGES
 
@<TRIPOS>ATOM
       1    C1      19.997766   19.776104   22.462772 C.3        1 MOL1        -0.1689
       2    H1      20.755811   19.751871   23.257761 H          1 MOL1         0.0830
       3    H2      19.986691   20.791588   22.043645 H          1 MOL1         0.0830
       4    C2      18.619525   19.384578   23.039124 C.3        1 MOL1        -0.1689
       5    H3      18.710338   19.171889   24.113248 H          1 MOL1         0.0830
       6    H4      17.887190   20.194904   22.920568 H          1 MOL1         0.0830
       7    C3      18.171999   18.116997   22.280576 C.3        1 MOL1        -0.1765
       8    H5      17.488105   18.397600   21.468682 H          1 MOL1         0.0830
       9    H6      17.644487   17.406932   22.931378 H          1 MOL1         0.0830
      10    C4      19.445393   17.513244   21.673168 C.3        1 MOL1         0.1214
      11    H7      19.226152   16.940633   20.760461 H          1 MOL1         0.0787
      12    C5      20.330757   18.731117   21.376735 C.3        1 MOL1        -0.1765
      13    H8      21.398463   18.474803   21.359127 H          1 MOL1         0.0830
      14    H9      20.066998   19.131712   20.389022 H          1 MOL1         0.0830
      15    O1      20.084027   16.695710   22.643008 O.3        1 MOL1        -0.5512
      16    H10     20.238050   17.284083   23.410639 H          1 MOL1         0.3776
@<TRIPOS>BOND
    1     1     2    1
    2     1     3    1
    3     1     4    1
    4     4     5    1
    5     4     6    1
    6     4     7    1
    7     7     8    1
    8     7     9    1
    9     7    10    1
   10    10    11    1
   11     1    12    1
   12    10    12    1
   13    12    13    1
   14    12    14    1
   15    10    15    1
   16    15    16    1
@<TRIPOS>SUBSTRUCTURE
       1 MOL1            1 RESIDUE      1      MOL     
@<SCITEGIC>MOL_PROPERTY
VConf Rank
SciTegic.value.IntegerValue
795

@<SCITEGIC>MOL_PROPERTY
Conf_Id
SciTegic.value.IntegerValue
20

@<SCITEGIC>MOL_PROPERTY
Delta U+W
SciTegic.value.DoubleValue
-0.483

@<SCITEGIC>MOL_PROPERTY
U+W
SciTegic.value.DoubleValue
2.527

@<SCITEGIC>MOL_PROPERTY
Grad RMS
SciTegic.value.DoubleValue
0.000000

@<SCITEGIC>MOL_PROPERTY
U
SciTegic.value.DoubleValue
4.508

@<SCITEGIC>MOL_PROPERTY
W
SciTegic.value.DoubleValue
-1.981

@<SCITEGIC>MOL_PROPERTY
W(PB)
SciTegic.value.DoubleValue
-3.712

@<SCITEGIC>MOL_PROPERTY
W(SA)
SciTegic.value.DoubleValue
1.732

@<SCITEGIC>MOL_PROPERTY
Valence
SciTegic.value.DoubleValue
14.705

@<SCITEGIC>MOL_PROPERTY
Coulomb
SciTegic.value.DoubleValue
-10.687

@<SCITEGIC>MOL_PROPERTY
VdW
SciTegic.value.DoubleValue
0.490

@<SCITEGIC>MOL_PROPERTY
VdW6
SciTegic.value.DoubleValue
-3.745

@<SCITEGIC>MOL_PROPERTY
VdW12
SciTegic.value.DoubleValue
4.235

@<SCITEGIC>MOL_PROPERTY
Bond
SciTegic.value.DoubleValue
0.068

@<SCITEGIC>MOL_PROPERTY
Angle
SciTegic.value.DoubleValue
3.901

@<SCITEGIC>MOL_PROPERTY
Pdih
SciTegic.value.DoubleValue
10.737

@<SCITEGIC>MOL_PROPERTY
Idih
SciTegic.value.DoubleValue
0.000

@<SCITEGIC>MOL_PROPERTY
Tether
SciTegic.value.DoubleValue
0.000

@<TRIPOS>MOLECULE
guest-4_confgen4.mol2 : confsearch ligand conformer 796
          16          16           1
SMALL
USER_CHARGES
 
@<TRIPOS>ATOM
       1    C1      18.839394   17.236817   22.644966 C.3        1 MOL1        -0.1689
       2    H1      17.875131   17.426309   23.136867 H          1 MOL1         0.0830
       3    H2      18.975270   16.150002   22.561214 H          1 MOL1         0.0830
       4    C2      19.964940   17.908475   23.443559 C.3        1 MOL1        -0.1689
       5    H3      19.819294   17.817580   24.528586 H          1 MOL1         0.0830
       6    H4      20.927830   17.445638   23.186167 H          1 MOL1         0.0830
       7    C3      19.948363   19.373688   22.970874 C.3        1 MOL1        -0.1765
       8    H5      20.945708   19.827466   23.035941 H          1 MOL1         0.0830
       9    H6      19.270963   19.954459   23.611669 H          1 MOL1         0.0830
      10    C4      19.426730   19.356249   21.518540 C.3        1 MOL1         0.1214
      11    H7      20.254279   19.544649   20.819122 H          1 MOL1         0.0787
      12    C5      18.866386   17.939699   21.275163 C.3        1 MOL1        -0.1765
      13    H8      17.871259   17.959145   20.811087 H          1 MOL1         0.0830
      14    H9      19.540195   17.399826   20.597225 H          1 MOL1         0.0830
      15    O1      18.398367   20.325517   21.354589 O.3        1 MOL1        -0.5512
      16    H10     18.805456   21.200014   21.530844 H          1 MOL1         0.3776
@<TRIPOS>BOND
    1     1     2    1
    2     1     3    1
    3     1     4    1
    4     4     5    1
    5     4     6    1
    6     4     7    1
    7     7     8    1
    8     7     9    1
    9     7    10    1
   10    10    11    1
   11     1    12    1
   12    10    12    1
   13    12    13    1
   14    12    14    1
   15    10    15    1
   16    15    16    1
@<TRIPOS>SUBSTRUCTURE
       1 MOL1            1 RESIDUE      1      MOL     
@<SCITEGIC>MOL_PROPERTY
VConf Rank
SciTegic.value.IntegerValue
796

@<SCITEGIC>MOL_PROPERTY
Conf_Id
SciTegic.value.IntegerValue
59

@<SCITEGIC>MOL_PROPERTY
Delta U+W
SciTegic.value.DoubleValue
0.000

@<SCITEGIC>MOL_PROPERTY
U+W
SciTegic.value.DoubleValue
3.010

@<SCITEGIC>MOL_PROPERTY
Grad RMS
SciTegic.value.DoubleValue
0.000000

@<SCITEGIC>MOL_PROPERTY
U
SciTegic.value.DoubleValue
5.843

@<SCITEGIC>MOL_PROPERTY
W
SciTegic.value.DoubleValue
-2.833

@<SCITEGIC>MOL_PROPERTY
W(PB)
SciTegic.value.DoubleValue
-4.568

@<SCITEGIC>MOL_PROPERTY
W(SA)
SciTegic.value.DoubleValue
1.735

@<SCITEGIC>MOL_PROPERTY
Valence
SciTegic.value.DoubleValue
13.789

@<SCITEGIC>MOL_PROPERTY
Coulomb
SciTegic.value.DoubleValue
-8.574

@<SCITEGIC>MOL_PROPERTY
VdW
SciTegic.value.DoubleValue
0.628

@<SCITEGIC>MOL_PROPERTY
VdW6
SciTegic.value.DoubleValue
-3.284

@<SCITEGIC>MOL_PROPERTY
VdW12
SciTegic.value.DoubleValue
3.912

@<SCITEGIC>MOL_PROPERTY
Bond
SciTegic.value.DoubleValue
0.054

@<SCITEGIC>MOL_PROPERTY
Angle
SciTegic.value.DoubleValue
4.034

@<SCITEGIC>MOL_PROPERTY
Pdih
SciTegic.value.DoubleValue
9.702

@<SCITEGIC>MOL_PROPERTY
Idih
SciTegic.value.DoubleValue
0.000

@<SCITEGIC>MOL_PROPERTY
Tether
SciTegic.value.DoubleValue
0.000

@<TRIPOS>MOLECULE
guest-4_confgen4.mol2 : confsearch ligand conformer 797
          16          16           1
SMALL
USER_CHARGES
 
@<TRIPOS>ATOM
       1    C1      19.075643   19.021617   23.615763 C.3        1 MOL1        -0.1689
       2    H1      19.540222   19.207790   24.593651 H          1 MOL1         0.0830
       3    H2      18.030140   19.356793   23.662687 H          1 MOL1         0.0830
       4    C2      19.125451   17.540008   23.218170 C.3        1 MOL1        -0.1689
       5    H3      20.094610   17.112530   23.510870 H          1 MOL1         0.0830
       6    H4      18.331009   16.950538   23.695695 H          1 MOL1         0.0830
       7    C3      19.008437   17.549011   21.682819 C.3        1 MOL1        -0.1765
       8    H5      17.950904   17.493715   21.393591 H          1 MOL1         0.0830
       9    H6      19.522884   16.689312   21.233063 H          1 MOL1         0.0830
      10    C4      19.590789   18.895332   21.205236 C.3        1 MOL1         0.1214
      11    H7      18.868583   19.387078   20.537312 H          1 MOL1         0.0787
      12    C5      19.805342   19.749972   22.472238 C.3        1 MOL1        -0.1765
      13    H8      20.875903   19.817363   22.709172 H          1 MOL1         0.0830
      14    H9      19.424542   20.770861   22.339484 H          1 MOL1         0.0830
      15    O1      20.830210   18.685051   20.539267 O.3        1 MOL1        -0.5512
      16    H10     21.157946   19.568940   20.269342 H          1 MOL1         0.3776
@<TRIPOS>BOND
    1     1     2    1
    2     1     3    1
    3     1     4    1
    4     4     5    1
    5     4     6    1
    6     4     7    1
    7     7     8    1
    8     7     9    1
    9     7    10    1
   10    10    11    1
   11     1    12    1
   12    10    12    1
   13    12    13    1
   14    12    14    1
   15    10    15    1
   16    15    16    1
@<TRIPOS>SUBSTRUCTURE
       1 MOL1            1 RESIDUE      1      MOL     
@<SCITEGIC>MOL_PROPERTY
VConf Rank
SciTegic.value.IntegerValue
797

@<SCITEGIC>MOL_PROPERTY
Conf_Id
SciTegic.value.IntegerValue
33

@<SCITEGIC>MOL_PROPERTY
Delta U+W
SciTegic.value.DoubleValue
0.015

@<SCITEGIC>MOL_PROPERTY
U+W
SciTegic.value.DoubleValue
3.025

@<SCITEGIC>MOL_PROPERTY
Grad RMS
SciTegic.value.DoubleValue
0.000000

@<SCITEGIC>MOL_PROPERTY
U
SciTegic.value.DoubleValue
5.843

@<SCITEGIC>MOL_PROPERTY
W
SciTegic.value.DoubleValue
-2.819

@<SCITEGIC>MOL_PROPERTY
W(PB)
SciTegic.value.DoubleValue
-4.568

@<SCITEGIC>MOL_PROPERTY
W(SA)
SciTegic.value.DoubleValue
1.750

@<SCITEGIC>MOL_PROPERTY
Valence
SciTegic.value.DoubleValue
13.789

@<SCITEGIC>MOL_PROPERTY
Coulomb
SciTegic.value.DoubleValue
-8.574

@<SCITEGIC>MOL_PROPERTY
VdW
SciTegic.value.DoubleValue
0.628

@<SCITEGIC>MOL_PROPERTY
VdW6
SciTegic.value.DoubleValue
-3.284

@<SCITEGIC>MOL_PROPERTY
VdW12
SciTegic.value.DoubleValue
3.913

@<SCITEGIC>MOL_PROPERTY
Bond
SciTegic.value.DoubleValue
0.054

@<SCITEGIC>MOL_PROPERTY
Angle
SciTegic.value.DoubleValue
4.033

@<SCITEGIC>MOL_PROPERTY
Pdih
SciTegic.value.DoubleValue
9.702

@<SCITEGIC>MOL_PROPERTY
Idih
SciTegic.value.DoubleValue
0.000

@<SCITEGIC>MOL_PROPERTY
Tether
SciTegic.value.DoubleValue
0.000

@<TRIPOS>MOLECULE
guest-4_confgen4.mol2 : confsearch ligand conformer 798
          16          16           1
SMALL
USER_CHARGES
 
@<TRIPOS>ATOM
       1    C1      20.452548   17.909435   22.631859 C.3        1 MOL1        -0.1689
       2    H1      21.275216   17.920217   21.903622 H          1 MOL1         0.0830
       3    H2      20.779357   17.313592   23.495088 H          1 MOL1         0.0830
       4    C2      19.182986   17.317759   21.981358 C.3        1 MOL1        -0.1689
       5    H3      19.391508   17.041212   20.938637 H          1 MOL1         0.0830
       6    H4      18.845088   16.412951   22.504948 H          1 MOL1         0.0830
       7    C3      18.107733   18.423839   22.034795 C.3        1 MOL1        -0.1765
       8    H5      17.453750   18.258159   22.901096 H          1 MOL1         0.0830
       9    H6      17.476136   18.434103   21.136471 H          1 MOL1         0.0830
      10    C4      18.865412   19.744325   22.227748 C.3        1 MOL1         0.1214
      11    H7      18.249845   20.491592   22.748950 H          1 MOL1         0.0787
      12    C5      20.096406   19.350415   23.055060 C.3        1 MOL1        -0.1765
      13    H8      20.934218   20.045646   22.911086 H          1 MOL1         0.0830
      14    H9      19.829670   19.364663   24.120082 H          1 MOL1         0.0830
      15    O1      19.288423   20.230086   20.962085 O.3        1 MOL1        -0.5512
      16    H10     19.823456   19.505769   20.577030 H          1 MOL1         0.3776
@<TRIPOS>BOND
    1     1     2    1
    2     1     3    1
    3     1     4    1
    4     4     5    1
    5     4     6    1
    6     4     7    1
    7     7     8    1
    8     7     9    1
    9     7    10    1
   10    10    11    1
   11     1    12    1
   12    10    12    1
   13    12    13    1
   14    12    14    1
   15    10    15    1
   16    15    16    1
@<TRIPOS>SUBSTRUCTURE
       1 MOL1            1 RESIDUE      1      MOL     
@<SCITEGIC>MOL_PROPERTY
VConf Rank
SciTegic.value.IntegerValue
798

@<SCITEGIC>MOL_PROPERTY
Conf_Id
SciTegic.value.IntegerValue
20

@<SCITEGIC>MOL_PROPERTY
Delta U+W
SciTegic.value.DoubleValue
-0.483

@<SCITEGIC>MOL_PROPERTY
U+W
SciTegic.value.DoubleValue
2.527

@<SCITEGIC>MOL_PROPERTY
Grad RMS
SciTegic.value.DoubleValue
0.000000

@<SCITEGIC>MOL_PROPERTY
U
SciTegic.value.DoubleValue
4.508

@<SCITEGIC>MOL_PROPERTY
W
SciTegic.value.DoubleValue
-1.981

@<SCITEGIC>MOL_PROPERTY
W(PB)
SciTegic.value.DoubleValue
-3.712

@<SCITEGIC>MOL_PROPERTY
W(SA)
SciTegic.value.DoubleValue
1.732

@<SCITEGIC>MOL_PROPERTY
Valence
SciTegic.value.DoubleValue
14.705

@<SCITEGIC>MOL_PROPERTY
Coulomb
SciTegic.value.DoubleValue
-10.687

@<SCITEGIC>MOL_PROPERTY
VdW
SciTegic.value.DoubleValue
0.490

@<SCITEGIC>MOL_PROPERTY
VdW6
SciTegic.value.DoubleValue
-3.745

@<SCITEGIC>MOL_PROPERTY
VdW12
SciTegic.value.DoubleValue
4.235

@<SCITEGIC>MOL_PROPERTY
Bond
SciTegic.value.DoubleValue
0.068

@<SCITEGIC>MOL_PROPERTY
Angle
SciTegic.value.DoubleValue
3.901

@<SCITEGIC>MOL_PROPERTY
Pdih
SciTegic.value.DoubleValue
10.737

@<SCITEGIC>MOL_PROPERTY
Idih
SciTegic.value.DoubleValue
0.000

@<SCITEGIC>MOL_PROPERTY
Tether
SciTegic.value.DoubleValue
0.000

@<TRIPOS>MOLECULE
guest-4_confgen4.mol2 : confsearch ligand conformer 799
          16          16           1
SMALL
USER_CHARGES
 
@<TRIPOS>ATOM
       1    C1      20.011969   17.817138   23.383290 C.3        1 MOL1        -0.1689
       2    H1      19.320460   16.999111   23.628898 H          1 MOL1         0.0830
       3    H2      20.914467   17.701275   23.998691 H          1 MOL1         0.0830
       4    C2      19.315507   19.165569   23.612200 C.3        1 MOL1        -0.1689
       5    H3      18.687532   19.163959   24.513535 H          1 MOL1         0.0830
       6    H4      20.069684   19.957503   23.720296 H          1 MOL1         0.0830
       7    C3      18.497435   19.396997   22.328551 C.3        1 MOL1        -0.1765
       8    H5      18.376398   20.467357   22.117540 H          1 MOL1         0.0830
       9    H6      17.496252   18.962200   22.452516 H          1 MOL1         0.0830
      10    C4      19.256179   18.677327   21.193622 C.3        1 MOL1         0.1214
      11    H7      19.754215   19.414673   20.547247 H          1 MOL1         0.0787
      12    C5      20.322207   17.794778   21.875184 C.3        1 MOL1        -0.1765
      13    H8      20.330477   16.770459   21.479303 H          1 MOL1         0.0830
      14    H9      21.314274   18.229514   21.696611 H          1 MOL1         0.0830
      15    O1      18.360247   17.869995   20.439031 O.3        1 MOL1        -0.5512
      16    H10     17.702263   18.477679   20.039896 H          1 MOL1         0.3776
@<TRIPOS>BOND
    1     1     2    1
    2     1     3    1
    3     1     4    1
    4     4     5    1
    5     4     6    1
    6     4     7    1
    7     7     8    1
    8     7     9    1
    9     7    10    1
   10    10    11    1
   11     1    12    1
   12    10    12    1
   13    12    13    1
   14    12    14    1
   15    10    15    1
   16    15    16    1
@<TRIPOS>SUBSTRUCTURE
       1 MOL1            1 RESIDUE      1      MOL     
@<SCITEGIC>MOL_PROPERTY
VConf Rank
SciTegic.value.IntegerValue
799

@<SCITEGIC>MOL_PROPERTY
Conf_Id
SciTegic.value.IntegerValue
59

@<SCITEGIC>MOL_PROPERTY
Delta U+W
SciTegic.value.DoubleValue
0.000

@<SCITEGIC>MOL_PROPERTY
U+W
SciTegic.value.DoubleValue
3.010

@<SCITEGIC>MOL_PROPERTY
Grad RMS
SciTegic.value.DoubleValue
0.000000

@<SCITEGIC>MOL_PROPERTY
U
SciTegic.value.DoubleValue
5.843

@<SCITEGIC>MOL_PROPERTY
W
SciTegic.value.DoubleValue
-2.833

@<SCITEGIC>MOL_PROPERTY
W(PB)
SciTegic.value.DoubleValue
-4.568

@<SCITEGIC>MOL_PROPERTY
W(SA)
SciTegic.value.DoubleValue
1.735

@<SCITEGIC>MOL_PROPERTY
Valence
SciTegic.value.DoubleValue
13.789

@<SCITEGIC>MOL_PROPERTY
Coulomb
SciTegic.value.DoubleValue
-8.574

@<SCITEGIC>MOL_PROPERTY
VdW
SciTegic.value.DoubleValue
0.628

@<SCITEGIC>MOL_PROPERTY
VdW6
SciTegic.value.DoubleValue
-3.284

@<SCITEGIC>MOL_PROPERTY
VdW12
SciTegic.value.DoubleValue
3.912

@<SCITEGIC>MOL_PROPERTY
Bond
SciTegic.value.DoubleValue
0.054

@<SCITEGIC>MOL_PROPERTY
Angle
SciTegic.value.DoubleValue
4.034

@<SCITEGIC>MOL_PROPERTY
Pdih
SciTegic.value.DoubleValue
9.702

@<SCITEGIC>MOL_PROPERTY
Idih
SciTegic.value.DoubleValue
0.000

@<SCITEGIC>MOL_PROPERTY
Tether
SciTegic.value.DoubleValue
0.000

@<TRIPOS>MOLECULE
guest-4_confgen4.mol2 : confsearch ligand conformer 800
          16          16           1
SMALL
USER_CHARGES
 
@<TRIPOS>ATOM
       1    C1      20.132947   18.889389   21.059470 C.3        1 MOL1        -0.1689
       2    H1      20.577795   19.741049   20.526982 H          1 MOL1         0.0830
       3    H2      20.392196   17.970553   20.515272 H          1 MOL1         0.0830
       4    C2      18.607122   19.006670   21.177073 C.3        1 MOL1        -0.1689
       5    H3      18.332843   20.050548   21.383881 H          1 MOL1         0.0830
       6    H4      18.090157   18.690034   20.261032 H          1 MOL1         0.0830
       7    C3      18.245554   18.128675   22.389289 C.3        1 MOL1        -0.1765
       8    H5      18.046325   17.102362   22.054514 H          1 MOL1         0.0830
       9    H6      17.344174   18.494434   22.898949 H          1 MOL1         0.0830
      10    C4      19.480415   18.125380   23.313900 C.3        1 MOL1         0.1214
      11    H7      19.746673   17.087262   23.560755 H          1 MOL1         0.0787
      12    C5      20.622854   18.788184   22.515615 C.3        1 MOL1        -0.1765
      13    H8      20.822438   19.796713   22.902679 H          1 MOL1         0.0830
      14    H9      21.552999   18.209698   22.586541 H          1 MOL1         0.0830
      15    O1      19.210568   18.870489   24.495379 O.3        1 MOL1        -0.5512
      16    H10     20.027556   18.844473   25.037027 H          1 MOL1         0.3776
@<TRIPOS>BOND
    1     1     2    1
    2     1     3    1
    3     1     4    1
    4     4     5    1
    5     4     6    1
    6     4     7    1
    7     7     8    1
    8     7     9    1
    9     7    10    1
   10    10    11    1
   11     1    12    1
   12    10    12    1
   13    12    13    1
   14    12    14    1
   15    10    15    1
   16    15    16    1
@<TRIPOS>SUBSTRUCTURE
       1 MOL1            1 RESIDUE      1      MOL     
@<SCITEGIC>MOL_PROPERTY
VConf Rank
SciTegic.value.IntegerValue
800

@<SCITEGIC>MOL_PROPERTY
Conf_Id
SciTegic.value.IntegerValue
33

@<SCITEGIC>MOL_PROPERTY
Delta U+W
SciTegic.value.DoubleValue
0.015

@<SCITEGIC>MOL_PROPERTY
U+W
SciTegic.value.DoubleValue
3.025

@<SCITEGIC>MOL_PROPERTY
Grad RMS
SciTegic.value.DoubleValue
0.000000

@<SCITEGIC>MOL_PROPERTY
U
SciTegic.value.DoubleValue
5.843

@<SCITEGIC>MOL_PROPERTY
W
SciTegic.value.DoubleValue
-2.819

@<SCITEGIC>MOL_PROPERTY
W(PB)
SciTegic.value.DoubleValue
-4.568

@<SCITEGIC>MOL_PROPERTY
W(SA)
SciTegic.value.DoubleValue
1.750

@<SCITEGIC>MOL_PROPERTY
Valence
SciTegic.value.DoubleValue
13.789

@<SCITEGIC>MOL_PROPERTY
Coulomb
SciTegic.value.DoubleValue
-8.574

@<SCITEGIC>MOL_PROPERTY
VdW
SciTegic.value.DoubleValue
0.628

@<SCITEGIC>MOL_PROPERTY
VdW6
SciTegic.value.DoubleValue
-3.284

@<SCITEGIC>MOL_PROPERTY
VdW12
SciTegic.value.DoubleValue
3.913

@<SCITEGIC>MOL_PROPERTY
Bond
SciTegic.value.DoubleValue
0.054

@<SCITEGIC>MOL_PROPERTY
Angle
SciTegic.value.DoubleValue
4.033

@<SCITEGIC>MOL_PROPERTY
Pdih
SciTegic.value.DoubleValue
9.702

@<SCITEGIC>MOL_PROPERTY
Idih
SciTegic.value.DoubleValue
0.000

@<SCITEGIC>MOL_PROPERTY
Tether
SciTegic.value.DoubleValue
0.000

@<TRIPOS>MOLECULE
guest-4_confgen4.mol2 : confsearch ligand conformer 801
          16          16           1
SMALL
USER_CHARGES
 
@<TRIPOS>ATOM
       1    C1      18.779178   18.351291   21.092345 C.3        1 MOL1        -0.1689
       2    H1      17.725971   18.051382   21.181998 H          1 MOL1         0.0830
       3    H2      19.031772   18.365702   20.023240 H          1 MOL1         0.0830
       4    C2      19.674448   17.365233   21.874139 C.3        1 MOL1        -0.1689
       5    H3      19.054641   16.587510   22.341272 H          1 MOL1         0.0830
       6    H4      20.396066   16.864570   21.214137 H          1 MOL1         0.0830
       7    C3      20.396147   18.194223   22.957820 C.3        1 MOL1        -0.1765
       8    H5      21.402219   18.459746   22.607197 H          1 MOL1         0.0830
       9    H6      20.505865   17.641523   23.900417 H          1 MOL1         0.0830
      10    C4      19.573210   19.478118   23.129231 C.3        1 MOL1         0.1214
      11    H7      20.197322   20.316043   23.471791 H          1 MOL1         0.0787
      12    C5      18.994444   19.739323   21.732177 C.3        1 MOL1        -0.1765
      13    H8      18.068626   20.328822   21.768998 H          1 MOL1         0.0830
      14    H9      19.727693   20.305329   21.142596 H          1 MOL1         0.0830
      15    O1      18.509540   19.234039   24.037987 O.3        1 MOL1        -0.5512
      16    H10     18.014613   18.480911   23.654570 H          1 MOL1         0.3776
@<TRIPOS>BOND
    1     1     2    1
    2     1     3    1
    3     1     4    1
    4     4     5    1
    5     4     6    1
    6     4     7    1
    7     7     8    1
    8     7     9    1
    9     7    10    1
   10    10    11    1
   11     1    12    1
   12    10    12    1
   13    12    13    1
   14    12    14    1
   15    10    15    1
   16    15    16    1
@<TRIPOS>SUBSTRUCTURE
       1 MOL1            1 RESIDUE      1      MOL     
@<SCITEGIC>MOL_PROPERTY
VConf Rank
SciTegic.value.IntegerValue
801

@<SCITEGIC>MOL_PROPERTY
Conf_Id
SciTegic.value.IntegerValue
20

@<SCITEGIC>MOL_PROPERTY
Delta U+W
SciTegic.value.DoubleValue
-0.483

@<SCITEGIC>MOL_PROPERTY
U+W
SciTegic.value.DoubleValue
2.527

@<SCITEGIC>MOL_PROPERTY
Grad RMS
SciTegic.value.DoubleValue
0.000000

@<SCITEGIC>MOL_PROPERTY
U
SciTegic.value.DoubleValue
4.508

@<SCITEGIC>MOL_PROPERTY
W
SciTegic.value.DoubleValue
-1.981

@<SCITEGIC>MOL_PROPERTY
W(PB)
SciTegic.value.DoubleValue
-3.712

@<SCITEGIC>MOL_PROPERTY
W(SA)
SciTegic.value.DoubleValue
1.732

@<SCITEGIC>MOL_PROPERTY
Valence
SciTegic.value.DoubleValue
14.705

@<SCITEGIC>MOL_PROPERTY
Coulomb
SciTegic.value.DoubleValue
-10.687

@<SCITEGIC>MOL_PROPERTY
VdW
SciTegic.value.DoubleValue
0.490

@<SCITEGIC>MOL_PROPERTY
VdW6
SciTegic.value.DoubleValue
-3.745

@<SCITEGIC>MOL_PROPERTY
VdW12
SciTegic.value.DoubleValue
4.235

@<SCITEGIC>MOL_PROPERTY
Bond
SciTegic.value.DoubleValue
0.068

@<SCITEGIC>MOL_PROPERTY
Angle
SciTegic.value.DoubleValue
3.901

@<SCITEGIC>MOL_PROPERTY
Pdih
SciTegic.value.DoubleValue
10.737

@<SCITEGIC>MOL_PROPERTY
Idih
SciTegic.value.DoubleValue
0.000

@<SCITEGIC>MOL_PROPERTY
Tether
SciTegic.value.DoubleValue
0.000

@<TRIPOS>MOLECULE
guest-4_confgen4.mol2 : confsearch ligand conformer 802
          16          16           1
SMALL
USER_CHARGES
 
@<TRIPOS>ATOM
       1    C1      17.984238   18.096795   22.444916 C.3        1 MOL1        -0.1689
       2    H1      18.010557   17.034193   22.165877 H          1 MOL1         0.0830
       3    H2      16.960096   18.346108   22.754140 H          1 MOL1         0.0830
       4    C2      18.464147   18.950868   21.263403 C.3        1 MOL1        -0.1689
       5    H3      18.093561   18.576602   20.299375 H          1 MOL1         0.0830
       6    H4      18.113600   19.984866   21.388261 H          1 MOL1         0.0830
       7    C3      20.000280   18.906631   21.357724 C.3        1 MOL1        -0.1765
       8    H5      20.453671   19.819085   20.949422 H          1 MOL1         0.0830
       9    H6      20.375545   18.053838   20.775740 H          1 MOL1         0.0830
      10    C4      20.339164   18.724621   22.852284 C.3        1 MOL1         0.1214
      11    H7      20.726764   19.666276   23.267701 H          1 MOL1         0.0787
      12    C5      19.015273   18.363534   23.557098 C.3        1 MOL1        -0.1765
      13    H8      19.121402   17.498894   24.225793 H          1 MOL1         0.0830
      14    H9      18.688926   19.217378   24.164988 H          1 MOL1         0.0830
      15    O1      21.284886   17.674670   23.016911 O.3        1 MOL1        -0.5512
      16    H10     22.097457   17.951179   22.542776 H          1 MOL1         0.3776
@<TRIPOS>BOND
    1     1     2    1
    2     1     3    1
    3     1     4    1
    4     4     5    1
    5     4     6    1
    6     4     7    1
    7     7     8    1
    8     7     9    1
    9     7    10    1
   10    10    11    1
   11     1    12    1
   12    10    12    1
   13    12    13    1
   14    12    14    1
   15    10    15    1
   16    15    16    1
@<TRIPOS>SUBSTRUCTURE
       1 MOL1            1 RESIDUE      1      MOL     
@<SCITEGIC>MOL_PROPERTY
VConf Rank
SciTegic.value.IntegerValue
802

@<SCITEGIC>MOL_PROPERTY
Conf_Id
SciTegic.value.IntegerValue
59

@<SCITEGIC>MOL_PROPERTY
Delta U+W
SciTegic.value.DoubleValue
0.000

@<SCITEGIC>MOL_PROPERTY
U+W
SciTegic.value.DoubleValue
3.010

@<SCITEGIC>MOL_PROPERTY
Grad RMS
SciTegic.value.DoubleValue
0.000000

@<SCITEGIC>MOL_PROPERTY
U
SciTegic.value.DoubleValue
5.843

@<SCITEGIC>MOL_PROPERTY
W
SciTegic.value.DoubleValue
-2.833

@<SCITEGIC>MOL_PROPERTY
W(PB)
SciTegic.value.DoubleValue
-4.568

@<SCITEGIC>MOL_PROPERTY
W(SA)
SciTegic.value.DoubleValue
1.735

@<SCITEGIC>MOL_PROPERTY
Valence
SciTegic.value.DoubleValue
13.789

@<SCITEGIC>MOL_PROPERTY
Coulomb
SciTegic.value.DoubleValue
-8.574

@<SCITEGIC>MOL_PROPERTY
VdW
SciTegic.value.DoubleValue
0.628

@<SCITEGIC>MOL_PROPERTY
VdW6
SciTegic.value.DoubleValue
-3.284

@<SCITEGIC>MOL_PROPERTY
VdW12
SciTegic.value.DoubleValue
3.912

@<SCITEGIC>MOL_PROPERTY
Bond
SciTegic.value.DoubleValue
0.054

@<SCITEGIC>MOL_PROPERTY
Angle
SciTegic.value.DoubleValue
4.034

@<SCITEGIC>MOL_PROPERTY
Pdih
SciTegic.value.DoubleValue
9.702

@<SCITEGIC>MOL_PROPERTY
Idih
SciTegic.value.DoubleValue
0.000

@<SCITEGIC>MOL_PROPERTY
Tether
SciTegic.value.DoubleValue
0.000

@<TRIPOS>MOLECULE
guest-4_confgen4.mol2 : confsearch ligand conformer 803
          16          16           1
SMALL
USER_CHARGES
 
@<TRIPOS>ATOM
       1    C1      18.944729   17.541874   21.481534 C.3        1 MOL1        -0.1689
       2    H1      18.187388   17.373052   20.703914 H          1 MOL1         0.0830
       3    H2      19.552373   16.630807   21.572898 H          1 MOL1         0.0830
       4    C2      18.319690   17.884032   22.840939 C.3        1 MOL1        -0.1689
       5    H3      17.456479   18.547807   22.692782 H          1 MOL1         0.0830
       6    H4      17.978390   16.991297   23.382400 H          1 MOL1         0.0830
       7    C3      19.428521   18.640707   23.595267 C.3        1 MOL1        -0.1765
       8    H5      20.040906   17.927676   24.162415 H          1 MOL1         0.0830
       9    H6      19.011211   19.363733   24.308784 H          1 MOL1         0.0830
      10    C4      20.307400   19.316917   22.522836 C.3        1 MOL1         0.1214
      11    H7      21.361985   19.063217   22.704516 H          1 MOL1         0.0787
      12    C5      19.852815   18.743984   21.163852 C.3        1 MOL1        -0.1765
      13    H8      19.277989   19.496262   20.606686 H          1 MOL1         0.0830
      14    H9      20.709022   18.447191   20.544441 H          1 MOL1         0.0830
      15    O1      20.116805   20.726471   22.549797 O.3        1 MOL1        -0.5512
      16    H10     20.686914   21.100884   21.845296 H          1 MOL1         0.3776
@<TRIPOS>BOND
    1     1     2    1
    2     1     3    1
    3     1     4    1
    4     4     5    1
    5     4     6    1
    6     4     7    1
    7     7     8    1
    8     7     9    1
    9     7    10    1
   10    10    11    1
   11     1    12    1
   12    10    12    1
   13    12    13    1
   14    12    14    1
   15    10    15    1
   16    15    16    1
@<TRIPOS>SUBSTRUCTURE
       1 MOL1            1 RESIDUE      1      MOL     
@<SCITEGIC>MOL_PROPERTY
VConf Rank
SciTegic.value.IntegerValue
803

@<SCITEGIC>MOL_PROPERTY
Conf_Id
SciTegic.value.IntegerValue
33

@<SCITEGIC>MOL_PROPERTY
Delta U+W
SciTegic.value.DoubleValue
0.015

@<SCITEGIC>MOL_PROPERTY
U+W
SciTegic.value.DoubleValue
3.025

@<SCITEGIC>MOL_PROPERTY
Grad RMS
SciTegic.value.DoubleValue
0.000000

@<SCITEGIC>MOL_PROPERTY
U
SciTegic.value.DoubleValue
5.843

@<SCITEGIC>MOL_PROPERTY
W
SciTegic.value.DoubleValue
-2.819

@<SCITEGIC>MOL_PROPERTY
W(PB)
SciTegic.value.DoubleValue
-4.568

@<SCITEGIC>MOL_PROPERTY
W(SA)
SciTegic.value.DoubleValue
1.750

@<SCITEGIC>MOL_PROPERTY
Valence
SciTegic.value.DoubleValue
13.789

@<SCITEGIC>MOL_PROPERTY
Coulomb
SciTegic.value.DoubleValue
-8.574

@<SCITEGIC>MOL_PROPERTY
VdW
SciTegic.value.DoubleValue
0.628

@<SCITEGIC>MOL_PROPERTY
VdW6
SciTegic.value.DoubleValue
-3.284

@<SCITEGIC>MOL_PROPERTY
VdW12
SciTegic.value.DoubleValue
3.913

@<SCITEGIC>MOL_PROPERTY
Bond
SciTegic.value.DoubleValue
0.054

@<SCITEGIC>MOL_PROPERTY
Angle
SciTegic.value.DoubleValue
4.033

@<SCITEGIC>MOL_PROPERTY
Pdih
SciTegic.value.DoubleValue
9.702

@<SCITEGIC>MOL_PROPERTY
Idih
SciTegic.value.DoubleValue
0.000

@<SCITEGIC>MOL_PROPERTY
Tether
SciTegic.value.DoubleValue
0.000

@<TRIPOS>MOLECULE
guest-4_confgen4.mol2 : confsearch ligand conformer 804
          16          16           1
SMALL
USER_CHARGES
 
@<TRIPOS>ATOM
       1    C1      18.666492   17.967634   21.327830 C.3        1 MOL1        -0.1689
       2    H1      18.063161   17.135063   21.715185 H          1 MOL1         0.0830
       3    H2      18.483604   18.037040   20.246751 H          1 MOL1         0.0830
       4    C2      20.159658   17.722382   21.636583 C.3        1 MOL1        -0.1689
       5    H3      20.279086   16.770625   22.172420 H          1 MOL1         0.0830
       6    H4      20.758028   17.664510   20.717016 H          1 MOL1         0.0830
       7    C3      20.621281   18.896482   22.525869 C.3        1 MOL1        -0.1765
       8    H5      21.118297   19.653564   21.905045 H          1 MOL1         0.0830
       9    H6      21.333476   18.578210   23.298842 H          1 MOL1         0.0830
      10    C4      19.345414   19.502956   23.125322 C.3        1 MOL1         0.1214
      11    H7      19.473743   20.570781   23.353940 H          1 MOL1         0.0787
      12    C5      18.282224   19.281371   22.041125 C.3        1 MOL1        -0.1765
      13    H8      17.265886   19.248015   22.455792 H          1 MOL1         0.0830
      14    H9      18.323972   20.113128   21.325542 H          1 MOL1         0.0830
      15    O1      18.984269   18.775285   24.290173 O.3        1 MOL1        -0.5512
      16    H10     18.893162   17.846716   23.992480 H          1 MOL1         0.3776
@<TRIPOS>BOND
    1     1     2    1
    2     1     3    1
    3     1     4    1
    4     4     5    1
    5     4     6    1
    6     4     7    1
    7     7     8    1
    8     7     9    1
    9     7    10    1
   10    10    11    1
   11     1    12    1
   12    10    12    1
   13    12    13    1
   14    12    14    1
   15    10    15    1
   16    15    16    1
@<TRIPOS>SUBSTRUCTURE
       1 MOL1            1 RESIDUE      1      MOL     
@<SCITEGIC>MOL_PROPERTY
VConf Rank
SciTegic.value.IntegerValue
804

@<SCITEGIC>MOL_PROPERTY
Conf_Id
SciTegic.value.IntegerValue
20

@<SCITEGIC>MOL_PROPERTY
Delta U+W
SciTegic.value.DoubleValue
-0.483

@<SCITEGIC>MOL_PROPERTY
U+W
SciTegic.value.DoubleValue
2.527

@<SCITEGIC>MOL_PROPERTY
Grad RMS
SciTegic.value.DoubleValue
0.000000

@<SCITEGIC>MOL_PROPERTY
U
SciTegic.value.DoubleValue
4.508

@<SCITEGIC>MOL_PROPERTY
W
SciTegic.value.DoubleValue
-1.981

@<SCITEGIC>MOL_PROPERTY
W(PB)
SciTegic.value.DoubleValue
-3.712

@<SCITEGIC>MOL_PROPERTY
W(SA)
SciTegic.value.DoubleValue
1.732

@<SCITEGIC>MOL_PROPERTY
Valence
SciTegic.value.DoubleValue
14.705

@<SCITEGIC>MOL_PROPERTY
Coulomb
SciTegic.value.DoubleValue
-10.687

@<SCITEGIC>MOL_PROPERTY
VdW
SciTegic.value.DoubleValue
0.490

@<SCITEGIC>MOL_PROPERTY
VdW6
SciTegic.value.DoubleValue
-3.745

@<SCITEGIC>MOL_PROPERTY
VdW12
SciTegic.value.DoubleValue
4.235

@<SCITEGIC>MOL_PROPERTY
Bond
SciTegic.value.DoubleValue
0.068

@<SCITEGIC>MOL_PROPERTY
Angle
SciTegic.value.DoubleValue
3.901

@<SCITEGIC>MOL_PROPERTY
Pdih
SciTegic.value.DoubleValue
10.737

@<SCITEGIC>MOL_PROPERTY
Idih
SciTegic.value.DoubleValue
0.000

@<SCITEGIC>MOL_PROPERTY
Tether
SciTegic.value.DoubleValue
0.000

@<TRIPOS>MOLECULE
guest-4_confgen4.mol2 : confsearch ligand conformer 805
          16          16           1
SMALL
USER_CHARGES
 
@<TRIPOS>ATOM
       1    C1      18.999036   17.184057   21.985846 C.3        1 MOL1        -0.1689
       2    H1      18.181209   17.271391   21.257005 H          1 MOL1         0.0830
       3    H2      19.234092   16.118621   22.113276 H          1 MOL1         0.0830
       4    C2      18.587631   17.855247   23.303411 C.3        1 MOL1        -0.1689
       5    H3      17.536310   17.665014   23.558941 H          1 MOL1         0.0830
       6    H4      19.214354   17.476352   24.122729 H          1 MOL1         0.0830
       7    C3      18.874222   19.350992   23.077204 C.3        1 MOL1        -0.1765
       8    H5      19.121330   19.858883   24.018389 H          1 MOL1         0.0830
       9    H6      17.980258   19.832857   22.658374 H          1 MOL1         0.0830
      10    C4      20.041665   19.422709   22.070421 C.3        1 MOL1         0.1214
      11    H7      20.966110   19.720066   22.586656 H          1 MOL1         0.0787
      12    C5      20.211711   17.999387   21.500270 C.3        1 MOL1        -0.1765
      13    H8      20.288900   17.995662   20.404802 H          1 MOL1         0.0830
      14    H9      21.134835   17.561082   21.901283 H          1 MOL1         0.0830
      15    O1      19.732703   20.336454   21.024714 O.3        1 MOL1        -0.5512
      16    H10     19.625200   21.216759   21.443090 H          1 MOL1         0.3776
@<TRIPOS>BOND
    1     1     2    1
    2     1     3    1
    3     1     4    1
    4     4     5    1
    5     4     6    1
    6     4     7    1
    7     7     8    1
    8     7     9    1
    9     7    10    1
   10    10    11    1
   11     1    12    1
   12    10    12    1
   13    12    13    1
   14    12    14    1
   15    10    15    1
   16    15    16    1
@<TRIPOS>SUBSTRUCTURE
       1 MOL1            1 RESIDUE      1      MOL     
@<SCITEGIC>MOL_PROPERTY
VConf Rank
SciTegic.value.IntegerValue
805

@<SCITEGIC>MOL_PROPERTY
Conf_Id
SciTegic.value.IntegerValue
59

@<SCITEGIC>MOL_PROPERTY
Delta U+W
SciTegic.value.DoubleValue
0.000

@<SCITEGIC>MOL_PROPERTY
U+W
SciTegic.value.DoubleValue
3.010

@<SCITEGIC>MOL_PROPERTY
Grad RMS
SciTegic.value.DoubleValue
0.000000

@<SCITEGIC>MOL_PROPERTY
U
SciTegic.value.DoubleValue
5.843

@<SCITEGIC>MOL_PROPERTY
W
SciTegic.value.DoubleValue
-2.833

@<SCITEGIC>MOL_PROPERTY
W(PB)
SciTegic.value.DoubleValue
-4.568

@<SCITEGIC>MOL_PROPERTY
W(SA)
SciTegic.value.DoubleValue
1.735

@<SCITEGIC>MOL_PROPERTY
Valence
SciTegic.value.DoubleValue
13.789

@<SCITEGIC>MOL_PROPERTY
Coulomb
SciTegic.value.DoubleValue
-8.574

@<SCITEGIC>MOL_PROPERTY
VdW
SciTegic.value.DoubleValue
0.628

@<SCITEGIC>MOL_PROPERTY
VdW6
SciTegic.value.DoubleValue
-3.284

@<SCITEGIC>MOL_PROPERTY
VdW12
SciTegic.value.DoubleValue
3.912

@<SCITEGIC>MOL_PROPERTY
Bond
SciTegic.value.DoubleValue
0.054

@<SCITEGIC>MOL_PROPERTY
Angle
SciTegic.value.DoubleValue
4.034

@<SCITEGIC>MOL_PROPERTY
Pdih
SciTegic.value.DoubleValue
9.702

@<SCITEGIC>MOL_PROPERTY
Idih
SciTegic.value.DoubleValue
0.000

@<SCITEGIC>MOL_PROPERTY
Tether
SciTegic.value.DoubleValue
0.000

@<TRIPOS>MOLECULE
guest-4_confgen4.mol2 : confsearch ligand conformer 806
          16          16           1
SMALL
USER_CHARGES
 
@<TRIPOS>ATOM
       1    C1      19.589435   19.197375   20.988826 C.3        1 MOL1        -0.1689
       2    H1      19.825413   18.893015   19.960021 H          1 MOL1         0.0830
       3    H2      19.261723   20.246127   20.970260 H          1 MOL1         0.0830
       4    C2      20.791107   19.048611   21.932002 C.3        1 MOL1        -0.1689
       5    H3      21.335743   18.124864   21.691703 H          1 MOL1         0.0830
       6    H4      21.491728   19.891131   21.854979 H          1 MOL1         0.0830
       7    C3      20.167364   18.929370   23.334786 C.3        1 MOL1        -0.1765
       8    H5      20.063316   19.928343   23.777856 H          1 MOL1         0.0830
       9    H6      20.795631   18.329858   24.007010 H          1 MOL1         0.0830
      10    C4      18.765039   18.316120   23.141898 C.3        1 MOL1         0.1214
      11    H7      18.021397   18.940140   23.658728 H          1 MOL1         0.0787
      12    C5      18.494001   18.320471   21.622604 C.3        1 MOL1        -0.1765
      13    H8      18.566638   17.300937   21.220044 H          1 MOL1         0.0830
      14    H9      17.491140   18.702983   21.392817 H          1 MOL1         0.0830
      15    O1      18.739140   16.984286   23.641342 O.3        1 MOL1        -0.5512
      16    H10     17.833800   16.642280   23.483483 H          1 MOL1         0.3776
@<TRIPOS>BOND
    1     1     2    1
    2     1     3    1
    3     1     4    1
    4     4     5    1
    5     4     6    1
    6     4     7    1
    7     7     8    1
    8     7     9    1
    9     7    10    1
   10    10    11    1
   11     1    12    1
   12    10    12    1
   13    12    13    1
   14    12    14    1
   15    10    15    1
   16    15    16    1
@<TRIPOS>SUBSTRUCTURE
       1 MOL1            1 RESIDUE      1      MOL     
@<SCITEGIC>MOL_PROPERTY
VConf Rank
SciTegic.value.IntegerValue
806

@<SCITEGIC>MOL_PROPERTY
Conf_Id
SciTegic.value.IntegerValue
33

@<SCITEGIC>MOL_PROPERTY
Delta U+W
SciTegic.value.DoubleValue
0.015

@<SCITEGIC>MOL_PROPERTY
U+W
SciTegic.value.DoubleValue
3.025

@<SCITEGIC>MOL_PROPERTY
Grad RMS
SciTegic.value.DoubleValue
0.000000

@<SCITEGIC>MOL_PROPERTY
U
SciTegic.value.DoubleValue
5.843

@<SCITEGIC>MOL_PROPERTY
W
SciTegic.value.DoubleValue
-2.819

@<SCITEGIC>MOL_PROPERTY
W(PB)
SciTegic.value.DoubleValue
-4.568

@<SCITEGIC>MOL_PROPERTY
W(SA)
SciTegic.value.DoubleValue
1.750

@<SCITEGIC>MOL_PROPERTY
Valence
SciTegic.value.DoubleValue
13.789

@<SCITEGIC>MOL_PROPERTY
Coulomb
SciTegic.value.DoubleValue
-8.574

@<SCITEGIC>MOL_PROPERTY
VdW
SciTegic.value.DoubleValue
0.628

@<SCITEGIC>MOL_PROPERTY
VdW6
SciTegic.value.DoubleValue
-3.284

@<SCITEGIC>MOL_PROPERTY
VdW12
SciTegic.value.DoubleValue
3.913

@<SCITEGIC>MOL_PROPERTY
Bond
SciTegic.value.DoubleValue
0.054

@<SCITEGIC>MOL_PROPERTY
Angle
SciTegic.value.DoubleValue
4.033

@<SCITEGIC>MOL_PROPERTY
Pdih
SciTegic.value.DoubleValue
9.702

@<SCITEGIC>MOL_PROPERTY
Idih
SciTegic.value.DoubleValue
0.000

@<SCITEGIC>MOL_PROPERTY
Tether
SciTegic.value.DoubleValue
0.000

@<TRIPOS>MOLECULE
guest-4_confgen4.mol2 : confsearch ligand conformer 807
          16          16           1
SMALL
USER_CHARGES
 
@<TRIPOS>ATOM
       1    C1      18.589936   18.287086   23.287251 C.3        1 MOL1        -0.1689
       2    H1      19.065523   18.393645   24.271979 H          1 MOL1         0.0830
       3    H2      17.557790   17.947961   23.450552 H          1 MOL1         0.0830
       4    C2      19.387304   17.284560   22.424600 C.3        1 MOL1        -0.1689
       5    H3      20.248175   16.905129   22.992192 H          1 MOL1         0.0830
       6    H4      18.771941   16.421475   22.135786 H          1 MOL1         0.0830
       7    C3      19.869227   18.062968   21.181915 C.3        1 MOL1        -0.1765
       8    H5      19.184942   17.876042   20.343801 H          1 MOL1         0.0830
       9    H6      20.876046   17.759535   20.865293 H          1 MOL1         0.0830
      10    C4      19.801546   19.549094   21.558533 C.3        1 MOL1         0.1214
      11    H7      19.643576   20.183714   20.674629 H          1 MOL1         0.0787
      12    C5      18.618931   19.633335   22.532844 C.3        1 MOL1        -0.1765
      13    H8      18.701540   20.490624   23.214194 H          1 MOL1         0.0830
      14    H9      17.691019   19.751734   21.957880 H          1 MOL1         0.0830
      15    O1      20.994063   19.914219   22.237792 O.3        1 MOL1        -0.5512
      16    H10     21.050195   19.302642   23.000672 H          1 MOL1         0.3776
@<TRIPOS>BOND
    1     1     2    1
    2     1     3    1
    3     1     4    1
    4     4     5    1
    5     4     6    1
    6     4     7    1
    7     7     8    1
    8     7     9    1
    9     7    10    1
   10    10    11    1
   11     1    12    1
   12    10    12    1
   13    12    13    1
   14    12    14    1
   15    10    15    1
   16    15    16    1
@<TRIPOS>SUBSTRUCTURE
       1 MOL1            1 RESIDUE      1      MOL     
@<SCITEGIC>MOL_PROPERTY
VConf Rank
SciTegic.value.IntegerValue
807

@<SCITEGIC>MOL_PROPERTY
Conf_Id
SciTegic.value.IntegerValue
20

@<SCITEGIC>MOL_PROPERTY
Delta U+W
SciTegic.value.DoubleValue
-0.483

@<SCITEGIC>MOL_PROPERTY
U+W
SciTegic.value.DoubleValue
2.527

@<SCITEGIC>MOL_PROPERTY
Grad RMS
SciTegic.value.DoubleValue
0.000000

@<SCITEGIC>MOL_PROPERTY
U
SciTegic.value.DoubleValue
4.508

@<SCITEGIC>MOL_PROPERTY
W
SciTegic.value.DoubleValue
-1.981

@<SCITEGIC>MOL_PROPERTY
W(PB)
SciTegic.value.DoubleValue
-3.712

@<SCITEGIC>MOL_PROPERTY
W(SA)
SciTegic.value.DoubleValue
1.732

@<SCITEGIC>MOL_PROPERTY
Valence
SciTegic.value.DoubleValue
14.705

@<SCITEGIC>MOL_PROPERTY
Coulomb
SciTegic.value.DoubleValue
-10.687

@<SCITEGIC>MOL_PROPERTY
VdW
SciTegic.value.DoubleValue
0.490

@<SCITEGIC>MOL_PROPERTY
VdW6
SciTegic.value.DoubleValue
-3.745

@<SCITEGIC>MOL_PROPERTY
VdW12
SciTegic.value.DoubleValue
4.235

@<SCITEGIC>MOL_PROPERTY
Bond
SciTegic.value.DoubleValue
0.068

@<SCITEGIC>MOL_PROPERTY
Angle
SciTegic.value.DoubleValue
3.901

@<SCITEGIC>MOL_PROPERTY
Pdih
SciTegic.value.DoubleValue
10.737

@<SCITEGIC>MOL_PROPERTY
Idih
SciTegic.value.DoubleValue
0.000

@<SCITEGIC>MOL_PROPERTY
Tether
SciTegic.value.DoubleValue
0.000

@<TRIPOS>MOLECULE
guest-4_confgen4.mol2 : confsearch ligand conformer 808
          16          16           1
SMALL
USER_CHARGES
 
@<TRIPOS>ATOM
       1    C1      19.713980   17.715087   21.181398 C.3        1 MOL1        -0.1689
       2    H1      19.515537   18.334368   20.295515 H          1 MOL1         0.0830
       3    H2      20.143484   16.761508   20.845457 H          1 MOL1         0.0830
       4    C2      18.415550   17.525074   21.977454 C.3        1 MOL1        -0.1689
       5    H3      17.544034   17.374536   21.325875 H          1 MOL1         0.0830
       6    H4      18.509270   16.648726   22.633851 H          1 MOL1         0.0830
       7    C3      18.297306   18.802881   22.828209 C.3        1 MOL1        -0.1765
       8    H5      17.761512   18.611629   23.766929 H          1 MOL1         0.0830
       9    H6      17.735061   19.561930   22.267398 H          1 MOL1         0.0830
      10    C4      19.739287   19.288159   23.086811 C.3        1 MOL1         0.1214
      11    H7      20.023699   19.084323   24.129442 H          1 MOL1         0.0787
      12    C5      20.647612   18.473983   22.142408 C.3        1 MOL1        -0.1765
      13    H8      21.358639   19.109355   21.597648 H          1 MOL1         0.0830
      14    H9      21.228515   17.755800   22.735575 H          1 MOL1         0.0830
      15    O1      19.849382   20.676630   22.797127 O.3        1 MOL1        -0.5512
      16    H10     19.246697   21.141545   23.415315 H          1 MOL1         0.3776
@<TRIPOS>BOND
    1     1     2    1
    2     1     3    1
    3     1     4    1
    4     4     5    1
    5     4     6    1
    6     4     7    1
    7     7     8    1
    8     7     9    1
    9     7    10    1
   10    10    11    1
   11     1    12    1
   12    10    12    1
   13    12    13    1
   14    12    14    1
   15    10    15    1
   16    15    16    1
@<TRIPOS>SUBSTRUCTURE
       1 MOL1            1 RESIDUE      1      MOL     
@<SCITEGIC>MOL_PROPERTY
VConf Rank
SciTegic.value.IntegerValue
808

@<SCITEGIC>MOL_PROPERTY
Conf_Id
SciTegic.value.IntegerValue
59

@<SCITEGIC>MOL_PROPERTY
Delta U+W
SciTegic.value.DoubleValue
0.000

@<SCITEGIC>MOL_PROPERTY
U+W
SciTegic.value.DoubleValue
3.010

@<SCITEGIC>MOL_PROPERTY
Grad RMS
SciTegic.value.DoubleValue
0.000000

@<SCITEGIC>MOL_PROPERTY
U
SciTegic.value.DoubleValue
5.843

@<SCITEGIC>MOL_PROPERTY
W
SciTegic.value.DoubleValue
-2.833

@<SCITEGIC>MOL_PROPERTY
W(PB)
SciTegic.value.DoubleValue
-4.568

@<SCITEGIC>MOL_PROPERTY
W(SA)
SciTegic.value.DoubleValue
1.735

@<SCITEGIC>MOL_PROPERTY
Valence
SciTegic.value.DoubleValue
13.789

@<SCITEGIC>MOL_PROPERTY
Coulomb
SciTegic.value.DoubleValue
-8.574

@<SCITEGIC>MOL_PROPERTY
VdW
SciTegic.value.DoubleValue
0.628

@<SCITEGIC>MOL_PROPERTY
VdW6
SciTegic.value.DoubleValue
-3.284

@<SCITEGIC>MOL_PROPERTY
VdW12
SciTegic.value.DoubleValue
3.912

@<SCITEGIC>MOL_PROPERTY
Bond
SciTegic.value.DoubleValue
0.054

@<SCITEGIC>MOL_PROPERTY
Angle
SciTegic.value.DoubleValue
4.034

@<SCITEGIC>MOL_PROPERTY
Pdih
SciTegic.value.DoubleValue
9.702

@<SCITEGIC>MOL_PROPERTY
Idih
SciTegic.value.DoubleValue
0.000

@<SCITEGIC>MOL_PROPERTY
Tether
SciTegic.value.DoubleValue
0.000

@<TRIPOS>MOLECULE
guest-4_confgen4.mol2 : confsearch ligand conformer 809
          16          16           1
SMALL
USER_CHARGES
 
@<TRIPOS>ATOM
       1    C1      20.618230   18.246892   23.045438 C.3        1 MOL1        -0.1689
       2    H1      21.022992   18.359010   24.060503 H          1 MOL1         0.0830
       3    H2      21.268535   17.556353   22.490569 H          1 MOL1         0.0830
       4    C2      20.531628   19.585811   22.300104 C.3        1 MOL1        -0.1689
       5    H3      20.200053   20.372038   22.992624 H          1 MOL1         0.0830
       6    H4      21.495744   19.889896   21.870389 H          1 MOL1         0.0830
       7    C3      19.454056   19.358611   21.223863 C.3        1 MOL1        -0.1765
       8    H5      19.924200   18.985169   20.304847 H          1 MOL1         0.0830
       9    H6      18.928328   20.290141   20.975101 H          1 MOL1         0.0830
      10    C4      18.501508   18.278262   21.776397 C.3        1 MOL1         0.1214
      11    H7      18.382905   17.481254   21.027911 H          1 MOL1         0.0787
      12    C5      19.173477   17.714633   23.046246 C.3        1 MOL1        -0.1765
      13    H8      18.653788   18.075767   23.944182 H          1 MOL1         0.0830
      14    H9      19.150326   16.617332   23.061743 H          1 MOL1         0.0830
      15    O1      17.242259   18.854615   22.101985 O.3        1 MOL1        -0.5512
      16    H10     16.684587   18.130128   22.456456 H          1 MOL1         0.3776
@<TRIPOS>BOND
    1     1     2    1
    2     1     3    1
    3     1     4    1
    4     4     5    1
    5     4     6    1
    6     4     7    1
    7     7     8    1
    8     7     9    1
    9     7    10    1
   10    10    11    1
   11     1    12    1
   12    10    12    1
   13    12    13    1
   14    12    14    1
   15    10    15    1
   16    15    16    1
@<TRIPOS>SUBSTRUCTURE
       1 MOL1            1 RESIDUE      1      MOL     
@<SCITEGIC>MOL_PROPERTY
VConf Rank
SciTegic.value.IntegerValue
809

@<SCITEGIC>MOL_PROPERTY
Conf_Id
SciTegic.value.IntegerValue
33

@<SCITEGIC>MOL_PROPERTY
Delta U+W
SciTegic.value.DoubleValue
0.015

@<SCITEGIC>MOL_PROPERTY
U+W
SciTegic.value.DoubleValue
3.025

@<SCITEGIC>MOL_PROPERTY
Grad RMS
SciTegic.value.DoubleValue
0.000000

@<SCITEGIC>MOL_PROPERTY
U
SciTegic.value.DoubleValue
5.843

@<SCITEGIC>MOL_PROPERTY
W
SciTegic.value.DoubleValue
-2.819

@<SCITEGIC>MOL_PROPERTY
W(PB)
SciTegic.value.DoubleValue
-4.568

@<SCITEGIC>MOL_PROPERTY
W(SA)
SciTegic.value.DoubleValue
1.750

@<SCITEGIC>MOL_PROPERTY
Valence
SciTegic.value.DoubleValue
13.789

@<SCITEGIC>MOL_PROPERTY
Coulomb
SciTegic.value.DoubleValue
-8.574

@<SCITEGIC>MOL_PROPERTY
VdW
SciTegic.value.DoubleValue
0.628

@<SCITEGIC>MOL_PROPERTY
VdW6
SciTegic.value.DoubleValue
-3.284

@<SCITEGIC>MOL_PROPERTY
VdW12
SciTegic.value.DoubleValue
3.913

@<SCITEGIC>MOL_PROPERTY
Bond
SciTegic.value.DoubleValue
0.054

@<SCITEGIC>MOL_PROPERTY
Angle
SciTegic.value.DoubleValue
4.033

@<SCITEGIC>MOL_PROPERTY
Pdih
SciTegic.value.DoubleValue
9.702

@<SCITEGIC>MOL_PROPERTY
Idih
SciTegic.value.DoubleValue
0.000

@<SCITEGIC>MOL_PROPERTY
Tether
SciTegic.value.DoubleValue
0.000

@<TRIPOS>MOLECULE
guest-4_confgen4.mol2 : confsearch ligand conformer 810
          16          16           1
SMALL
USER_CHARGES
 
@<TRIPOS>ATOM
       1    C1      20.033077   18.131268   21.196647 C.3        1 MOL1        -0.1689
       2    H1      19.390386   17.641823   20.451919 H          1 MOL1         0.0830
       3    H2      21.065220   18.094082   20.822089 H          1 MOL1         0.0830
       4    C2      19.897154   17.416268   22.558749 C.3        1 MOL1        -0.1689
       5    H3      19.189502   16.580147   22.472980 H          1 MOL1         0.0830
       6    H4      20.858442   17.005933   22.897204 H          1 MOL1         0.0830
       7    C3      19.361779   18.467967   23.553604 C.3        1 MOL1        -0.1765
       8    H5      20.197975   18.890147   24.126459 H          1 MOL1         0.0830
       9    H6      18.649112   18.038246   24.270160 H          1 MOL1         0.0830
      10    C4      18.731364   19.577391   22.701108 C.3        1 MOL1         0.1214
      11    H7      18.762311   20.549193   23.214552 H          1 MOL1         0.0787
      12    C5      19.575897   19.588498   21.419859 C.3        1 MOL1        -0.1765
      13    H8      19.021651   19.987270   20.559745 H          1 MOL1         0.0830
      14    H9      20.454112   20.228492   21.577243 H          1 MOL1         0.0830
      15    O1      17.396141   19.217367   22.378049 O.3        1 MOL1        -0.5512
      16    H10     17.467630   18.349670   21.929548 H          1 MOL1         0.3776
@<TRIPOS>BOND
    1     1     2    1
    2     1     3    1
    3     1     4    1
    4     4     5    1
    5     4     6    1
    6     4     7    1
    7     7     8    1
    8     7     9    1
    9     7    10    1
   10    10    11    1
   11     1    12    1
   12    10    12    1
   13    12    13    1
   14    12    14    1
   15    10    15    1
   16    15    16    1
@<TRIPOS>SUBSTRUCTURE
       1 MOL1            1 RESIDUE      1      MOL     
@<SCITEGIC>MOL_PROPERTY
VConf Rank
SciTegic.value.IntegerValue
810

@<SCITEGIC>MOL_PROPERTY
Conf_Id
SciTegic.value.IntegerValue
20

@<SCITEGIC>MOL_PROPERTY
Delta U+W
SciTegic.value.DoubleValue
-0.483

@<SCITEGIC>MOL_PROPERTY
U+W
SciTegic.value.DoubleValue
2.527

@<SCITEGIC>MOL_PROPERTY
Grad RMS
SciTegic.value.DoubleValue
0.000000

@<SCITEGIC>MOL_PROPERTY
U
SciTegic.value.DoubleValue
4.508

@<SCITEGIC>MOL_PROPERTY
W
SciTegic.value.DoubleValue
-1.981

@<SCITEGIC>MOL_PROPERTY
W(PB)
SciTegic.value.DoubleValue
-3.712

@<SCITEGIC>MOL_PROPERTY
W(SA)
SciTegic.value.DoubleValue
1.732

@<SCITEGIC>MOL_PROPERTY
Valence
SciTegic.value.DoubleValue
14.705

@<SCITEGIC>MOL_PROPERTY
Coulomb
SciTegic.value.DoubleValue
-10.687

@<SCITEGIC>MOL_PROPERTY
VdW
SciTegic.value.DoubleValue
0.490

@<SCITEGIC>MOL_PROPERTY
VdW6
SciTegic.value.DoubleValue
-3.745

@<SCITEGIC>MOL_PROPERTY
VdW12
SciTegic.value.DoubleValue
4.235

@<SCITEGIC>MOL_PROPERTY
Bond
SciTegic.value.DoubleValue
0.068

@<SCITEGIC>MOL_PROPERTY
Angle
SciTegic.value.DoubleValue
3.901

@<SCITEGIC>MOL_PROPERTY
Pdih
SciTegic.value.DoubleValue
10.737

@<SCITEGIC>MOL_PROPERTY
Idih
SciTegic.value.DoubleValue
0.000

@<SCITEGIC>MOL_PROPERTY
Tether
SciTegic.value.DoubleValue
0.000

@<TRIPOS>MOLECULE
guest-4_confgen4.mol2 : confsearch ligand conformer 811
          16          16           1
SMALL
USER_CHARGES
 
@<TRIPOS>ATOM
       1    C1      18.713311   18.790306   21.032679 C.3        1 MOL1        -0.1689
       2    H1      19.530979   18.788654   20.298450 H          1 MOL1         0.0830
       3    H2      17.765042   18.910598   20.491421 H          1 MOL1         0.0830
       4    C2      18.947224   19.905939   22.060480 C.3        1 MOL1        -0.1689
       5    H3      19.338966   20.823108   21.599939 H          1 MOL1         0.0830
       6    H4      18.000684   20.150658   22.562278 H          1 MOL1         0.0830
       7    C3      19.930859   19.292978   23.074037 C.3        1 MOL1        -0.1765
       8    H5      19.797854   19.725555   24.074053 H          1 MOL1         0.0830
       9    H6      20.960480   19.499277   22.751381 H          1 MOL1         0.0830
      10    C4      19.664773   17.772821   23.073570 C.3        1 MOL1         0.1214
      11    H7      19.137978   17.482665   23.994339 H          1 MOL1         0.0787
      12    C5      18.758372   17.490803   21.857537 C.3        1 MOL1        -0.1765
      13    H8      19.117061   16.643583   21.257886 H          1 MOL1         0.0830
      14    H9      17.749242   17.244659   22.212715 H          1 MOL1         0.0830
      15    O1      20.889598   17.060075   22.948330 O.3        1 MOL1        -0.5512
      16    H10     21.427145   17.283855   23.737316 H          1 MOL1         0.3776
@<TRIPOS>BOND
    1     1     2    1
    2     1     3    1
    3     1     4    1
    4     4     5    1
    5     4     6    1
    6     4     7    1
    7     7     8    1
    8     7     9    1
    9     7    10    1
   10    10    11    1
   11     1    12    1
   12    10    12    1
   13    12    13    1
   14    12    14    1
   15    10    15    1
   16    15    16    1
@<TRIPOS>SUBSTRUCTURE
       1 MOL1            1 RESIDUE      1      MOL     
@<SCITEGIC>MOL_PROPERTY
VConf Rank
SciTegic.value.IntegerValue
811

@<SCITEGIC>MOL_PROPERTY
Conf_Id
SciTegic.value.IntegerValue
59

@<SCITEGIC>MOL_PROPERTY
Delta U+W
SciTegic.value.DoubleValue
0.000

@<SCITEGIC>MOL_PROPERTY
U+W
SciTegic.value.DoubleValue
3.010

@<SCITEGIC>MOL_PROPERTY
Grad RMS
SciTegic.value.DoubleValue
0.000000

@<SCITEGIC>MOL_PROPERTY
U
SciTegic.value.DoubleValue
5.843

@<SCITEGIC>MOL_PROPERTY
W
SciTegic.value.DoubleValue
-2.833

@<SCITEGIC>MOL_PROPERTY
W(PB)
SciTegic.value.DoubleValue
-4.568

@<SCITEGIC>MOL_PROPERTY
W(SA)
SciTegic.value.DoubleValue
1.735

@<SCITEGIC>MOL_PROPERTY
Valence
SciTegic.value.DoubleValue
13.789

@<SCITEGIC>MOL_PROPERTY
Coulomb
SciTegic.value.DoubleValue
-8.574

@<SCITEGIC>MOL_PROPERTY
VdW
SciTegic.value.DoubleValue
0.628

@<SCITEGIC>MOL_PROPERTY
VdW6
SciTegic.value.DoubleValue
-3.284

@<SCITEGIC>MOL_PROPERTY
VdW12
SciTegic.value.DoubleValue
3.912

@<SCITEGIC>MOL_PROPERTY
Bond
SciTegic.value.DoubleValue
0.054

@<SCITEGIC>MOL_PROPERTY
Angle
SciTegic.value.DoubleValue
4.034

@<SCITEGIC>MOL_PROPERTY
Pdih
SciTegic.value.DoubleValue
9.702

@<SCITEGIC>MOL_PROPERTY
Idih
SciTegic.value.DoubleValue
0.000

@<SCITEGIC>MOL_PROPERTY
Tether
SciTegic.value.DoubleValue
0.000

@<TRIPOS>MOLECULE
guest-4_confgen4.mol2 : confsearch ligand conformer 812
          16          16           1
SMALL
USER_CHARGES
 
@<TRIPOS>ATOM
       1    C1      19.972352   17.300896   22.557340 C.3        1 MOL1        -0.1689
       2    H1      20.217823   16.377242   22.015707 H          1 MOL1         0.0830
       3    H2      20.342445   17.203794   23.587497 H          1 MOL1         0.0830
       4    C2      18.463969   17.584071   22.575209 C.3        1 MOL1        -0.1689
       5    H3      18.030084   17.330694   21.597854 H          1 MOL1         0.0830
       6    H4      17.937485   17.004993   23.346005 H          1 MOL1         0.0830
       7    C3      18.359827   19.102709   22.807521 C.3        1 MOL1        -0.1765
       8    H5      18.315579   19.308427   23.884928 H          1 MOL1         0.0830
       9    H6      17.452850   19.520405   22.350419 H          1 MOL1         0.0830
      10    C4      19.647189   19.725440   22.228986 C.3        1 MOL1         0.1214
      11    H7      20.108920   20.375006   22.986869 H          1 MOL1         0.0787
      12    C5      20.588621   18.548247   21.897839 C.3        1 MOL1        -0.1765
      13    H8      20.640541   18.396420   20.811085 H          1 MOL1         0.0830
      14    H9      21.607795   18.732100   22.261608 H          1 MOL1         0.0830
      15    O1      19.348472   20.462000   21.049093 O.3        1 MOL1        -0.5512
      16    H10     20.198665   20.823467   20.720398 H          1 MOL1         0.3776
@<TRIPOS>BOND
    1     1     2    1
    2     1     3    1
    3     1     4    1
    4     4     5    1
    5     4     6    1
    6     4     7    1
    7     7     8    1
    8     7     9    1
    9     7    10    1
   10    10    11    1
   11     1    12    1
   12    10    12    1
   13    12    13    1
   14    12    14    1
   15    10    15    1
   16    15    16    1
@<TRIPOS>SUBSTRUCTURE
       1 MOL1            1 RESIDUE      1      MOL     
@<SCITEGIC>MOL_PROPERTY
VConf Rank
SciTegic.value.IntegerValue
812

@<SCITEGIC>MOL_PROPERTY
Conf_Id
SciTegic.value.IntegerValue
33

@<SCITEGIC>MOL_PROPERTY
Delta U+W
SciTegic.value.DoubleValue
0.015

@<SCITEGIC>MOL_PROPERTY
U+W
SciTegic.value.DoubleValue
3.025

@<SCITEGIC>MOL_PROPERTY
Grad RMS
SciTegic.value.DoubleValue
0.000000

@<SCITEGIC>MOL_PROPERTY
U
SciTegic.value.DoubleValue
5.843

@<SCITEGIC>MOL_PROPERTY
W
SciTegic.value.DoubleValue
-2.819

@<SCITEGIC>MOL_PROPERTY
W(PB)
SciTegic.value.DoubleValue
-4.568

@<SCITEGIC>MOL_PROPERTY
W(SA)
SciTegic.value.DoubleValue
1.750

@<SCITEGIC>MOL_PROPERTY
Valence
SciTegic.value.DoubleValue
13.789

@<SCITEGIC>MOL_PROPERTY
Coulomb
SciTegic.value.DoubleValue
-8.574

@<SCITEGIC>MOL_PROPERTY
VdW
SciTegic.value.DoubleValue
0.628

@<SCITEGIC>MOL_PROPERTY
VdW6
SciTegic.value.DoubleValue
-3.284

@<SCITEGIC>MOL_PROPERTY
VdW12
SciTegic.value.DoubleValue
3.913

@<SCITEGIC>MOL_PROPERTY
Bond
SciTegic.value.DoubleValue
0.054

@<SCITEGIC>MOL_PROPERTY
Angle
SciTegic.value.DoubleValue
4.033

@<SCITEGIC>MOL_PROPERTY
Pdih
SciTegic.value.DoubleValue
9.702

@<SCITEGIC>MOL_PROPERTY
Idih
SciTegic.value.DoubleValue
0.000

@<SCITEGIC>MOL_PROPERTY
Tether
SciTegic.value.DoubleValue
0.000

@<TRIPOS>MOLECULE
guest-4_confgen4.mol2 : confsearch ligand conformer 813
          16          16           1
SMALL
USER_CHARGES
 
@<TRIPOS>ATOM
       1    C1      19.663426   17.305654   22.299188 C.3        1 MOL1        -0.1689
       2    H1      19.705604   16.883741   23.312814 H          1 MOL1         0.0830
       3    H2      19.860303   16.489871   21.590151 H          1 MOL1         0.0830
       4    C2      20.700041   18.441868   22.159662 C.3        1 MOL1        -0.1689
       5    H3      21.244634   18.569141   23.105414 H          1 MOL1         0.0830
       6    H4      21.438602   18.220891   21.376912 H          1 MOL1         0.0830
       7    C3      19.904333   19.721746   21.826200 C.3        1 MOL1        -0.1765
       8    H5      19.922586   19.892969   20.741778 H          1 MOL1         0.0830
       9    H6      20.325286   20.612052   22.312164 H          1 MOL1         0.0830
      10    C4      18.458733   19.449614   22.263438 C.3        1 MOL1         0.1214
      11    H7      17.739927   20.032817   21.669994 H          1 MOL1         0.0787
      12    C5      18.280353   17.941370   22.043582 C.3        1 MOL1        -0.1765
      13    H8      17.500904   17.516101   22.689809 H          1 MOL1         0.0830
      14    H9      17.982819   17.765717   21.001353 H          1 MOL1         0.0830
      15    O1      18.326272   19.739410   23.647374 O.3        1 MOL1        -0.5512
      16    H10     18.997930   19.180799   24.090083 H          1 MOL1         0.3776
@<TRIPOS>BOND
    1     1     2    1
    2     1     3    1
    3     1     4    1
    4     4     5    1
    5     4     6    1
    6     4     7    1
    7     7     8    1
    8     7     9    1
    9     7    10    1
   10    10    11    1
   11     1    12    1
   12    10    12    1
   13    12    13    1
   14    12    14    1
   15    10    15    1
   16    15    16    1
@<TRIPOS>SUBSTRUCTURE
       1 MOL1            1 RESIDUE      1      MOL     
@<SCITEGIC>MOL_PROPERTY
VConf Rank
SciTegic.value.IntegerValue
813

@<SCITEGIC>MOL_PROPERTY
Conf_Id
SciTegic.value.IntegerValue
20

@<SCITEGIC>MOL_PROPERTY
Delta U+W
SciTegic.value.DoubleValue
-0.483

@<SCITEGIC>MOL_PROPERTY
U+W
SciTegic.value.DoubleValue
2.527

@<SCITEGIC>MOL_PROPERTY
Grad RMS
SciTegic.value.DoubleValue
0.000000

@<SCITEGIC>MOL_PROPERTY
U
SciTegic.value.DoubleValue
4.508

@<SCITEGIC>MOL_PROPERTY
W
SciTegic.value.DoubleValue
-1.981

@<SCITEGIC>MOL_PROPERTY
W(PB)
SciTegic.value.DoubleValue
-3.712

@<SCITEGIC>MOL_PROPERTY
W(SA)
SciTegic.value.DoubleValue
1.732

@<SCITEGIC>MOL_PROPERTY
Valence
SciTegic.value.DoubleValue
14.705

@<SCITEGIC>MOL_PROPERTY
Coulomb
SciTegic.value.DoubleValue
-10.687

@<SCITEGIC>MOL_PROPERTY
VdW
SciTegic.value.DoubleValue
0.490

@<SCITEGIC>MOL_PROPERTY
VdW6
SciTegic.value.DoubleValue
-3.745

@<SCITEGIC>MOL_PROPERTY
VdW12
SciTegic.value.DoubleValue
4.235

@<SCITEGIC>MOL_PROPERTY
Bond
SciTegic.value.DoubleValue
0.068

@<SCITEGIC>MOL_PROPERTY
Angle
SciTegic.value.DoubleValue
3.901

@<SCITEGIC>MOL_PROPERTY
Pdih
SciTegic.value.DoubleValue
10.737

@<SCITEGIC>MOL_PROPERTY
Idih
SciTegic.value.DoubleValue
0.000

@<SCITEGIC>MOL_PROPERTY
Tether
SciTegic.value.DoubleValue
0.000

@<TRIPOS>MOLECULE
guest-4_confgen4.mol2 : confsearch ligand conformer 814
          16          16           1
SMALL
USER_CHARGES
 
@<TRIPOS>ATOM
       1    C1      20.416353   18.144638   23.223081 C.3        1 MOL1        -0.1689
       2    H1      19.914646   17.534393   23.986998 H          1 MOL1         0.0830
       3    H2      21.494595   18.140503   23.432892 H          1 MOL1         0.0830
       4    C2      19.824145   19.560623   23.225387 C.3        1 MOL1        -0.1689
       5    H3      19.616969   19.925374   24.240667 H          1 MOL1         0.0830
       6    H4      20.527703   20.256331   22.747243 H          1 MOL1         0.0830
       7    C3      18.547310   19.443243   22.373054 C.3        1 MOL1        -0.1765
       8    H5      18.311954   20.390345   21.870608 H          1 MOL1         0.0830
       9    H6      17.699434   19.186003   23.022453 H          1 MOL1         0.0830
      10    C4      18.805361   18.310818   21.356834 C.3        1 MOL1         0.1214
      11    H7      18.970570   18.734256   20.355372 H          1 MOL1         0.0787
      12    C5      20.087816   17.591824   21.823942 C.3        1 MOL1        -0.1765
      13    H8      19.972000   16.499845   21.837673 H          1 MOL1         0.0830
      14    H9      20.905188   17.831974   21.131618 H          1 MOL1         0.0830
      15    O1      17.710320   17.402723   21.345159 O.3        1 MOL1        -0.5512
      16    H10     16.925201   17.912640   21.053431 H          1 MOL1         0.3776
@<TRIPOS>BOND
    1     1     2    1
    2     1     3    1
    3     1     4    1
    4     4     5    1
    5     4     6    1
    6     4     7    1
    7     7     8    1
    8     7     9    1
    9     7    10    1
   10    10    11    1
   11     1    12    1
   12    10    12    1
   13    12    13    1
   14    12    14    1
   15    10    15    1
   16    15    16    1
@<TRIPOS>SUBSTRUCTURE
       1 MOL1            1 RESIDUE      1      MOL     
@<SCITEGIC>MOL_PROPERTY
VConf Rank
SciTegic.value.IntegerValue
814

@<SCITEGIC>MOL_PROPERTY
Conf_Id
SciTegic.value.IntegerValue
59

@<SCITEGIC>MOL_PROPERTY
Delta U+W
SciTegic.value.DoubleValue
0.000

@<SCITEGIC>MOL_PROPERTY
U+W
SciTegic.value.DoubleValue
3.010

@<SCITEGIC>MOL_PROPERTY
Grad RMS
SciTegic.value.DoubleValue
0.000000

@<SCITEGIC>MOL_PROPERTY
U
SciTegic.value.DoubleValue
5.843

@<SCITEGIC>MOL_PROPERTY
W
SciTegic.value.DoubleValue
-2.833

@<SCITEGIC>MOL_PROPERTY
W(PB)
SciTegic.value.DoubleValue
-4.568

@<SCITEGIC>MOL_PROPERTY
W(SA)
SciTegic.value.DoubleValue
1.735

@<SCITEGIC>MOL_PROPERTY
Valence
SciTegic.value.DoubleValue
13.789

@<SCITEGIC>MOL_PROPERTY
Coulomb
SciTegic.value.DoubleValue
-8.574

@<SCITEGIC>MOL_PROPERTY
VdW
SciTegic.value.DoubleValue
0.628

@<SCITEGIC>MOL_PROPERTY
VdW6
SciTegic.value.DoubleValue
-3.284

@<SCITEGIC>MOL_PROPERTY
VdW12
SciTegic.value.DoubleValue
3.912

@<SCITEGIC>MOL_PROPERTY
Bond
SciTegic.value.DoubleValue
0.054

@<SCITEGIC>MOL_PROPERTY
Angle
SciTegic.value.DoubleValue
4.034

@<SCITEGIC>MOL_PROPERTY
Pdih
SciTegic.value.DoubleValue
9.702

@<SCITEGIC>MOL_PROPERTY
Idih
SciTegic.value.DoubleValue
0.000

@<SCITEGIC>MOL_PROPERTY
Tether
SciTegic.value.DoubleValue
0.000

@<TRIPOS>MOLECULE
guest-4_confgen4.mol2 : confsearch ligand conformer 815
          16          16           1
SMALL
USER_CHARGES
 
@<TRIPOS>ATOM
       1    C1      18.481753   17.665713   21.819979 C.3        1 MOL1        -0.1689
       2    H1      17.807907   17.520381   20.964661 H          1 MOL1         0.0830
       3    H2      18.468008   16.750194   22.427644 H          1 MOL1         0.0830
       4    C2      18.075774   18.866202   22.685852 C.3        1 MOL1        -0.1689
       5    H3      17.743232   19.690607   22.039747 H          1 MOL1         0.0830
       6    H4      17.261361   18.624818   23.382349 H          1 MOL1         0.0830
       7    C3      19.370714   19.271654   23.413735 C.3        1 MOL1        -0.1765
       8    H5      19.443392   18.729790   24.365673 H          1 MOL1         0.0830
       9    H6      19.388299   20.346309   23.639185 H          1 MOL1         0.0830
      10    C4      20.539724   18.845457   22.501831 C.3        1 MOL1         0.1214
      11    H7      21.258087   18.251642   23.085662 H          1 MOL1         0.0787
      12    C5      19.924390   17.979068   21.382693 C.3        1 MOL1        -0.1765
      13    H8      19.904131   18.537261   20.436759 H          1 MOL1         0.0830
      14    H9      20.502569   17.060381   21.219687 H          1 MOL1         0.0830
      15    O1      21.170208   19.992382   21.944202 O.3        1 MOL1        -0.5512
      16    H10     21.893067   19.664053   21.368699 H          1 MOL1         0.3776
@<TRIPOS>BOND
    1     1     2    1
    2     1     3    1
    3     1     4    1
    4     4     5    1
    5     4     6    1
    6     4     7    1
    7     7     8    1
    8     7     9    1
    9     7    10    1
   10    10    11    1
   11     1    12    1
   12    10    12    1
   13    12    13    1
   14    12    14    1
   15    10    15    1
   16    15    16    1
@<TRIPOS>SUBSTRUCTURE
       1 MOL1            1 RESIDUE      1      MOL     
@<SCITEGIC>MOL_PROPERTY
VConf Rank
SciTegic.value.IntegerValue
815

@<SCITEGIC>MOL_PROPERTY
Conf_Id
SciTegic.value.IntegerValue
33

@<SCITEGIC>MOL_PROPERTY
Delta U+W
SciTegic.value.DoubleValue
0.015

@<SCITEGIC>MOL_PROPERTY
U+W
SciTegic.value.DoubleValue
3.025

@<SCITEGIC>MOL_PROPERTY
Grad RMS
SciTegic.value.DoubleValue
0.000000

@<SCITEGIC>MOL_PROPERTY
U
SciTegic.value.DoubleValue
5.843

@<SCITEGIC>MOL_PROPERTY
W
SciTegic.value.DoubleValue
-2.819

@<SCITEGIC>MOL_PROPERTY
W(PB)
SciTegic.value.DoubleValue
-4.568

@<SCITEGIC>MOL_PROPERTY
W(SA)
SciTegic.value.DoubleValue
1.750

@<SCITEGIC>MOL_PROPERTY
Valence
SciTegic.value.DoubleValue
13.789

@<SCITEGIC>MOL_PROPERTY
Coulomb
SciTegic.value.DoubleValue
-8.574

@<SCITEGIC>MOL_PROPERTY
VdW
SciTegic.value.DoubleValue
0.628

@<SCITEGIC>MOL_PROPERTY
VdW6
SciTegic.value.DoubleValue
-3.284

@<SCITEGIC>MOL_PROPERTY
VdW12
SciTegic.value.DoubleValue
3.913

@<SCITEGIC>MOL_PROPERTY
Bond
SciTegic.value.DoubleValue
0.054

@<SCITEGIC>MOL_PROPERTY
Angle
SciTegic.value.DoubleValue
4.033

@<SCITEGIC>MOL_PROPERTY
Pdih
SciTegic.value.DoubleValue
9.702

@<SCITEGIC>MOL_PROPERTY
Idih
SciTegic.value.DoubleValue
0.000

@<SCITEGIC>MOL_PROPERTY
Tether
SciTegic.value.DoubleValue
0.000

@<TRIPOS>MOLECULE
guest-4_confgen4.mol2 : confsearch ligand conformer 816
          16          16           1
SMALL
USER_CHARGES
 
@<TRIPOS>ATOM
       1    C1      19.840608   18.927826   21.045561 C.3        1 MOL1        -0.1689
       2    H1      20.886503   19.264286   21.034324 H          1 MOL1         0.0830
       3    H2      19.476301   18.937264   20.009130 H          1 MOL1         0.0830
       4    C2      19.000449   19.854558   21.951277 C.3        1 MOL1        -0.1689
       5    H3      19.639503   20.640142   22.377532 H          1 MOL1         0.0830
       6    H4      18.195992   20.348006   21.388820 H          1 MOL1         0.0830
       7    C3      18.426952   18.965543   23.075194 C.3        1 MOL1        -0.1765
       8    H5      17.398945   18.673346   22.823314 H          1 MOL1         0.0830
       9    H6      18.399350   19.484035   24.042876 H          1 MOL1         0.0830
      10    C4      19.306865   17.708864   23.113985 C.3        1 MOL1         0.1214
      11    H7      18.751770   16.837725   23.490772 H          1 MOL1         0.0787
      12    C5      19.742240   17.513379   21.655496 C.3        1 MOL1        -0.1765
      13    H8      20.686327   16.958342   21.574016 H          1 MOL1         0.0830
      14    H9      18.970186   16.938800   21.126899 H          1 MOL1         0.0830
      15    O1      20.452246   17.964400   23.913742 O.3        1 MOL1        -0.5512
      16    H10     20.877517   18.747247   23.506977 H          1 MOL1         0.3776
@<TRIPOS>BOND
    1     1     2    1
    2     1     3    1
    3     1     4    1
    4     4     5    1
    5     4     6    1
    6     4     7    1
    7     7     8    1
    8     7     9    1
    9     7    10    1
   10    10    11    1
   11     1    12    1
   12    10    12    1
   13    12    13    1
   14    12    14    1
   15    10    15    1
   16    15    16    1
@<TRIPOS>SUBSTRUCTURE
       1 MOL1            1 RESIDUE      1      MOL     
@<SCITEGIC>MOL_PROPERTY
VConf Rank
SciTegic.value.IntegerValue
816

@<SCITEGIC>MOL_PROPERTY
Conf_Id
SciTegic.value.IntegerValue
20

@<SCITEGIC>MOL_PROPERTY
Delta U+W
SciTegic.value.DoubleValue
-0.483

@<SCITEGIC>MOL_PROPERTY
U+W
SciTegic.value.DoubleValue
2.527

@<SCITEGIC>MOL_PROPERTY
Grad RMS
SciTegic.value.DoubleValue
0.000000

@<SCITEGIC>MOL_PROPERTY
U
SciTegic.value.DoubleValue
4.508

@<SCITEGIC>MOL_PROPERTY
W
SciTegic.value.DoubleValue
-1.981

@<SCITEGIC>MOL_PROPERTY
W(PB)
SciTegic.value.DoubleValue
-3.712

@<SCITEGIC>MOL_PROPERTY
W(SA)
SciTegic.value.DoubleValue
1.732

@<SCITEGIC>MOL_PROPERTY
Valence
SciTegic.value.DoubleValue
14.705

@<SCITEGIC>MOL_PROPERTY
Coulomb
SciTegic.value.DoubleValue
-10.687

@<SCITEGIC>MOL_PROPERTY
VdW
SciTegic.value.DoubleValue
0.490

@<SCITEGIC>MOL_PROPERTY
VdW6
SciTegic.value.DoubleValue
-3.745

@<SCITEGIC>MOL_PROPERTY
VdW12
SciTegic.value.DoubleValue
4.235

@<SCITEGIC>MOL_PROPERTY
Bond
SciTegic.value.DoubleValue
0.068

@<SCITEGIC>MOL_PROPERTY
Angle
SciTegic.value.DoubleValue
3.901

@<SCITEGIC>MOL_PROPERTY
Pdih
SciTegic.value.DoubleValue
10.737

@<SCITEGIC>MOL_PROPERTY
Idih
SciTegic.value.DoubleValue
0.000

@<SCITEGIC>MOL_PROPERTY
Tether
SciTegic.value.DoubleValue
0.000

@<TRIPOS>MOLECULE
guest-4_confgen4.mol2 : confsearch ligand conformer 817
          16          16           1
SMALL
USER_CHARGES
 
@<TRIPOS>ATOM
       1    C1      20.344384   17.487959   22.248525 C.3        1 MOL1        -0.1689
       2    H1      20.029140   16.860726   21.403021 H          1 MOL1         0.0830
       3    H2      21.286231   17.084178   22.644163 H          1 MOL1         0.0830
       4    C2      19.231981   17.523499   23.305418 C.3        1 MOL1        -0.1689
       5    H3      18.746441   16.546554   23.434209 H          1 MOL1         0.0830
       6    H4      19.651910   17.828834   24.273951 H          1 MOL1         0.0830
       7    C3      18.255782   18.600613   22.798056 C.3        1 MOL1        -0.1765
       8    H5      17.730916   19.089635   23.628851 H          1 MOL1         0.0830
       9    H6      17.501397   18.131687   22.151685 H          1 MOL1         0.0830
      10    C4      19.101015   19.607606   21.989832 C.3        1 MOL1         0.1214
      11    H7      19.224600   20.539197   22.561131 H          1 MOL1         0.0787
      12    C5      20.480953   18.949550   21.783517 C.3        1 MOL1        -0.1765
      13    H8      20.820885   19.012057   20.741134 H          1 MOL1         0.0830
      14    H9      21.221186   19.467074   22.407460 H          1 MOL1         0.0830
      15    O1      18.487599   19.865669   20.732448 O.3        1 MOL1        -0.5512
      16    H10     17.615147   20.270696   20.923010 H          1 MOL1         0.3776
@<TRIPOS>BOND
    1     1     2    1
    2     1     3    1
    3     1     4    1
    4     4     5    1
    5     4     6    1
    6     4     7    1
    7     7     8    1
    8     7     9    1
    9     7    10    1
   10    10    11    1
   11     1    12    1
   12    10    12    1
   13    12    13    1
   14    12    14    1
   15    10    15    1
   16    15    16    1
@<TRIPOS>SUBSTRUCTURE
       1 MOL1            1 RESIDUE      1      MOL     
@<SCITEGIC>MOL_PROPERTY
VConf Rank
SciTegic.value.IntegerValue
817

@<SCITEGIC>MOL_PROPERTY
Conf_Id
SciTegic.value.IntegerValue
59

@<SCITEGIC>MOL_PROPERTY
Delta U+W
SciTegic.value.DoubleValue
0.000

@<SCITEGIC>MOL_PROPERTY
U+W
SciTegic.value.DoubleValue
3.010

@<SCITEGIC>MOL_PROPERTY
Grad RMS
SciTegic.value.DoubleValue
0.000000

@<SCITEGIC>MOL_PROPERTY
U
SciTegic.value.DoubleValue
5.843

@<SCITEGIC>MOL_PROPERTY
W
SciTegic.value.DoubleValue
-2.833

@<SCITEGIC>MOL_PROPERTY
W(PB)
SciTegic.value.DoubleValue
-4.568

@<SCITEGIC>MOL_PROPERTY
W(SA)
SciTegic.value.DoubleValue
1.735

@<SCITEGIC>MOL_PROPERTY
Valence
SciTegic.value.DoubleValue
13.789

@<SCITEGIC>MOL_PROPERTY
Coulomb
SciTegic.value.DoubleValue
-8.574

@<SCITEGIC>MOL_PROPERTY
VdW
SciTegic.value.DoubleValue
0.628

@<SCITEGIC>MOL_PROPERTY
VdW6
SciTegic.value.DoubleValue
-3.284

@<SCITEGIC>MOL_PROPERTY
VdW12
SciTegic.value.DoubleValue
3.912

@<SCITEGIC>MOL_PROPERTY
Bond
SciTegic.value.DoubleValue
0.054

@<SCITEGIC>MOL_PROPERTY
Angle
SciTegic.value.DoubleValue
4.034

@<SCITEGIC>MOL_PROPERTY
Pdih
SciTegic.value.DoubleValue
9.702

@<SCITEGIC>MOL_PROPERTY
Idih
SciTegic.value.DoubleValue
0.000

@<SCITEGIC>MOL_PROPERTY
Tether
SciTegic.value.DoubleValue
0.000

@<TRIPOS>MOLECULE
guest-4_confgen4.mol2 : confsearch ligand conformer 818
          16          16           1
SMALL
USER_CHARGES
 
@<TRIPOS>ATOM
       1    C1      20.341084   17.526786   21.989192 C.3        1 MOL1        -0.1689
       2    H1      20.370058   16.430649   22.055545 H          1 MOL1         0.0830
       3    H2      21.221382   17.860053   21.422069 H          1 MOL1         0.0830
       4    C2      20.333486   18.195447   23.370699 C.3        1 MOL1        -0.1689
       5    H3      19.693457   17.620643   24.054544 H          1 MOL1         0.0830
       6    H4      21.337667   18.259481   23.811338 H          1 MOL1         0.0830
       7    C3      19.710399   19.581844   23.124239 C.3        1 MOL1        -0.1765
       8    H5      20.501542   20.303821   22.883561 H          1 MOL1         0.0830
       9    H6      19.180790   19.950839   24.012707 H          1 MOL1         0.0830
      10    C4      18.776587   19.433948   21.905256 C.3        1 MOL1         0.1214
      11    H7      19.015518   20.214067   21.167797 H          1 MOL1         0.0787
      12    C5      19.058458   18.038869   21.308566 C.3        1 MOL1        -0.1765
      13    H8      18.229531   17.354021   21.533613 H          1 MOL1         0.0830
      14    H9      19.173183   18.082309   20.217787 H          1 MOL1         0.0830
      15    O1      17.417273   19.527322   22.314452 O.3        1 MOL1        -0.5512
      16    H10     16.872202   19.415813   21.506991 H          1 MOL1         0.3776
@<TRIPOS>BOND
    1     1     2    1
    2     1     3    1
    3     1     4    1
    4     4     5    1
    5     4     6    1
    6     4     7    1
    7     7     8    1
    8     7     9    1
    9     7    10    1
   10    10    11    1
   11     1    12    1
   12    10    12    1
   13    12    13    1
   14    12    14    1
   15    10    15    1
   16    15    16    1
@<TRIPOS>SUBSTRUCTURE
       1 MOL1            1 RESIDUE      1      MOL     
@<SCITEGIC>MOL_PROPERTY
VConf Rank
SciTegic.value.IntegerValue
818

@<SCITEGIC>MOL_PROPERTY
Conf_Id
SciTegic.value.IntegerValue
33

@<SCITEGIC>MOL_PROPERTY
Delta U+W
SciTegic.value.DoubleValue
0.015

@<SCITEGIC>MOL_PROPERTY
U+W
SciTegic.value.DoubleValue
3.025

@<SCITEGIC>MOL_PROPERTY
Grad RMS
SciTegic.value.DoubleValue
0.000000

@<SCITEGIC>MOL_PROPERTY
U
SciTegic.value.DoubleValue
5.843

@<SCITEGIC>MOL_PROPERTY
W
SciTegic.value.DoubleValue
-2.819

@<SCITEGIC>MOL_PROPERTY
W(PB)
SciTegic.value.DoubleValue
-4.568

@<SCITEGIC>MOL_PROPERTY
W(SA)
SciTegic.value.DoubleValue
1.750

@<SCITEGIC>MOL_PROPERTY
Valence
SciTegic.value.DoubleValue
13.789

@<SCITEGIC>MOL_PROPERTY
Coulomb
SciTegic.value.DoubleValue
-8.574

@<SCITEGIC>MOL_PROPERTY
VdW
SciTegic.value.DoubleValue
0.628

@<SCITEGIC>MOL_PROPERTY
VdW6
SciTegic.value.DoubleValue
-3.284

@<SCITEGIC>MOL_PROPERTY
VdW12
SciTegic.value.DoubleValue
3.913

@<SCITEGIC>MOL_PROPERTY
Bond
SciTegic.value.DoubleValue
0.054

@<SCITEGIC>MOL_PROPERTY
Angle
SciTegic.value.DoubleValue
4.033

@<SCITEGIC>MOL_PROPERTY
Pdih
SciTegic.value.DoubleValue
9.702

@<SCITEGIC>MOL_PROPERTY
Idih
SciTegic.value.DoubleValue
0.000

@<SCITEGIC>MOL_PROPERTY
Tether
SciTegic.value.DoubleValue
0.000

@<TRIPOS>MOLECULE
guest-4_confgen4.mol2 : confsearch ligand conformer 819
          16          16           1
SMALL
USER_CHARGES
 
@<TRIPOS>ATOM
       1    C1      20.202255   19.401051   21.564901 C.3        1 MOL1        -0.1689
       2    H1      21.265910   19.144531   21.665213 H          1 MOL1         0.0830
       3    H2      20.129115   20.258100   20.881443 H          1 MOL1         0.0830
       4    C2      19.607878   19.728635   22.952137 C.3        1 MOL1        -0.1689
       5    H3      20.384113   19.631689   23.723686 H          1 MOL1         0.0830
       6    H4      19.222883   20.756751   22.994029 H          1 MOL1         0.0830
       7    C3      18.480440   18.703599   23.198354 C.3        1 MOL1        -0.1765
       8    H5      17.512698   19.153651   22.940385 H          1 MOL1         0.0830
       9    H6      18.430897   18.383348   24.247635 H          1 MOL1         0.0830
      10    C4      18.755145   17.532427   22.245523 C.3        1 MOL1         0.1214
      11    H7      17.828696   17.006711   21.972947 H          1 MOL1         0.0787
      12    C5      19.410843   18.191136   21.024409 C.3        1 MOL1        -0.1765
      13    H8      20.048444   17.492089   20.466913 H          1 MOL1         0.0830
      14    H9      18.624344   18.541884   20.343222 H          1 MOL1         0.0830
      15    O1      19.682303   16.643821   22.851792 O.3        1 MOL1        -0.5512
      16    H10     20.465788   17.194340   23.057327 H          1 MOL1         0.3776
@<TRIPOS>BOND
    1     1     2    1
    2     1     3    1
    3     1     4    1
    4     4     5    1
    5     4     6    1
    6     4     7    1
    7     7     8    1
    8     7     9    1
    9     7    10    1
   10    10    11    1
   11     1    12    1
   12    10    12    1
   13    12    13    1
   14    12    14    1
   15    10    15    1
   16    15    16    1
@<TRIPOS>SUBSTRUCTURE
       1 MOL1            1 RESIDUE      1      MOL     
@<SCITEGIC>MOL_PROPERTY
VConf Rank
SciTegic.value.IntegerValue
819

@<SCITEGIC>MOL_PROPERTY
Conf_Id
SciTegic.value.IntegerValue
20

@<SCITEGIC>MOL_PROPERTY
Delta U+W
SciTegic.value.DoubleValue
-0.483

@<SCITEGIC>MOL_PROPERTY
U+W
SciTegic.value.DoubleValue
2.527

@<SCITEGIC>MOL_PROPERTY
Grad RMS
SciTegic.value.DoubleValue
0.000000

@<SCITEGIC>MOL_PROPERTY
U
SciTegic.value.DoubleValue
4.508

@<SCITEGIC>MOL_PROPERTY
W
SciTegic.value.DoubleValue
-1.981

@<SCITEGIC>MOL_PROPERTY
W(PB)
SciTegic.value.DoubleValue
-3.712

@<SCITEGIC>MOL_PROPERTY
W(SA)
SciTegic.value.DoubleValue
1.732

@<SCITEGIC>MOL_PROPERTY
Valence
SciTegic.value.DoubleValue
14.705

@<SCITEGIC>MOL_PROPERTY
Coulomb
SciTegic.value.DoubleValue
-10.687

@<SCITEGIC>MOL_PROPERTY
VdW
SciTegic.value.DoubleValue
0.490

@<SCITEGIC>MOL_PROPERTY
VdW6
SciTegic.value.DoubleValue
-3.745

@<SCITEGIC>MOL_PROPERTY
VdW12
SciTegic.value.DoubleValue
4.235

@<SCITEGIC>MOL_PROPERTY
Bond
SciTegic.value.DoubleValue
0.068

@<SCITEGIC>MOL_PROPERTY
Angle
SciTegic.value.DoubleValue
3.901

@<SCITEGIC>MOL_PROPERTY
Pdih
SciTegic.value.DoubleValue
10.737

@<SCITEGIC>MOL_PROPERTY
Idih
SciTegic.value.DoubleValue
0.000

@<SCITEGIC>MOL_PROPERTY
Tether
SciTegic.value.DoubleValue
0.000

@<TRIPOS>MOLECULE
guest-4_confgen4.mol2 : confsearch ligand conformer 820
          16          16           1
SMALL
USER_CHARGES
 
@<TRIPOS>ATOM
       1    C1      18.293756   17.954087   21.526191 C.3        1 MOL1        -0.1689
       2    H1      17.725799   17.338489   22.237627 H          1 MOL1         0.0830
       3    H2      17.792851   17.902293   20.549945 H          1 MOL1         0.0830
       4    C2      19.746595   17.462749   21.466401 C.3        1 MOL1        -0.1689
       5    H3      19.818983   16.367112   21.499553 H          1 MOL1         0.0830
       6    H4      20.216284   17.810120   20.535621 H          1 MOL1         0.0830
       7    C3      20.427273   18.131737   22.674577 C.3        1 MOL1        -0.1765
       8    H5      21.495616   18.302505   22.489300 H          1 MOL1         0.0830
       9    H6      20.337472   17.475872   23.551254 H          1 MOL1         0.0830
      10    C4      19.674989   19.456907   22.918857 C.3        1 MOL1         0.1214
      11    H7      20.292468   20.306083   22.591536 H          1 MOL1         0.0787
      12    C5      18.396005   19.395386   22.058480 C.3        1 MOL1        -0.1765
      13    H8      17.499201   19.682149   22.623750 H          1 MOL1         0.0830
      14    H9      18.496984   20.092745   21.216710 H          1 MOL1         0.0830
      15    O1      19.335252   19.582161   24.294640 O.3        1 MOL1        -0.5512
      16    H10     20.180040   19.605139   24.791969 H          1 MOL1         0.3776
@<TRIPOS>BOND
    1     1     2    1
    2     1     3    1
    3     1     4    1
    4     4     5    1
    5     4     6    1
    6     4     7    1
    7     7     8    1
    8     7     9    1
    9     7    10    1
   10    10    11    1
   11     1    12    1
   12    10    12    1
   13    12    13    1
   14    12    14    1
   15    10    15    1
   16    15    16    1
@<TRIPOS>SUBSTRUCTURE
       1 MOL1            1 RESIDUE      1      MOL     
@<SCITEGIC>MOL_PROPERTY
VConf Rank
SciTegic.value.IntegerValue
820

@<SCITEGIC>MOL_PROPERTY
Conf_Id
SciTegic.value.IntegerValue
59

@<SCITEGIC>MOL_PROPERTY
Delta U+W
SciTegic.value.DoubleValue
0.000

@<SCITEGIC>MOL_PROPERTY
U+W
SciTegic.value.DoubleValue
3.010

@<SCITEGIC>MOL_PROPERTY
Grad RMS
SciTegic.value.DoubleValue
0.000000

@<SCITEGIC>MOL_PROPERTY
U
SciTegic.value.DoubleValue
5.843

@<SCITEGIC>MOL_PROPERTY
W
SciTegic.value.DoubleValue
-2.833

@<SCITEGIC>MOL_PROPERTY
W(PB)
SciTegic.value.DoubleValue
-4.568

@<SCITEGIC>MOL_PROPERTY
W(SA)
SciTegic.value.DoubleValue
1.735

@<SCITEGIC>MOL_PROPERTY
Valence
SciTegic.value.DoubleValue
13.789

@<SCITEGIC>MOL_PROPERTY
Coulomb
SciTegic.value.DoubleValue
-8.574

@<SCITEGIC>MOL_PROPERTY
VdW
SciTegic.value.DoubleValue
0.628

@<SCITEGIC>MOL_PROPERTY
VdW6
SciTegic.value.DoubleValue
-3.284

@<SCITEGIC>MOL_PROPERTY
VdW12
SciTegic.value.DoubleValue
3.912

@<SCITEGIC>MOL_PROPERTY
Bond
SciTegic.value.DoubleValue
0.054

@<SCITEGIC>MOL_PROPERTY
Angle
SciTegic.value.DoubleValue
4.034

@<SCITEGIC>MOL_PROPERTY
Pdih
SciTegic.value.DoubleValue
9.702

@<SCITEGIC>MOL_PROPERTY
Idih
SciTegic.value.DoubleValue
0.000

@<SCITEGIC>MOL_PROPERTY
Tether
SciTegic.value.DoubleValue
0.000

@<TRIPOS>MOLECULE
guest-4_confgen4.mol2 : confsearch ligand conformer 821
          16          16           1
SMALL
USER_CHARGES
 
@<TRIPOS>ATOM
       1    C1      18.745475   18.607618   21.042877 C.3        1 MOL1        -0.1689
       2    H1      18.286404   17.890887   20.348392 H          1 MOL1         0.0830
       3    H2      18.479407   19.622215   20.715125 H          1 MOL1         0.0830
       4    C2      20.272819   18.467831   21.101234 C.3        1 MOL1        -0.1689
       5    H3      20.546641   17.403940   21.072331 H          1 MOL1         0.0830
       6    H4      20.772775   18.974706   20.264715 H          1 MOL1         0.0830
       7    C3      20.662301   19.063601   22.466679 C.3        1 MOL1        -0.1765
       8    H5      20.859259   20.137988   22.357201 H          1 MOL1         0.0830
       9    H6      21.572075   18.596550   22.866922 H          1 MOL1         0.0830
      10    C4      19.446157   18.867221   23.395240 C.3        1 MOL1         0.1214
      11    H7      19.189380   19.827599   23.865622 H          1 MOL1         0.0787
      12    C5      18.285157   18.392201   22.496257 C.3        1 MOL1        -0.1765
      13    H8      18.088964   17.323897   22.660625 H          1 MOL1         0.0830
      14    H9      17.359129   18.941689   22.709285 H          1 MOL1         0.0830
      15    O1      19.736286   17.884749   24.382392 O.3        1 MOL1        -0.5512
      16    H10     18.930386   17.793218   24.933461 H          1 MOL1         0.3776
@<TRIPOS>BOND
    1     1     2    1
    2     1     3    1
    3     1     4    1
    4     4     5    1
    5     4     6    1
    6     4     7    1
    7     7     8    1
    8     7     9    1
    9     7    10    1
   10    10    11    1
   11     1    12    1
   12    10    12    1
   13    12    13    1
   14    12    14    1
   15    10    15    1
   16    15    16    1
@<TRIPOS>SUBSTRUCTURE
       1 MOL1            1 RESIDUE      1      MOL     
@<SCITEGIC>MOL_PROPERTY
VConf Rank
SciTegic.value.IntegerValue
821

@<SCITEGIC>MOL_PROPERTY
Conf_Id
SciTegic.value.IntegerValue
33

@<SCITEGIC>MOL_PROPERTY
Delta U+W
SciTegic.value.DoubleValue
0.015

@<SCITEGIC>MOL_PROPERTY
U+W
SciTegic.value.DoubleValue
3.025

@<SCITEGIC>MOL_PROPERTY
Grad RMS
SciTegic.value.DoubleValue
0.000000

@<SCITEGIC>MOL_PROPERTY
U
SciTegic.value.DoubleValue
5.843

@<SCITEGIC>MOL_PROPERTY
W
SciTegic.value.DoubleValue
-2.819

@<SCITEGIC>MOL_PROPERTY
W(PB)
SciTegic.value.DoubleValue
-4.568

@<SCITEGIC>MOL_PROPERTY
W(SA)
SciTegic.value.DoubleValue
1.750

@<SCITEGIC>MOL_PROPERTY
Valence
SciTegic.value.DoubleValue
13.789

@<SCITEGIC>MOL_PROPERTY
Coulomb
SciTegic.value.DoubleValue
-8.574

@<SCITEGIC>MOL_PROPERTY
VdW
SciTegic.value.DoubleValue
0.628

@<SCITEGIC>MOL_PROPERTY
VdW6
SciTegic.value.DoubleValue
-3.284

@<SCITEGIC>MOL_PROPERTY
VdW12
SciTegic.value.DoubleValue
3.913

@<SCITEGIC>MOL_PROPERTY
Bond
SciTegic.value.DoubleValue
0.054

@<SCITEGIC>MOL_PROPERTY
Angle
SciTegic.value.DoubleValue
4.033

@<SCITEGIC>MOL_PROPERTY
Pdih
SciTegic.value.DoubleValue
9.702

@<SCITEGIC>MOL_PROPERTY
Idih
SciTegic.value.DoubleValue
0.000

@<SCITEGIC>MOL_PROPERTY
Tether
SciTegic.value.DoubleValue
0.000

@<TRIPOS>MOLECULE
guest-4_confgen4.mol2 : confsearch ligand conformer 822
          16          16           1
SMALL
USER_CHARGES
 
@<TRIPOS>ATOM
       1    C1      20.213032   19.120147   23.168095 C.3        1 MOL1        -0.1689
       2    H1      21.033709   19.715884   22.745230 H          1 MOL1         0.0830
       3    H2      20.318617   19.136124   24.261527 H          1 MOL1         0.0830
       4    C2      20.269271   17.680054   22.613127 C.3        1 MOL1        -0.1689
       5    H3      21.117776   17.578537   21.922504 H          1 MOL1         0.0830
       6    H4      20.403259   16.942611   23.416386 H          1 MOL1         0.0830
       7    C3      18.940465   17.447928   21.862909 C.3        1 MOL1        -0.1765
       8    H5      18.237997   16.915031   22.517263 H          1 MOL1         0.0830
       9    H6      19.074841   16.844618   20.955183 H          1 MOL1         0.0830
      10    C4      18.376318   18.841730   21.556235 C.3        1 MOL1         0.1214
      11    H7      17.279343   18.827024   21.482659 H          1 MOL1         0.0787
      12    C5      18.851833   19.703728   22.733435 C.3        1 MOL1        -0.1765
      13    H8      18.920244   20.767445   22.469180 H          1 MOL1         0.0830
      14    H9      18.132409   19.609812   23.557590 H          1 MOL1         0.0830
      15    O1      18.958157   19.327978   20.355472 O.3        1 MOL1        -0.5512
      16    H10     19.924483   19.305114   20.513121 H          1 MOL1         0.3776
@<TRIPOS>BOND
    1     1     2    1
    2     1     3    1
    3     1     4    1
    4     4     5    1
    5     4     6    1
    6     4     7    1
    7     7     8    1
    8     7     9    1
    9     7    10    1
   10    10    11    1
   11     1    12    1
   12    10    12    1
   13    12    13    1
   14    12    14    1
   15    10    15    1
   16    15    16    1
@<TRIPOS>SUBSTRUCTURE
       1 MOL1            1 RESIDUE      1      MOL     
@<SCITEGIC>MOL_PROPERTY
VConf Rank
SciTegic.value.IntegerValue
822

@<SCITEGIC>MOL_PROPERTY
Conf_Id
SciTegic.value.IntegerValue
20

@<SCITEGIC>MOL_PROPERTY
Delta U+W
SciTegic.value.DoubleValue
-0.483

@<SCITEGIC>MOL_PROPERTY
U+W
SciTegic.value.DoubleValue
2.527

@<SCITEGIC>MOL_PROPERTY
Grad RMS
SciTegic.value.DoubleValue
0.000000

@<SCITEGIC>MOL_PROPERTY
U
SciTegic.value.DoubleValue
4.508

@<SCITEGIC>MOL_PROPERTY
W
SciTegic.value.DoubleValue
-1.981

@<SCITEGIC>MOL_PROPERTY
W(PB)
SciTegic.value.DoubleValue
-3.712

@<SCITEGIC>MOL_PROPERTY
W(SA)
SciTegic.value.DoubleValue
1.732

@<SCITEGIC>MOL_PROPERTY
Valence
SciTegic.value.DoubleValue
14.705

@<SCITEGIC>MOL_PROPERTY
Coulomb
SciTegic.value.DoubleValue
-10.687

@<SCITEGIC>MOL_PROPERTY
VdW
SciTegic.value.DoubleValue
0.490

@<SCITEGIC>MOL_PROPERTY
VdW6
SciTegic.value.DoubleValue
-3.745

@<SCITEGIC>MOL_PROPERTY
VdW12
SciTegic.value.DoubleValue
4.235

@<SCITEGIC>MOL_PROPERTY
Bond
SciTegic.value.DoubleValue
0.068

@<SCITEGIC>MOL_PROPERTY
Angle
SciTegic.value.DoubleValue
3.901

@<SCITEGIC>MOL_PROPERTY
Pdih
SciTegic.value.DoubleValue
10.737

@<SCITEGIC>MOL_PROPERTY
Idih
SciTegic.value.DoubleValue
0.000

@<SCITEGIC>MOL_PROPERTY
Tether
SciTegic.value.DoubleValue
0.000

@<TRIPOS>MOLECULE
guest-4_confgen4.mol2 : confsearch ligand conformer 823
          16          16           1
SMALL
USER_CHARGES
 
@<TRIPOS>ATOM
       1    C1      19.809280   19.123417   23.573525 C.3        1 MOL1        -0.1689
       2    H1      19.273112   20.078603   23.661968 H          1 MOL1         0.0830
       3    H2      20.405598   18.977892   24.484497 H          1 MOL1         0.0830
       4    C2      20.671537   19.133249   22.303822 C.3        1 MOL1        -0.1689
       5    H3      21.151498   20.106332   22.132052 H          1 MOL1         0.0830
       6    H4      21.459192   18.371360   22.385978 H          1 MOL1         0.0830
       7    C3      19.695580   18.753925   21.175027 C.3        1 MOL1        -0.1765
       8    H5      20.211250   18.235912   20.356129 H          1 MOL1         0.0830
       9    H6      19.242459   19.666628   20.764614 H          1 MOL1         0.0830
      10    C4      18.612740   17.861788   21.817855 C.3        1 MOL1         0.1214
      11    H7      18.760532   16.814401   21.516763 H          1 MOL1         0.0787
      12    C5      18.798883   17.984248   23.344351 C.3        1 MOL1        -0.1765
      13    H8      17.851179   18.173434   23.865971 H          1 MOL1         0.0830
      14    H9      19.210656   17.043112   23.731374 H          1 MOL1         0.0830
      15    O1      17.317288   18.315263   21.443617 O.3        1 MOL1        -0.5512
      16    H10     17.258781   18.225971   20.468868 H          1 MOL1         0.3776
@<TRIPOS>BOND
    1     1     2    1
    2     1     3    1
    3     1     4    1
    4     4     5    1
    5     4     6    1
    6     4     7    1
    7     7     8    1
    8     7     9    1
    9     7    10    1
   10    10    11    1
   11     1    12    1
   12    10    12    1
   13    12    13    1
   14    12    14    1
   15    10    15    1
   16    15    16    1
@<TRIPOS>SUBSTRUCTURE
       1 MOL1            1 RESIDUE      1      MOL     
@<SCITEGIC>MOL_PROPERTY
VConf Rank
SciTegic.value.IntegerValue
823

@<SCITEGIC>MOL_PROPERTY
Conf_Id
SciTegic.value.IntegerValue
59

@<SCITEGIC>MOL_PROPERTY
Delta U+W
SciTegic.value.DoubleValue
0.000

@<SCITEGIC>MOL_PROPERTY
U+W
SciTegic.value.DoubleValue
3.010

@<SCITEGIC>MOL_PROPERTY
Grad RMS
SciTegic.value.DoubleValue
0.000000

@<SCITEGIC>MOL_PROPERTY
U
SciTegic.value.DoubleValue
5.843

@<SCITEGIC>MOL_PROPERTY
W
SciTegic.value.DoubleValue
-2.833

@<SCITEGIC>MOL_PROPERTY
W(PB)
SciTegic.value.DoubleValue
-4.568

@<SCITEGIC>MOL_PROPERTY
W(SA)
SciTegic.value.DoubleValue
1.735

@<SCITEGIC>MOL_PROPERTY
Valence
SciTegic.value.DoubleValue
13.789

@<SCITEGIC>MOL_PROPERTY
Coulomb
SciTegic.value.DoubleValue
-8.574

@<SCITEGIC>MOL_PROPERTY
VdW
SciTegic.value.DoubleValue
0.628

@<SCITEGIC>MOL_PROPERTY
VdW6
SciTegic.value.DoubleValue
-3.284

@<SCITEGIC>MOL_PROPERTY
VdW12
SciTegic.value.DoubleValue
3.912

@<SCITEGIC>MOL_PROPERTY
Bond
SciTegic.value.DoubleValue
0.054

@<SCITEGIC>MOL_PROPERTY
Angle
SciTegic.value.DoubleValue
4.034

@<SCITEGIC>MOL_PROPERTY
Pdih
SciTegic.value.DoubleValue
9.702

@<SCITEGIC>MOL_PROPERTY
Idih
SciTegic.value.DoubleValue
0.000

@<SCITEGIC>MOL_PROPERTY
Tether
SciTegic.value.DoubleValue
0.000

@<TRIPOS>MOLECULE
guest-4_confgen4.mol2 : confsearch ligand conformer 824
          16          16           1
SMALL
USER_CHARGES
 
@<TRIPOS>ATOM
       1    C1      18.146446   19.002952   21.841476 C.3        1 MOL1        -0.1689
       2    H1      17.309587   19.637651   22.163319 H          1 MOL1         0.0830
       3    H2      17.943312   18.659695   20.817497 H          1 MOL1         0.0830
       4    C2      18.347922   17.791240   22.761741 C.3        1 MOL1        -0.1689
       5    H3      18.193955   18.093103   23.807137 H          1 MOL1         0.0830
       6    H4      17.652937   16.971535   22.534317 H          1 MOL1         0.0830
       7    C3      19.819517   17.389088   22.552556 C.3        1 MOL1        -0.1765
       8    H5      19.889612   16.660411   21.734509 H          1 MOL1         0.0830
       9    H6      20.243037   16.922796   23.452123 H          1 MOL1         0.0830
      10    C4      20.573149   18.673038   22.148440 C.3        1 MOL1         0.1214
      11    H7      21.148039   18.483133   21.230313 H          1 MOL1         0.0787
      12    C5      19.494820   19.745022   21.884261 C.3        1 MOL1        -0.1765
      13    H8      19.479676   20.479175   22.701313 H          1 MOL1         0.0830
      14    H9      19.684683   20.286141   20.948318 H          1 MOL1         0.0830
      15    O1      21.432043   19.090202   23.203036 O.3        1 MOL1        -0.5512
      16    H10     21.873881   19.910729   22.898003 H          1 MOL1         0.3776
@<TRIPOS>BOND
    1     1     2    1
    2     1     3    1
    3     1     4    1
    4     4     5    1
    5     4     6    1
    6     4     7    1
    7     7     8    1
    8     7     9    1
    9     7    10    1
   10    10    11    1
   11     1    12    1
   12    10    12    1
   13    12    13    1
   14    12    14    1
   15    10    15    1
   16    15    16    1
@<TRIPOS>SUBSTRUCTURE
       1 MOL1            1 RESIDUE      1      MOL     
@<SCITEGIC>MOL_PROPERTY
VConf Rank
SciTegic.value.IntegerValue
824

@<SCITEGIC>MOL_PROPERTY
Conf_Id
SciTegic.value.IntegerValue
33

@<SCITEGIC>MOL_PROPERTY
Delta U+W
SciTegic.value.DoubleValue
0.015

@<SCITEGIC>MOL_PROPERTY
U+W
SciTegic.value.DoubleValue
3.025

@<SCITEGIC>MOL_PROPERTY
Grad RMS
SciTegic.value.DoubleValue
0.000000

@<SCITEGIC>MOL_PROPERTY
U
SciTegic.value.DoubleValue
5.843

@<SCITEGIC>MOL_PROPERTY
W
SciTegic.value.DoubleValue
-2.819

@<SCITEGIC>MOL_PROPERTY
W(PB)
SciTegic.value.DoubleValue
-4.568

@<SCITEGIC>MOL_PROPERTY
W(SA)
SciTegic.value.DoubleValue
1.750

@<SCITEGIC>MOL_PROPERTY
Valence
SciTegic.value.DoubleValue
13.789

@<SCITEGIC>MOL_PROPERTY
Coulomb
SciTegic.value.DoubleValue
-8.574

@<SCITEGIC>MOL_PROPERTY
VdW
SciTegic.value.DoubleValue
0.628

@<SCITEGIC>MOL_PROPERTY
VdW6
SciTegic.value.DoubleValue
-3.284

@<SCITEGIC>MOL_PROPERTY
VdW12
SciTegic.value.DoubleValue
3.913

@<SCITEGIC>MOL_PROPERTY
Bond
SciTegic.value.DoubleValue
0.054

@<SCITEGIC>MOL_PROPERTY
Angle
SciTegic.value.DoubleValue
4.033

@<SCITEGIC>MOL_PROPERTY
Pdih
SciTegic.value.DoubleValue
9.702

@<SCITEGIC>MOL_PROPERTY
Idih
SciTegic.value.DoubleValue
0.000

@<SCITEGIC>MOL_PROPERTY
Tether
SciTegic.value.DoubleValue
0.000

@<TRIPOS>MOLECULE
guest-4_confgen4.mol2 : confsearch ligand conformer 825
          16          16           1
SMALL
USER_CHARGES
 
@<TRIPOS>ATOM
       1    C1      18.223327   18.128641   21.789924 C.3        1 MOL1        -0.1689
       2    H1      18.309384   17.154080   21.289873 H          1 MOL1         0.0830
       3    H2      17.164573   18.421270   21.769739 H          1 MOL1         0.0830
       4    C2      19.113336   19.167288   21.072905 C.3        1 MOL1        -0.1689
       5    H3      19.629305   18.695672   20.225213 H          1 MOL1         0.0830
       6    H4      18.520248   20.003771   20.678518 H          1 MOL1         0.0830
       7    C3      20.139957   19.658230   22.115719 C.3        1 MOL1        -0.1765
       8    H5      19.795731   20.605361   22.551691 H          1 MOL1         0.0830
       9    H6      21.130084   19.833897   21.674364 H          1 MOL1         0.0830
      10    C4      20.175021   18.587520   23.214511 C.3        1 MOL1         0.1214
      11    H7      20.460150   19.014669   24.186740 H          1 MOL1         0.0787
      12    C5      18.744781   18.031867   23.239434 C.3        1 MOL1        -0.1765
      13    H8      18.703824   17.005894   23.628927 H          1 MOL1         0.0830
      14    H9      18.128623   18.662516   23.893845 H          1 MOL1         0.0830
      15    O1      21.071517   17.554491   22.832476 O.3        1 MOL1        -0.5512
      16    H10     20.741891   17.238596   21.966036 H          1 MOL1         0.3776
@<TRIPOS>BOND
    1     1     2    1
    2     1     3    1
    3     1     4    1
    4     4     5    1
    5     4     6    1
    6     4     7    1
    7     7     8    1
    8     7     9    1
    9     7    10    1
   10    10    11    1
   11     1    12    1
   12    10    12    1
   13    12    13    1
   14    12    14    1
   15    10    15    1
   16    15    16    1
@<TRIPOS>SUBSTRUCTURE
       1 MOL1            1 RESIDUE      1      MOL     
@<SCITEGIC>MOL_PROPERTY
VConf Rank
SciTegic.value.IntegerValue
825

@<SCITEGIC>MOL_PROPERTY
Conf_Id
SciTegic.value.IntegerValue
20

@<SCITEGIC>MOL_PROPERTY
Delta U+W
SciTegic.value.DoubleValue
-0.483

@<SCITEGIC>MOL_PROPERTY
U+W
SciTegic.value.DoubleValue
2.527

@<SCITEGIC>MOL_PROPERTY
Grad RMS
SciTegic.value.DoubleValue
0.000000

@<SCITEGIC>MOL_PROPERTY
U
SciTegic.value.DoubleValue
4.508

@<SCITEGIC>MOL_PROPERTY
W
SciTegic.value.DoubleValue
-1.981

@<SCITEGIC>MOL_PROPERTY
W(PB)
SciTegic.value.DoubleValue
-3.712

@<SCITEGIC>MOL_PROPERTY
W(SA)
SciTegic.value.DoubleValue
1.732

@<SCITEGIC>MOL_PROPERTY
Valence
SciTegic.value.DoubleValue
14.705

@<SCITEGIC>MOL_PROPERTY
Coulomb
SciTegic.value.DoubleValue
-10.687

@<SCITEGIC>MOL_PROPERTY
VdW
SciTegic.value.DoubleValue
0.490

@<SCITEGIC>MOL_PROPERTY
VdW6
SciTegic.value.DoubleValue
-3.745

@<SCITEGIC>MOL_PROPERTY
VdW12
SciTegic.value.DoubleValue
4.235

@<SCITEGIC>MOL_PROPERTY
Bond
SciTegic.value.DoubleValue
0.068

@<SCITEGIC>MOL_PROPERTY
Angle
SciTegic.value.DoubleValue
3.901

@<SCITEGIC>MOL_PROPERTY
Pdih
SciTegic.value.DoubleValue
10.737

@<SCITEGIC>MOL_PROPERTY
Idih
SciTegic.value.DoubleValue
0.000

@<SCITEGIC>MOL_PROPERTY
Tether
SciTegic.value.DoubleValue
0.000

@<TRIPOS>MOLECULE
guest-4_confgen4.mol2 : confsearch ligand conformer 826
          16          16           1
SMALL
USER_CHARGES
 
@<TRIPOS>ATOM
       1    C1      18.475766   19.583033   22.839978 C.3        1 MOL1        -0.1689
       2    H1      17.828911   19.062200   23.559692 H          1 MOL1         0.0830
       3    H2      18.225307   20.652319   22.863248 H          1 MOL1         0.0830
       4    C2      18.292962   18.968369   21.445526 C.3        1 MOL1        -0.1689
       5    H3      17.244871   18.716370   21.233956 H          1 MOL1         0.0830
       6    H4      18.636769   19.678487   20.680572 H          1 MOL1         0.0830
       7    C3      19.204258   17.727377   21.451423 C.3        1 MOL1        -0.1765
       8    H5      19.573771   17.496273   20.444002 H          1 MOL1         0.0830
       9    H6      18.633651   16.859384   21.808887 H          1 MOL1         0.0830
      10    C4      20.362080   18.042649   22.421852 C.3        1 MOL1         0.1214
      11    H7      21.284384   18.239446   21.856038 H          1 MOL1         0.0787
      12    C5      19.952205   19.317612   23.187558 C.3        1 MOL1        -0.1765
      13    H8      20.101007   19.219016   24.271144 H          1 MOL1         0.0830
      14    H9      20.568954   20.157057   22.841100 H          1 MOL1         0.0830
      15    O1      20.549059   16.963690   23.330023 O.3        1 MOL1        -0.5512
      16    H10     20.795611   16.182253   22.791413 H          1 MOL1         0.3776
@<TRIPOS>BOND
    1     1     2    1
    2     1     3    1
    3     1     4    1
    4     4     5    1
    5     4     6    1
    6     4     7    1
    7     7     8    1
    8     7     9    1
    9     7    10    1
   10    10    11    1
   11     1    12    1
   12    10    12    1
   13    12    13    1
   14    12    14    1
   15    10    15    1
   16    15    16    1
@<TRIPOS>SUBSTRUCTURE
       1 MOL1            1 RESIDUE      1      MOL     
@<SCITEGIC>MOL_PROPERTY
VConf Rank
SciTegic.value.IntegerValue
826

@<SCITEGIC>MOL_PROPERTY
Conf_Id
SciTegic.value.IntegerValue
59

@<SCITEGIC>MOL_PROPERTY
Delta U+W
SciTegic.value.DoubleValue
0.000

@<SCITEGIC>MOL_PROPERTY
U+W
SciTegic.value.DoubleValue
3.010

@<SCITEGIC>MOL_PROPERTY
Grad RMS
SciTegic.value.DoubleValue
0.000000

@<SCITEGIC>MOL_PROPERTY
U
SciTegic.value.DoubleValue
5.843

@<SCITEGIC>MOL_PROPERTY
W
SciTegic.value.DoubleValue
-2.833

@<SCITEGIC>MOL_PROPERTY
W(PB)
SciTegic.value.DoubleValue
-4.568

@<SCITEGIC>MOL_PROPERTY
W(SA)
SciTegic.value.DoubleValue
1.735

@<SCITEGIC>MOL_PROPERTY
Valence
SciTegic.value.DoubleValue
13.789

@<SCITEGIC>MOL_PROPERTY
Coulomb
SciTegic.value.DoubleValue
-8.574

@<SCITEGIC>MOL_PROPERTY
VdW
SciTegic.value.DoubleValue
0.628

@<SCITEGIC>MOL_PROPERTY
VdW6
SciTegic.value.DoubleValue
-3.284

@<SCITEGIC>MOL_PROPERTY
VdW12
SciTegic.value.DoubleValue
3.912

@<SCITEGIC>MOL_PROPERTY
Bond
SciTegic.value.DoubleValue
0.054

@<SCITEGIC>MOL_PROPERTY
Angle
SciTegic.value.DoubleValue
4.034

@<SCITEGIC>MOL_PROPERTY
Pdih
SciTegic.value.DoubleValue
9.702

@<SCITEGIC>MOL_PROPERTY
Idih
SciTegic.value.DoubleValue
0.000

@<SCITEGIC>MOL_PROPERTY
Tether
SciTegic.value.DoubleValue
0.000

@<TRIPOS>MOLECULE
guest-4_confgen4.mol2 : confsearch ligand conformer 827
          16          16           1
SMALL
USER_CHARGES
 
@<TRIPOS>ATOM
       1    C1      18.989787   18.873127   23.626121 C.3        1 MOL1        -0.1689
       2    H1      18.072979   18.776711   24.223554 H          1 MOL1         0.0830
       3    H2      19.810553   19.156565   24.299640 H          1 MOL1         0.0830
       4    C2      18.852757   19.918601   22.510803 C.3        1 MOL1        -0.1689
       5    H3      17.851570   19.850204   22.062891 H          1 MOL1         0.0830
       6    H4      18.996546   20.944163   22.877121 H          1 MOL1         0.0830
       7    C3      19.912209   19.512469   21.469796 C.3        1 MOL1        -0.1765
       8    H5      20.861738   20.015201   21.695050 H          1 MOL1         0.0830
       9    H6      19.613238   19.803445   20.453938 H          1 MOL1         0.0830
      10    C4      20.104525   17.988243   21.609614 C.3        1 MOL1         0.1214
      11    H7      21.176201   17.765575   21.716614 H          1 MOL1         0.0787
      12    C5      19.347922   17.570182   22.888095 C.3        1 MOL1        -0.1765
      13    H8      18.424731   17.035383   22.626390 H          1 MOL1         0.0830
      14    H9      19.955034   16.906670   23.517393 H          1 MOL1         0.0830
      15    O1      19.561951   17.319446   20.477262 O.3        1 MOL1        -0.5512
      16    H10     19.700875   16.359928   20.624078 H          1 MOL1         0.3776
@<TRIPOS>BOND
    1     1     2    1
    2     1     3    1
    3     1     4    1
    4     4     5    1
    5     4     6    1
    6     4     7    1
    7     7     8    1
    8     7     9    1
    9     7    10    1
   10    10    11    1
   11     1    12    1
   12    10    12    1
   13    12    13    1
   14    12    14    1
   15    10    15    1
   16    15    16    1
@<TRIPOS>SUBSTRUCTURE
       1 MOL1            1 RESIDUE      1      MOL     
@<SCITEGIC>MOL_PROPERTY
VConf Rank
SciTegic.value.IntegerValue
827

@<SCITEGIC>MOL_PROPERTY
Conf_Id
SciTegic.value.IntegerValue
33

@<SCITEGIC>MOL_PROPERTY
Delta U+W
SciTegic.value.DoubleValue
0.015

@<SCITEGIC>MOL_PROPERTY
U+W
SciTegic.value.DoubleValue
3.025

@<SCITEGIC>MOL_PROPERTY
Grad RMS
SciTegic.value.DoubleValue
0.000000

@<SCITEGIC>MOL_PROPERTY
U
SciTegic.value.DoubleValue
5.843

@<SCITEGIC>MOL_PROPERTY
W
SciTegic.value.DoubleValue
-2.819

@<SCITEGIC>MOL_PROPERTY
W(PB)
SciTegic.value.DoubleValue
-4.568

@<SCITEGIC>MOL_PROPERTY
W(SA)
SciTegic.value.DoubleValue
1.750

@<SCITEGIC>MOL_PROPERTY
Valence
SciTegic.value.DoubleValue
13.789

@<SCITEGIC>MOL_PROPERTY
Coulomb
SciTegic.value.DoubleValue
-8.574

@<SCITEGIC>MOL_PROPERTY
VdW
SciTegic.value.DoubleValue
0.628

@<SCITEGIC>MOL_PROPERTY
VdW6
SciTegic.value.DoubleValue
-3.284

@<SCITEGIC>MOL_PROPERTY
VdW12
SciTegic.value.DoubleValue
3.913

@<SCITEGIC>MOL_PROPERTY
Bond
SciTegic.value.DoubleValue
0.054

@<SCITEGIC>MOL_PROPERTY
Angle
SciTegic.value.DoubleValue
4.033

@<SCITEGIC>MOL_PROPERTY
Pdih
SciTegic.value.DoubleValue
9.702

@<SCITEGIC>MOL_PROPERTY
Idih
SciTegic.value.DoubleValue
0.000

@<SCITEGIC>MOL_PROPERTY
Tether
SciTegic.value.DoubleValue
0.000

@<TRIPOS>MOLECULE
guest-4_confgen4.mol2 : confsearch ligand conformer 828
          16          16           1
SMALL
USER_CHARGES
 
@<TRIPOS>ATOM
       1    C1      20.112778   19.648523   22.667213 C.3        1 MOL1        -0.1689
       2    H1      19.813834   20.057692   23.642118 H          1 MOL1         0.0830
       3    H2      20.974690   20.229790   22.311919 H          1 MOL1         0.0830
       4    C2      18.928527   19.727244   21.679096 C.3        1 MOL1        -0.1689
       5    H3      18.056781   20.175474   22.175458 H          1 MOL1         0.0830
       6    H4      19.171322   20.348884   20.806391 H          1 MOL1         0.0830
       7    C3      18.613939   18.276418   21.256516 C.3        1 MOL1        -0.1765
       8    H5      19.095441   18.062304   20.293224 H          1 MOL1         0.0830
       9    H6      17.536262   18.101935   21.137467 H          1 MOL1         0.0830
      10    C4      19.232998   17.376052   22.334060 C.3        1 MOL1         0.1214
      11    H7      19.503838   16.389737   21.930561 H          1 MOL1         0.0787
      12    C5      20.470127   18.153184   22.803670 C.3        1 MOL1        -0.1765
      13    H8      20.764434   17.887295   23.827725 H          1 MOL1         0.0830
      14    H9      21.313076   17.915521   22.141419 H          1 MOL1         0.0830
      15    O1      18.322430   17.248055   23.416321 O.3        1 MOL1        -0.5512
      16    H10     18.141276   18.165657   23.706757 H          1 MOL1         0.3776
@<TRIPOS>BOND
    1     1     2    1
    2     1     3    1
    3     1     4    1
    4     4     5    1
    5     4     6    1
    6     4     7    1
    7     7     8    1
    8     7     9    1
    9     7    10    1
   10    10    11    1
   11     1    12    1
   12    10    12    1
   13    12    13    1
   14    12    14    1
   15    10    15    1
   16    15    16    1
@<TRIPOS>SUBSTRUCTURE
       1 MOL1            1 RESIDUE      1      MOL     
@<SCITEGIC>MOL_PROPERTY
VConf Rank
SciTegic.value.IntegerValue
828

@<SCITEGIC>MOL_PROPERTY
Conf_Id
SciTegic.value.IntegerValue
20

@<SCITEGIC>MOL_PROPERTY
Delta U+W
SciTegic.value.DoubleValue
-0.483

@<SCITEGIC>MOL_PROPERTY
U+W
SciTegic.value.DoubleValue
2.527

@<SCITEGIC>MOL_PROPERTY
Grad RMS
SciTegic.value.DoubleValue
0.000000

@<SCITEGIC>MOL_PROPERTY
U
SciTegic.value.DoubleValue
4.508

@<SCITEGIC>MOL_PROPERTY
W
SciTegic.value.DoubleValue
-1.981

@<SCITEGIC>MOL_PROPERTY
W(PB)
SciTegic.value.DoubleValue
-3.712

@<SCITEGIC>MOL_PROPERTY
W(SA)
SciTegic.value.DoubleValue
1.732

@<SCITEGIC>MOL_PROPERTY
Valence
SciTegic.value.DoubleValue
14.705

@<SCITEGIC>MOL_PROPERTY
Coulomb
SciTegic.value.DoubleValue
-10.687

@<SCITEGIC>MOL_PROPERTY
VdW
SciTegic.value.DoubleValue
0.490

@<SCITEGIC>MOL_PROPERTY
VdW6
SciTegic.value.DoubleValue
-3.745

@<SCITEGIC>MOL_PROPERTY
VdW12
SciTegic.value.DoubleValue
4.235

@<SCITEGIC>MOL_PROPERTY
Bond
SciTegic.value.DoubleValue
0.068

@<SCITEGIC>MOL_PROPERTY
Angle
SciTegic.value.DoubleValue
3.901

@<SCITEGIC>MOL_PROPERTY
Pdih
SciTegic.value.DoubleValue
10.737

@<SCITEGIC>MOL_PROPERTY
Idih
SciTegic.value.DoubleValue
0.000

@<SCITEGIC>MOL_PROPERTY
Tether
SciTegic.value.DoubleValue
0.000

@<TRIPOS>MOLECULE
guest-4_confgen4.mol2 : confsearch ligand conformer 829
          16          16           1
SMALL
USER_CHARGES
 
@<TRIPOS>ATOM
       1    C1      18.165467   18.923161   21.569075 C.3        1 MOL1        -0.1689
       2    H1      17.339300   18.413806   22.084521 H          1 MOL1         0.0830
       3    H2      17.742329   19.530842   20.757705 H          1 MOL1         0.0830
       4    C2      19.172354   17.883232   21.058727 C.3        1 MOL1        -0.1689
       5    H3      18.680276   16.986413   20.658310 H          1 MOL1         0.0830
       6    H4      19.786178   18.323629   20.260670 H          1 MOL1         0.0830
       7    C3      20.053904   17.571121   22.281843 C.3        1 MOL1        -0.1765
       8    H5      21.068086   17.278184   21.981063 H          1 MOL1         0.0830
       9    H6      19.613826   16.735580   22.843080 H          1 MOL1         0.0830
      10    C4      20.065640   18.849071   23.146936 C.3        1 MOL1         0.1214
      11    H7      21.038709   19.354009   23.059224 H          1 MOL1         0.0787
      12    C5      18.962449   19.766952   22.580987 C.3        1 MOL1        -0.1765
      13    H8      18.313640   20.173203   23.368406 H          1 MOL1         0.0830
      14    H9      19.431871   20.614645   22.065098 H          1 MOL1         0.0830
      15    O1      19.786618   18.525853   24.503979 O.3        1 MOL1        -0.5512
      16    H10     20.508918   17.935833   24.806786 H          1 MOL1         0.3776
@<TRIPOS>BOND
    1     1     2    1
    2     1     3    1
    3     1     4    1
    4     4     5    1
    5     4     6    1
    6     4     7    1
    7     7     8    1
    8     7     9    1
    9     7    10    1
   10    10    11    1
   11     1    12    1
   12    10    12    1
   13    12    13    1
   14    12    14    1
   15    10    15    1
   16    15    16    1
@<TRIPOS>SUBSTRUCTURE
       1 MOL1            1 RESIDUE      1      MOL     
@<SCITEGIC>MOL_PROPERTY
VConf Rank
SciTegic.value.IntegerValue
829

@<SCITEGIC>MOL_PROPERTY
Conf_Id
SciTegic.value.IntegerValue
59

@<SCITEGIC>MOL_PROPERTY
Delta U+W
SciTegic.value.DoubleValue
0.000

@<SCITEGIC>MOL_PROPERTY
U+W
SciTegic.value.DoubleValue
3.010

@<SCITEGIC>MOL_PROPERTY
Grad RMS
SciTegic.value.DoubleValue
0.000000

@<SCITEGIC>MOL_PROPERTY
U
SciTegic.value.DoubleValue
5.843

@<SCITEGIC>MOL_PROPERTY
W
SciTegic.value.DoubleValue
-2.833

@<SCITEGIC>MOL_PROPERTY
W(PB)
SciTegic.value.DoubleValue
-4.568

@<SCITEGIC>MOL_PROPERTY
W(SA)
SciTegic.value.DoubleValue
1.735

@<SCITEGIC>MOL_PROPERTY
Valence
SciTegic.value.DoubleValue
13.789

@<SCITEGIC>MOL_PROPERTY
Coulomb
SciTegic.value.DoubleValue
-8.574

@<SCITEGIC>MOL_PROPERTY
VdW
SciTegic.value.DoubleValue
0.628

@<SCITEGIC>MOL_PROPERTY
VdW6
SciTegic.value.DoubleValue
-3.284

@<SCITEGIC>MOL_PROPERTY
VdW12
SciTegic.value.DoubleValue
3.912

@<SCITEGIC>MOL_PROPERTY
Bond
SciTegic.value.DoubleValue
0.054

@<SCITEGIC>MOL_PROPERTY
Angle
SciTegic.value.DoubleValue
4.034

@<SCITEGIC>MOL_PROPERTY
Pdih
SciTegic.value.DoubleValue
9.702

@<SCITEGIC>MOL_PROPERTY
Idih
SciTegic.value.DoubleValue
0.000

@<SCITEGIC>MOL_PROPERTY
Tether
SciTegic.value.DoubleValue
0.000

@<TRIPOS>MOLECULE
guest-4_confgen4.mol2 : confsearch ligand conformer 830
          16          16           1
SMALL
USER_CHARGES
 
@<TRIPOS>ATOM
       1    C1      18.456857   18.017193   21.446181 C.3        1 MOL1        -0.1689
       2    H1      17.564784   18.310655   20.876229 H          1 MOL1         0.0830
       3    H2      18.699714   16.975981   21.192174 H          1 MOL1         0.0830
       4    C2      18.249437   18.143987   22.961644 C.3        1 MOL1        -0.1689
       5    H3      17.673154   19.053966   23.179622 H          1 MOL1         0.0830
       6    H4      17.710126   17.285542   23.384561 H          1 MOL1         0.0830
       7    C3      19.671717   18.284727   23.534696 C.3        1 MOL1        -0.1765
       8    H5      20.074862   17.290733   23.768223 H          1 MOL1         0.0830
       9    H6      19.677712   18.873574   24.461650 H          1 MOL1         0.0830
      10    C4      20.530659   18.928276   22.426607 C.3        1 MOL1         0.1214
      11    H7      21.436363   18.323895   22.271874 H          1 MOL1         0.0787
      12    C5      19.666504   18.921865   21.147963 C.3        1 MOL1        -0.1765
      13    H8      19.313699   19.937338   20.921853 H          1 MOL1         0.0830
      14    H9      20.233070   18.560748   20.279951 H          1 MOL1         0.0830
      15    O1      20.870789   20.263015   22.782528 O.3        1 MOL1        -0.5512
      16    H10     21.403168   20.624416   22.042602 H          1 MOL1         0.3776
@<TRIPOS>BOND
    1     1     2    1
    2     1     3    1
    3     1     4    1
    4     4     5    1
    5     4     6    1
    6     4     7    1
    7     7     8    1
    8     7     9    1
    9     7    10    1
   10    10    11    1
   11     1    12    1
   12    10    12    1
   13    12    13    1
   14    12    14    1
   15    10    15    1
   16    15    16    1
@<TRIPOS>SUBSTRUCTURE
       1 MOL1            1 RESIDUE      1      MOL     
@<SCITEGIC>MOL_PROPERTY
VConf Rank
SciTegic.value.IntegerValue
830

@<SCITEGIC>MOL_PROPERTY
Conf_Id
SciTegic.value.IntegerValue
33

@<SCITEGIC>MOL_PROPERTY
Delta U+W
SciTegic.value.DoubleValue
0.015

@<SCITEGIC>MOL_PROPERTY
U+W
SciTegic.value.DoubleValue
3.025

@<SCITEGIC>MOL_PROPERTY
Grad RMS
SciTegic.value.DoubleValue
0.000000

@<SCITEGIC>MOL_PROPERTY
U
SciTegic.value.DoubleValue
5.843

@<SCITEGIC>MOL_PROPERTY
W
SciTegic.value.DoubleValue
-2.819

@<SCITEGIC>MOL_PROPERTY
W(PB)
SciTegic.value.DoubleValue
-4.568

@<SCITEGIC>MOL_PROPERTY
W(SA)
SciTegic.value.DoubleValue
1.750

@<SCITEGIC>MOL_PROPERTY
Valence
SciTegic.value.DoubleValue
13.789

@<SCITEGIC>MOL_PROPERTY
Coulomb
SciTegic.value.DoubleValue
-8.574

@<SCITEGIC>MOL_PROPERTY
VdW
SciTegic.value.DoubleValue
0.628

@<SCITEGIC>MOL_PROPERTY
VdW6
SciTegic.value.DoubleValue
-3.284

@<SCITEGIC>MOL_PROPERTY
VdW12
SciTegic.value.DoubleValue
3.913

@<SCITEGIC>MOL_PROPERTY
Bond
SciTegic.value.DoubleValue
0.054

@<SCITEGIC>MOL_PROPERTY
Angle
SciTegic.value.DoubleValue
4.033

@<SCITEGIC>MOL_PROPERTY
Pdih
SciTegic.value.DoubleValue
9.702

@<SCITEGIC>MOL_PROPERTY
Idih
SciTegic.value.DoubleValue
0.000

@<SCITEGIC>MOL_PROPERTY
Tether
SciTegic.value.DoubleValue
0.000

@<TRIPOS>MOLECULE
guest-4_confgen4.mol2 : confsearch ligand conformer 831
          16          16           1
SMALL
USER_CHARGES
 
@<TRIPOS>ATOM
       1    C1      18.520174   18.122770   21.357530 C.3        1 MOL1        -0.1689
       2    H1      18.740267   18.411852   20.320603 H          1 MOL1         0.0830
       3    H2      17.631318   17.477253   21.342067 H          1 MOL1         0.0830
       4    C2      18.290448   19.384999   22.217197 C.3        1 MOL1        -0.1689
       5    H3      18.398312   20.284911   21.596109 H          1 MOL1         0.0830
       6    H4      17.281732   19.399253   22.652270 H          1 MOL1         0.0830
       7    C3      19.370099   19.365813   23.320112 C.3        1 MOL1        -0.1765
       8    H5      18.944755   18.949088   24.242632 H          1 MOL1         0.0830
       9    H6      19.747624   20.370987   23.550560 H          1 MOL1         0.0830
      10    C4      20.477169   18.430759   22.815076 C.3        1 MOL1         0.1214
      11    H7      21.023086   17.963538   23.647339 H          1 MOL1         0.0787
      12    C5      19.729251   17.387611   21.973996 C.3        1 MOL1        -0.1765
      13    H8      20.372281   16.930581   21.210032 H          1 MOL1         0.0830
      14    H9      19.373362   16.585816   22.634367 H          1 MOL1         0.0830
      15    O1      21.360290   19.161564   21.976726 O.3        1 MOL1        -0.5512
      16    H10     20.791585   19.536969   21.273300 H          1 MOL1         0.3776
@<TRIPOS>BOND
    1     1     2    1
    2     1     3    1
    3     1     4    1
    4     4     5    1
    5     4     6    1
    6     4     7    1
    7     7     8    1
    8     7     9    1
    9     7    10    1
   10    10    11    1
   11     1    12    1
   12    10    12    1
   13    12    13    1
   14    12    14    1
   15    10    15    1
   16    15    16    1
@<TRIPOS>SUBSTRUCTURE
       1 MOL1            1 RESIDUE      1      MOL     
@<SCITEGIC>MOL_PROPERTY
VConf Rank
SciTegic.value.IntegerValue
831

@<SCITEGIC>MOL_PROPERTY
Conf_Id
SciTegic.value.IntegerValue
20

@<SCITEGIC>MOL_PROPERTY
Delta U+W
SciTegic.value.DoubleValue
-0.483

@<SCITEGIC>MOL_PROPERTY
U+W
SciTegic.value.DoubleValue
2.527

@<SCITEGIC>MOL_PROPERTY
Grad RMS
SciTegic.value.DoubleValue
0.000000

@<SCITEGIC>MOL_PROPERTY
U
SciTegic.value.DoubleValue
4.508

@<SCITEGIC>MOL_PROPERTY
W
SciTegic.value.DoubleValue
-1.981

@<SCITEGIC>MOL_PROPERTY
W(PB)
SciTegic.value.DoubleValue
-3.712

@<SCITEGIC>MOL_PROPERTY
W(SA)
SciTegic.value.DoubleValue
1.732

@<SCITEGIC>MOL_PROPERTY
Valence
SciTegic.value.DoubleValue
14.705

@<SCITEGIC>MOL_PROPERTY
Coulomb
SciTegic.value.DoubleValue
-10.687

@<SCITEGIC>MOL_PROPERTY
VdW
SciTegic.value.DoubleValue
0.490

@<SCITEGIC>MOL_PROPERTY
VdW6
SciTegic.value.DoubleValue
-3.745

@<SCITEGIC>MOL_PROPERTY
VdW12
SciTegic.value.DoubleValue
4.235

@<SCITEGIC>MOL_PROPERTY
Bond
SciTegic.value.DoubleValue
0.068

@<SCITEGIC>MOL_PROPERTY
Angle
SciTegic.value.DoubleValue
3.901

@<SCITEGIC>MOL_PROPERTY
Pdih
SciTegic.value.DoubleValue
10.737

@<SCITEGIC>MOL_PROPERTY
Idih
SciTegic.value.DoubleValue
0.000

@<SCITEGIC>MOL_PROPERTY
Tether
SciTegic.value.DoubleValue
0.000

@<TRIPOS>MOLECULE
guest-4_confgen4.mol2 : confsearch ligand conformer 832
          16          16           1
SMALL
USER_CHARGES
 
@<TRIPOS>ATOM
       1    C1      18.360560   19.375542   21.647923 C.3        1 MOL1        -0.1689
       2    H1      17.646469   18.660828   21.215565 H          1 MOL1         0.0830
       3    H2      17.995015   20.391659   21.446607 H          1 MOL1         0.0830
       4    C2      19.756407   19.127484   21.059869 C.3        1 MOL1        -0.1689
       5    H3      19.722258   18.891075   19.987627 H          1 MOL1         0.0830
       6    H4      20.378789   20.023092   21.194601 H          1 MOL1         0.0830
       7    C3      20.324510   17.967459   21.897816 C.3        1 MOL1        -0.1765
       8    H5      21.419296   18.016331   21.960271 H          1 MOL1         0.0830
       9    H6      20.055768   17.012659   21.425673 H          1 MOL1         0.0830
      10    C4      19.671338   18.077253   23.291729 C.3        1 MOL1         0.1214
      11    H7      20.403366   18.452065   24.021913 H          1 MOL1         0.0787
      12    C5      18.521629   19.096541   23.153694 C.3        1 MOL1        -0.1765
      13    H8      17.586341   18.732832   23.599758 H          1 MOL1         0.0830
      14    H9      18.800457   20.023017   23.672326 H          1 MOL1         0.0830
      15    O1      19.159951   16.812523   23.695250 O.3        1 MOL1        -0.5512
      16    H10     19.927412   16.205175   23.755788 H          1 MOL1         0.3776
@<TRIPOS>BOND
    1     1     2    1
    2     1     3    1
    3     1     4    1
    4     4     5    1
    5     4     6    1
    6     4     7    1
    7     7     8    1
    8     7     9    1
    9     7    10    1
   10    10    11    1
   11     1    12    1
   12    10    12    1
   13    12    13    1
   14    12    14    1
   15    10    15    1
   16    15    16    1
@<TRIPOS>SUBSTRUCTURE
       1 MOL1            1 RESIDUE      1      MOL     
@<SCITEGIC>MOL_PROPERTY
VConf Rank
SciTegic.value.IntegerValue
832

@<SCITEGIC>MOL_PROPERTY
Conf_Id
SciTegic.value.IntegerValue
59

@<SCITEGIC>MOL_PROPERTY
Delta U+W
SciTegic.value.DoubleValue
0.000

@<SCITEGIC>MOL_PROPERTY
U+W
SciTegic.value.DoubleValue
3.010

@<SCITEGIC>MOL_PROPERTY
Grad RMS
SciTegic.value.DoubleValue
0.000000

@<SCITEGIC>MOL_PROPERTY
U
SciTegic.value.DoubleValue
5.843

@<SCITEGIC>MOL_PROPERTY
W
SciTegic.value.DoubleValue
-2.833

@<SCITEGIC>MOL_PROPERTY
W(PB)
SciTegic.value.DoubleValue
-4.568

@<SCITEGIC>MOL_PROPERTY
W(SA)
SciTegic.value.DoubleValue
1.735

@<SCITEGIC>MOL_PROPERTY
Valence
SciTegic.value.DoubleValue
13.789

@<SCITEGIC>MOL_PROPERTY
Coulomb
SciTegic.value.DoubleValue
-8.574

@<SCITEGIC>MOL_PROPERTY
VdW
SciTegic.value.DoubleValue
0.628

@<SCITEGIC>MOL_PROPERTY
VdW6
SciTegic.value.DoubleValue
-3.284

@<SCITEGIC>MOL_PROPERTY
VdW12
SciTegic.value.DoubleValue
3.912

@<SCITEGIC>MOL_PROPERTY
Bond
SciTegic.value.DoubleValue
0.054

@<SCITEGIC>MOL_PROPERTY
Angle
SciTegic.value.DoubleValue
4.034

@<SCITEGIC>MOL_PROPERTY
Pdih
SciTegic.value.DoubleValue
9.702

@<SCITEGIC>MOL_PROPERTY
Idih
SciTegic.value.DoubleValue
0.000

@<SCITEGIC>MOL_PROPERTY
Tether
SciTegic.value.DoubleValue
0.000

@<TRIPOS>MOLECULE
guest-4_confgen4.mol2 : confsearch ligand conformer 833
          16          16           1
SMALL
USER_CHARGES
 
@<TRIPOS>ATOM
       1    C1      19.950647   19.809746   21.677633 C.3        1 MOL1        -0.1689
       2    H1      19.591624   20.632372   21.044271 H          1 MOL1         0.0830
       3    H2      20.968005   20.053805   22.013847 H          1 MOL1         0.0830
       4    C2      19.959992   18.464757   20.938279 C.3        1 MOL1        -0.1689
       5    H3      19.064547   18.385773   20.306125 H          1 MOL1         0.0830
       6    H4      20.844679   18.343847   20.298473 H          1 MOL1         0.0830
       7    C3      19.895645   17.409351   22.057678 C.3        1 MOL1        -0.1765
       8    H5      20.913317   17.138696   22.367797 H          1 MOL1         0.0830
       9    H6      19.394462   16.492253   21.720384 H          1 MOL1         0.0830
      10    C4      19.167306   18.071751   23.245342 C.3        1 MOL1         0.1214
      11    H7      19.769661   17.945868   24.156846 H          1 MOL1         0.0787
      12    C5      19.042317   19.570128   22.897523 C.3        1 MOL1        -0.1765
      13    H8      18.004761   19.813871   22.631346 H          1 MOL1         0.0830
      14    H9      19.331517   20.206259   23.744014 H          1 MOL1         0.0830
      15    O1      17.876564   17.497049   23.411479 O.3        1 MOL1        -0.5512
      16    H10     17.457575   17.960386   24.167320 H          1 MOL1         0.3776
@<TRIPOS>BOND
    1     1     2    1
    2     1     3    1
    3     1     4    1
    4     4     5    1
    5     4     6    1
    6     4     7    1
    7     7     8    1
    8     7     9    1
    9     7    10    1
   10    10    11    1
   11     1    12    1
   12    10    12    1
   13    12    13    1
   14    12    14    1
   15    10    15    1
   16    15    16    1
@<TRIPOS>SUBSTRUCTURE
       1 MOL1            1 RESIDUE      1      MOL     
@<SCITEGIC>MOL_PROPERTY
VConf Rank
SciTegic.value.IntegerValue
833

@<SCITEGIC>MOL_PROPERTY
Conf_Id
SciTegic.value.IntegerValue
33

@<SCITEGIC>MOL_PROPERTY
Delta U+W
SciTegic.value.DoubleValue
0.015

@<SCITEGIC>MOL_PROPERTY
U+W
SciTegic.value.DoubleValue
3.025

@<SCITEGIC>MOL_PROPERTY
Grad RMS
SciTegic.value.DoubleValue
0.000000

@<SCITEGIC>MOL_PROPERTY
U
SciTegic.value.DoubleValue
5.843

@<SCITEGIC>MOL_PROPERTY
W
SciTegic.value.DoubleValue
-2.819

@<SCITEGIC>MOL_PROPERTY
W(PB)
SciTegic.value.DoubleValue
-4.568

@<SCITEGIC>MOL_PROPERTY
W(SA)
SciTegic.value.DoubleValue
1.750

@<SCITEGIC>MOL_PROPERTY
Valence
SciTegic.value.DoubleValue
13.789

@<SCITEGIC>MOL_PROPERTY
Coulomb
SciTegic.value.DoubleValue
-8.574

@<SCITEGIC>MOL_PROPERTY
VdW
SciTegic.value.DoubleValue
0.628

@<SCITEGIC>MOL_PROPERTY
VdW6
SciTegic.value.DoubleValue
-3.284

@<SCITEGIC>MOL_PROPERTY
VdW12
SciTegic.value.DoubleValue
3.913

@<SCITEGIC>MOL_PROPERTY
Bond
SciTegic.value.DoubleValue
0.054

@<SCITEGIC>MOL_PROPERTY
Angle
SciTegic.value.DoubleValue
4.033

@<SCITEGIC>MOL_PROPERTY
Pdih
SciTegic.value.DoubleValue
9.702

@<SCITEGIC>MOL_PROPERTY
Idih
SciTegic.value.DoubleValue
0.000

@<SCITEGIC>MOL_PROPERTY
Tether
SciTegic.value.DoubleValue
0.000

@<TRIPOS>MOLECULE
guest-4_confgen4.mol2 : confsearch ligand conformer 834
          16          16           1
SMALL
USER_CHARGES
 
@<TRIPOS>ATOM
       1    C1      18.660559   17.580962   22.716912 C.3        1 MOL1        -0.1689
       2    H1      17.602797   17.599357   22.420217 H          1 MOL1         0.0830
       3    H2      18.823427   16.673422   23.314274 H          1 MOL1         0.0830
       4    C2      19.003935   18.856579   23.516860 C.3        1 MOL1        -0.1689
       5    H3      18.112114   19.491824   23.608225 H          1 MOL1         0.0830
       6    H4      19.347406   18.616256   24.532376 H          1 MOL1         0.0830
       7    C3      20.102281   19.591108   22.719027 C.3        1 MOL1        -0.1765
       8    H5      21.086595   19.347846   23.140419 H          1 MOL1         0.0830
       9    H6      19.983762   20.682278   22.755182 H          1 MOL1         0.0830
      10    C4      20.024580   19.045124   21.286946 C.3        1 MOL1         0.1214
      11    H7      20.998044   19.101939   20.778887 H          1 MOL1         0.0787
      12    C5      19.565183   17.591947   21.466356 C.3        1 MOL1        -0.1765
      13    H8      19.050207   17.205613   20.576665 H          1 MOL1         0.0830
      14    H9      20.444810   16.959324   21.644306 H          1 MOL1         0.0830
      15    O1      19.034035   19.763129   20.565768 O.3        1 MOL1        -0.5512
      16    H10     18.212017   19.657055   21.087492 H          1 MOL1         0.3776
@<TRIPOS>BOND
    1     1     2    1
    2     1     3    1
    3     1     4    1
    4     4     5    1
    5     4     6    1
    6     4     7    1
    7     7     8    1
    8     7     9    1
    9     7    10    1
   10    10    11    1
   11     1    12    1
   12    10    12    1
   13    12    13    1
   14    12    14    1
   15    10    15    1
   16    15    16    1
@<TRIPOS>SUBSTRUCTURE
       1 MOL1            1 RESIDUE      1      MOL     
@<SCITEGIC>MOL_PROPERTY
VConf Rank
SciTegic.value.IntegerValue
834

@<SCITEGIC>MOL_PROPERTY
Conf_Id
SciTegic.value.IntegerValue
20

@<SCITEGIC>MOL_PROPERTY
Delta U+W
SciTegic.value.DoubleValue
-0.483

@<SCITEGIC>MOL_PROPERTY
U+W
SciTegic.value.DoubleValue
2.527

@<SCITEGIC>MOL_PROPERTY
Grad RMS
SciTegic.value.DoubleValue
0.000000

@<SCITEGIC>MOL_PROPERTY
U
SciTegic.value.DoubleValue
4.508

@<SCITEGIC>MOL_PROPERTY
W
SciTegic.value.DoubleValue
-1.981

@<SCITEGIC>MOL_PROPERTY
W(PB)
SciTegic.value.DoubleValue
-3.712

@<SCITEGIC>MOL_PROPERTY
W(SA)
SciTegic.value.DoubleValue
1.732

@<SCITEGIC>MOL_PROPERTY
Valence
SciTegic.value.DoubleValue
14.705

@<SCITEGIC>MOL_PROPERTY
Coulomb
SciTegic.value.DoubleValue
-10.687

@<SCITEGIC>MOL_PROPERTY
VdW
SciTegic.value.DoubleValue
0.490

@<SCITEGIC>MOL_PROPERTY
VdW6
SciTegic.value.DoubleValue
-3.745

@<SCITEGIC>MOL_PROPERTY
VdW12
SciTegic.value.DoubleValue
4.235

@<SCITEGIC>MOL_PROPERTY
Bond
SciTegic.value.DoubleValue
0.068

@<SCITEGIC>MOL_PROPERTY
Angle
SciTegic.value.DoubleValue
3.901

@<SCITEGIC>MOL_PROPERTY
Pdih
SciTegic.value.DoubleValue
10.737

@<SCITEGIC>MOL_PROPERTY
Idih
SciTegic.value.DoubleValue
0.000

@<SCITEGIC>MOL_PROPERTY
Tether
SciTegic.value.DoubleValue
0.000

@<TRIPOS>MOLECULE
guest-4_confgen4.mol2 : confsearch ligand conformer 835
          16          16           1
SMALL
USER_CHARGES
 
@<TRIPOS>ATOM
       1    C1      19.482139   19.148404   23.635183 C.3        1 MOL1        -0.1689
       2    H1      18.456086   19.415547   23.924192 H          1 MOL1         0.0830
       3    H2      20.149216   19.386678   24.474753 H          1 MOL1         0.0830
       4    C2      19.865994   19.896232   22.350996 C.3        1 MOL1        -0.1689
       5    H3      19.491823   20.929023   22.341035 H          1 MOL1         0.0830
       6    H4      20.960191   19.926247   22.253737 H          1 MOL1         0.0830
       7    C3      19.265447   19.044521   21.217643 C.3        1 MOL1        -0.1765
       8    H5      19.851247   19.135616   20.293854 H          1 MOL1         0.0830
       9    H6      18.244580   19.390243   21.005296 H          1 MOL1         0.0830
      10    C4      19.241117   17.589981   21.732812 C.3        1 MOL1         0.1214
      11    H7      20.026165   17.001527   21.235881 H          1 MOL1         0.0787
      12    C5      19.536977   17.659759   23.245238 C.3        1 MOL1        -0.1765
      13    H8      18.831157   17.060820   23.836095 H          1 MOL1         0.0830
      14    H9      20.545070   17.267041   23.431254 H          1 MOL1         0.0830
      15    O1      17.960758   17.011437   21.509527 O.3        1 MOL1        -0.5512
      16    H10     17.821600   17.002459   20.538915 H          1 MOL1         0.3776
@<TRIPOS>BOND
    1     1     2    1
    2     1     3    1
    3     1     4    1
    4     4     5    1
    5     4     6    1
    6     4     7    1
    7     7     8    1
    8     7     9    1
    9     7    10    1
   10    10    11    1
   11     1    12    1
   12    10    12    1
   13    12    13    1
   14    12    14    1
   15    10    15    1
   16    15    16    1
@<TRIPOS>SUBSTRUCTURE
       1 MOL1            1 RESIDUE      1      MOL     
@<SCITEGIC>MOL_PROPERTY
VConf Rank
SciTegic.value.IntegerValue
835

@<SCITEGIC>MOL_PROPERTY
Conf_Id
SciTegic.value.IntegerValue
59

@<SCITEGIC>MOL_PROPERTY
Delta U+W
SciTegic.value.DoubleValue
0.000

@<SCITEGIC>MOL_PROPERTY
U+W
SciTegic.value.DoubleValue
3.010

@<SCITEGIC>MOL_PROPERTY
Grad RMS
SciTegic.value.DoubleValue
0.000000

@<SCITEGIC>MOL_PROPERTY
U
SciTegic.value.DoubleValue
5.843

@<SCITEGIC>MOL_PROPERTY
W
SciTegic.value.DoubleValue
-2.833

@<SCITEGIC>MOL_PROPERTY
W(PB)
SciTegic.value.DoubleValue
-4.568

@<SCITEGIC>MOL_PROPERTY
W(SA)
SciTegic.value.DoubleValue
1.735

@<SCITEGIC>MOL_PROPERTY
Valence
SciTegic.value.DoubleValue
13.789

@<SCITEGIC>MOL_PROPERTY
Coulomb
SciTegic.value.DoubleValue
-8.574

@<SCITEGIC>MOL_PROPERTY
VdW
SciTegic.value.DoubleValue
0.628

@<SCITEGIC>MOL_PROPERTY
VdW6
SciTegic.value.DoubleValue
-3.284

@<SCITEGIC>MOL_PROPERTY
VdW12
SciTegic.value.DoubleValue
3.912

@<SCITEGIC>MOL_PROPERTY
Bond
SciTegic.value.DoubleValue
0.054

@<SCITEGIC>MOL_PROPERTY
Angle
SciTegic.value.DoubleValue
4.034

@<SCITEGIC>MOL_PROPERTY
Pdih
SciTegic.value.DoubleValue
9.702

@<SCITEGIC>MOL_PROPERTY
Idih
SciTegic.value.DoubleValue
0.000

@<SCITEGIC>MOL_PROPERTY
Tether
SciTegic.value.DoubleValue
0.000

@<TRIPOS>MOLECULE
guest-4_confgen4.mol2 : confsearch ligand conformer 836
          16          16           1
SMALL
USER_CHARGES
 
@<TRIPOS>ATOM
       1    C1      20.142773   17.388566   22.585744 C.3        1 MOL1        -0.1689
       2    H1      21.094337   17.052872   23.020018 H          1 MOL1         0.0830
       3    H2      19.503270   16.507398   22.436747 H          1 MOL1         0.0830
       4    C2      20.335941   18.118192   21.249309 C.3        1 MOL1        -0.1689
       5    H3      21.226932   18.759059   21.305020 H          1 MOL1         0.0830
       6    H4      20.463107   17.424494   20.407136 H          1 MOL1         0.0830
       7    C3      19.078460   18.994911   21.103768 C.3        1 MOL1        -0.1765
       8    H5      18.296715   18.433150   20.576146 H          1 MOL1         0.0830
       9    H6      19.284674   19.904608   20.524160 H          1 MOL1         0.0830
      10    C4      18.593528   19.309278   22.534087 C.3        1 MOL1         0.1214
      11    H7      17.525192   19.062042   22.618062 H          1 MOL1         0.0787
      12    C5      19.419308   18.412035   23.480015 C.3        1 MOL1        -0.1765
      13    H8      20.163702   19.012346   24.020650 H          1 MOL1         0.0830
      14    H9      18.782302   17.915572   24.223382 H          1 MOL1         0.0830
      15    O1      18.818298   20.680797   22.837913 O.3        1 MOL1        -0.5512
      16    H10     18.504076   20.820590   23.756200 H          1 MOL1         0.3776
@<TRIPOS>BOND
    1     1     2    1
    2     1     3    1
    3     1     4    1
    4     4     5    1
    5     4     6    1
    6     4     7    1
    7     7     8    1
    8     7     9    1
    9     7    10    1
   10    10    11    1
   11     1    12    1
   12    10    12    1
   13    12    13    1
   14    12    14    1
   15    10    15    1
   16    15    16    1
@<TRIPOS>SUBSTRUCTURE
       1 MOL1            1 RESIDUE      1      MOL     
@<SCITEGIC>MOL_PROPERTY
VConf Rank
SciTegic.value.IntegerValue
836

@<SCITEGIC>MOL_PROPERTY
Conf_Id
SciTegic.value.IntegerValue
33

@<SCITEGIC>MOL_PROPERTY
Delta U+W
SciTegic.value.DoubleValue
0.015

@<SCITEGIC>MOL_PROPERTY
U+W
SciTegic.value.DoubleValue
3.025

@<SCITEGIC>MOL_PROPERTY
Grad RMS
SciTegic.value.DoubleValue
0.000000

@<SCITEGIC>MOL_PROPERTY
U
SciTegic.value.DoubleValue
5.843

@<SCITEGIC>MOL_PROPERTY
W
SciTegic.value.DoubleValue
-2.819

@<SCITEGIC>MOL_PROPERTY
W(PB)
SciTegic.value.DoubleValue
-4.568

@<SCITEGIC>MOL_PROPERTY
W(SA)
SciTegic.value.DoubleValue
1.750

@<SCITEGIC>MOL_PROPERTY
Valence
SciTegic.value.DoubleValue
13.789

@<SCITEGIC>MOL_PROPERTY
Coulomb
SciTegic.value.DoubleValue
-8.574

@<SCITEGIC>MOL_PROPERTY
VdW
SciTegic.value.DoubleValue
0.628

@<SCITEGIC>MOL_PROPERTY
VdW6
SciTegic.value.DoubleValue
-3.284

@<SCITEGIC>MOL_PROPERTY
VdW12
SciTegic.value.DoubleValue
3.913

@<SCITEGIC>MOL_PROPERTY
Bond
SciTegic.value.DoubleValue
0.054

@<SCITEGIC>MOL_PROPERTY
Angle
SciTegic.value.DoubleValue
4.033

@<SCITEGIC>MOL_PROPERTY
Pdih
SciTegic.value.DoubleValue
9.702

@<SCITEGIC>MOL_PROPERTY
Idih
SciTegic.value.DoubleValue
0.000

@<SCITEGIC>MOL_PROPERTY
Tether
SciTegic.value.DoubleValue
0.000

@<TRIPOS>MOLECULE
guest-4_confgen4.mol2 : confsearch ligand conformer 837
          16          16           1
SMALL
USER_CHARGES
 
@<TRIPOS>ATOM
       1    C1      19.523212   19.295858   21.120642 C.3        1 MOL1        -0.1689
       2    H1      19.478007   18.679413   20.212248 H          1 MOL1         0.0830
       3    H2      19.663401   20.339806   20.808366 H          1 MOL1         0.0830
       4    C2      20.678111   18.813831   22.025561 C.3        1 MOL1        -0.1689
       5    H3      21.192503   17.964795   21.554643 H          1 MOL1         0.0830
       6    H4      21.421940   19.605980   22.187486 H          1 MOL1         0.0830
       7    C3      20.035679   18.375158   23.358709 C.3        1 MOL1        -0.1765
       8    H5      20.117666   19.189322   24.090854 H          1 MOL1         0.0830
       9    H6      20.526615   17.490707   23.786182 H          1 MOL1         0.0830
      10    C4      18.552316   18.126336   23.054217 C.3        1 MOL1         0.1214
      11    H7      17.924328   18.288044   23.942172 H          1 MOL1         0.0787
      12    C5      18.226406   19.131513   21.941400 C.3        1 MOL1        -0.1765
      13    H8      17.380040   18.806253   21.321824 H          1 MOL1         0.0830
      14    H9      17.956508   20.093187   22.397426 H          1 MOL1         0.0830
      15    O1      18.392459   16.806814   22.554104 O.3        1 MOL1        -0.5512
      16    H10     18.982560   16.756749   21.774081 H          1 MOL1         0.3776
@<TRIPOS>BOND
    1     1     2    1
    2     1     3    1
    3     1     4    1
    4     4     5    1
    5     4     6    1
    6     4     7    1
    7     7     8    1
    8     7     9    1
    9     7    10    1
   10    10    11    1
   11     1    12    1
   12    10    12    1
   13    12    13    1
   14    12    14    1
   15    10    15    1
   16    15    16    1
@<TRIPOS>SUBSTRUCTURE
       1 MOL1            1 RESIDUE      1      MOL     
@<SCITEGIC>MOL_PROPERTY
VConf Rank
SciTegic.value.IntegerValue
837

@<SCITEGIC>MOL_PROPERTY
Conf_Id
SciTegic.value.IntegerValue
20

@<SCITEGIC>MOL_PROPERTY
Delta U+W
SciTegic.value.DoubleValue
-0.483

@<SCITEGIC>MOL_PROPERTY
U+W
SciTegic.value.DoubleValue
2.527

@<SCITEGIC>MOL_PROPERTY
Grad RMS
SciTegic.value.DoubleValue
0.000000

@<SCITEGIC>MOL_PROPERTY
U
SciTegic.value.DoubleValue
4.508

@<SCITEGIC>MOL_PROPERTY
W
SciTegic.value.DoubleValue
-1.981

@<SCITEGIC>MOL_PROPERTY
W(PB)
SciTegic.value.DoubleValue
-3.712

@<SCITEGIC>MOL_PROPERTY
W(SA)
SciTegic.value.DoubleValue
1.732

@<SCITEGIC>MOL_PROPERTY
Valence
SciTegic.value.DoubleValue
14.705

@<SCITEGIC>MOL_PROPERTY
Coulomb
SciTegic.value.DoubleValue
-10.687

@<SCITEGIC>MOL_PROPERTY
VdW
SciTegic.value.DoubleValue
0.490

@<SCITEGIC>MOL_PROPERTY
VdW6
SciTegic.value.DoubleValue
-3.745

@<SCITEGIC>MOL_PROPERTY
VdW12
SciTegic.value.DoubleValue
4.235

@<SCITEGIC>MOL_PROPERTY
Bond
SciTegic.value.DoubleValue
0.068

@<SCITEGIC>MOL_PROPERTY
Angle
SciTegic.value.DoubleValue
3.901

@<SCITEGIC>MOL_PROPERTY
Pdih
SciTegic.value.DoubleValue
10.737

@<SCITEGIC>MOL_PROPERTY
Idih
SciTegic.value.DoubleValue
0.000

@<SCITEGIC>MOL_PROPERTY
Tether
SciTegic.value.DoubleValue
0.000

@<TRIPOS>MOLECULE
guest-4_confgen4.mol2 : confsearch ligand conformer 838
          16          16           1
SMALL
USER_CHARGES
 
@<TRIPOS>ATOM
       1    C1      20.398518   19.320391   22.980509 C.3        1 MOL1        -0.1689
       2    H1      20.947574   18.586745   23.587122 H          1 MOL1         0.0830
       3    H2      20.893929   20.294964   23.087368 H          1 MOL1         0.0830
       4    C2      18.929519   19.357833   23.423643 C.3        1 MOL1        -0.1689
       5    H3      18.819805   19.281860   24.514033 H          1 MOL1         0.0830
       6    H4      18.468727   20.300418   23.096793 H          1 MOL1         0.0830
       7    C3      18.276370   18.175164   22.685235 C.3        1 MOL1        -0.1765
       8    H5      17.213851   18.364631   22.485229 H          1 MOL1         0.0830
       9    H6      18.346754   17.273796   23.309228 H          1 MOL1         0.0830
      10    C4      19.074403   17.984338   21.378175 C.3        1 MOL1         0.1214
      11    H7      18.485195   18.343154   20.521669 H          1 MOL1         0.0787
      12    C5      20.347508   18.844443   21.516951 C.3        1 MOL1        -0.1765
      13    H8      21.255576   18.292725   21.239386 H          1 MOL1         0.0830
      14    H9      20.267494   19.712523   20.849781 H          1 MOL1         0.0830
      15    O1      19.423052   16.615222   21.211280 O.3        1 MOL1        -0.5512
      16    H10     18.581294   16.117330   21.140008 H          1 MOL1         0.3776
@<TRIPOS>BOND
    1     1     2    1
    2     1     3    1
    3     1     4    1
    4     4     5    1
    5     4     6    1
    6     4     7    1
    7     7     8    1
    8     7     9    1
    9     7    10    1
   10    10    11    1
   11     1    12    1
   12    10    12    1
   13    12    13    1
   14    12    14    1
   15    10    15    1
   16    15    16    1
@<TRIPOS>SUBSTRUCTURE
       1 MOL1            1 RESIDUE      1      MOL     
@<SCITEGIC>MOL_PROPERTY
VConf Rank
SciTegic.value.IntegerValue
838

@<SCITEGIC>MOL_PROPERTY
Conf_Id
SciTegic.value.IntegerValue
59

@<SCITEGIC>MOL_PROPERTY
Delta U+W
SciTegic.value.DoubleValue
0.000

@<SCITEGIC>MOL_PROPERTY
U+W
SciTegic.value.DoubleValue
3.010

@<SCITEGIC>MOL_PROPERTY
Grad RMS
SciTegic.value.DoubleValue
0.000000

@<SCITEGIC>MOL_PROPERTY
U
SciTegic.value.DoubleValue
5.843

@<SCITEGIC>MOL_PROPERTY
W
SciTegic.value.DoubleValue
-2.833

@<SCITEGIC>MOL_PROPERTY
W(PB)
SciTegic.value.DoubleValue
-4.568

@<SCITEGIC>MOL_PROPERTY
W(SA)
SciTegic.value.DoubleValue
1.735

@<SCITEGIC>MOL_PROPERTY
Valence
SciTegic.value.DoubleValue
13.789

@<SCITEGIC>MOL_PROPERTY
Coulomb
SciTegic.value.DoubleValue
-8.574

@<SCITEGIC>MOL_PROPERTY
VdW
SciTegic.value.DoubleValue
0.628

@<SCITEGIC>MOL_PROPERTY
VdW6
SciTegic.value.DoubleValue
-3.284

@<SCITEGIC>MOL_PROPERTY
VdW12
SciTegic.value.DoubleValue
3.912

@<SCITEGIC>MOL_PROPERTY
Bond
SciTegic.value.DoubleValue
0.054

@<SCITEGIC>MOL_PROPERTY
Angle
SciTegic.value.DoubleValue
4.034

@<SCITEGIC>MOL_PROPERTY
Pdih
SciTegic.value.DoubleValue
9.702

@<SCITEGIC>MOL_PROPERTY
Idih
SciTegic.value.DoubleValue
0.000

@<SCITEGIC>MOL_PROPERTY
Tether
SciTegic.value.DoubleValue
0.000

@<TRIPOS>MOLECULE
guest-4_confgen4.mol2 : confsearch ligand conformer 839
          16          16           1
SMALL
USER_CHARGES
 
@<TRIPOS>ATOM
       1    C1      19.042426   18.456092   23.659288 C.3        1 MOL1        -0.1689
       2    H1      18.151583   18.606847   24.284132 H          1 MOL1         0.0830
       3    H2      19.797859   17.929797   24.259251 H          1 MOL1         0.0830
       4    C2      19.623781   19.779135   23.142266 C.3        1 MOL1        -0.1689
       5    H3      18.805108   20.456908   22.862846 H          1 MOL1         0.0830
       6    H4      20.248193   20.284309   23.891633 H          1 MOL1         0.0830
       7    C3      20.419015   19.384898   21.883991 C.3        1 MOL1        -0.1765
       8    H5      21.454212   19.147587   22.161725 H          1 MOL1         0.0830
       9    H6      20.448991   20.202878   21.151851 H          1 MOL1         0.0830
      10    C4      19.746753   18.116947   21.318163 C.3        1 MOL1         0.1214
      11    H7      20.510177   17.341700   21.157861 H          1 MOL1         0.0787
      12    C5      18.734438   17.648871   22.384867 C.3        1 MOL1        -0.1765
      13    H8      17.708541   17.865135   22.056922 H          1 MOL1         0.0830
      14    H9      18.809802   16.568917   22.566158 H          1 MOL1         0.0830
      15    O1      19.073594   18.419757   20.101997 O.3        1 MOL1        -0.5512
      16    H10     18.658141   17.586132   19.795407 H          1 MOL1         0.3776
@<TRIPOS>BOND
    1     1     2    1
    2     1     3    1
    3     1     4    1
    4     4     5    1
    5     4     6    1
    6     4     7    1
    7     7     8    1
    8     7     9    1
    9     7    10    1
   10    10    11    1
   11     1    12    1
   12    10    12    1
   13    12    13    1
   14    12    14    1
   15    10    15    1
   16    15    16    1
@<TRIPOS>SUBSTRUCTURE
       1 MOL1            1 RESIDUE      1      MOL     
@<SCITEGIC>MOL_PROPERTY
VConf Rank
SciTegic.value.IntegerValue
839

@<SCITEGIC>MOL_PROPERTY
Conf_Id
SciTegic.value.IntegerValue
33

@<SCITEGIC>MOL_PROPERTY
Delta U+W
SciTegic.value.DoubleValue
0.015

@<SCITEGIC>MOL_PROPERTY
U+W
SciTegic.value.DoubleValue
3.025

@<SCITEGIC>MOL_PROPERTY
Grad RMS
SciTegic.value.DoubleValue
0.000000

@<SCITEGIC>MOL_PROPERTY
U
SciTegic.value.DoubleValue
5.843

@<SCITEGIC>MOL_PROPERTY
W
SciTegic.value.DoubleValue
-2.819

@<SCITEGIC>MOL_PROPERTY
W(PB)
SciTegic.value.DoubleValue
-4.568

@<SCITEGIC>MOL_PROPERTY
W(SA)
SciTegic.value.DoubleValue
1.750

@<SCITEGIC>MOL_PROPERTY
Valence
SciTegic.value.DoubleValue
13.789

@<SCITEGIC>MOL_PROPERTY
Coulomb
SciTegic.value.DoubleValue
-8.574

@<SCITEGIC>MOL_PROPERTY
VdW
SciTegic.value.DoubleValue
0.628

@<SCITEGIC>MOL_PROPERTY
VdW6
SciTegic.value.DoubleValue
-3.284

@<SCITEGIC>MOL_PROPERTY
VdW12
SciTegic.value.DoubleValue
3.913

@<SCITEGIC>MOL_PROPERTY
Bond
SciTegic.value.DoubleValue
0.054

@<SCITEGIC>MOL_PROPERTY
Angle
SciTegic.value.DoubleValue
4.033

@<SCITEGIC>MOL_PROPERTY
Pdih
SciTegic.value.DoubleValue
9.702

@<SCITEGIC>MOL_PROPERTY
Idih
SciTegic.value.DoubleValue
0.000

@<SCITEGIC>MOL_PROPERTY
Tether
SciTegic.value.DoubleValue
0.000

@<TRIPOS>MOLECULE
guest-4_confgen4.mol2 : confsearch ligand conformer 840
          16          16           1
SMALL
USER_CHARGES
 
@<TRIPOS>ATOM
       1    C1      19.174213   17.337147   21.908014 C.3        1 MOL1        -0.1689
       2    H1      18.599766   16.753304   22.640384 H          1 MOL1         0.0830
       3    H2      19.405075   16.675682   21.061750 H          1 MOL1         0.0830
       4    C2      20.458701   17.886986   22.565882 C.3        1 MOL1        -0.1689
       5    H3      20.506438   17.568374   23.616326 H          1 MOL1         0.0830
       6    H4      21.361494   17.513935   22.063093 H          1 MOL1         0.0830
       7    C3      20.370881   19.425541   22.478851 C.3        1 MOL1        -0.1765
       8    H5      20.947511   19.777521   21.613271 H          1 MOL1         0.0830
       9    H6      20.777036   19.916891   23.373065 H          1 MOL1         0.0830
      10    C4      18.888498   19.754887   22.257343 C.3        1 MOL1         0.1214
      11    H7      18.761304   20.702426   21.714228 H          1 MOL1         0.0787
      12    C5      18.359024   18.564070   21.447053 C.3        1 MOL1        -0.1765
      13    H8      17.278404   18.419102   21.578388 H          1 MOL1         0.0830
      14    H9      18.544263   18.747961   20.380520 H          1 MOL1         0.0830
      15    O1      18.226232   19.797734   23.512881 O.3        1 MOL1        -0.5512
      16    H10     18.392912   18.922202   23.918866 H          1 MOL1         0.3776
@<TRIPOS>BOND
    1     1     2    1
    2     1     3    1
    3     1     4    1
    4     4     5    1
    5     4     6    1
    6     4     7    1
    7     7     8    1
    8     7     9    1
    9     7    10    1
   10    10    11    1
   11     1    12    1
   12    10    12    1
   13    12    13    1
   14    12    14    1
   15    10    15    1
   16    15    16    1
@<TRIPOS>SUBSTRUCTURE
       1 MOL1            1 RESIDUE      1      MOL     
@<SCITEGIC>MOL_PROPERTY
VConf Rank
SciTegic.value.IntegerValue
840

@<SCITEGIC>MOL_PROPERTY
Conf_Id
SciTegic.value.IntegerValue
20

@<SCITEGIC>MOL_PROPERTY
Delta U+W
SciTegic.value.DoubleValue
-0.483

@<SCITEGIC>MOL_PROPERTY
U+W
SciTegic.value.DoubleValue
2.527

@<SCITEGIC>MOL_PROPERTY
Grad RMS
SciTegic.value.DoubleValue
0.000000

@<SCITEGIC>MOL_PROPERTY
U
SciTegic.value.DoubleValue
4.508

@<SCITEGIC>MOL_PROPERTY
W
SciTegic.value.DoubleValue
-1.981

@<SCITEGIC>MOL_PROPERTY
W(PB)
SciTegic.value.DoubleValue
-3.712

@<SCITEGIC>MOL_PROPERTY
W(SA)
SciTegic.value.DoubleValue
1.732

@<SCITEGIC>MOL_PROPERTY
Valence
SciTegic.value.DoubleValue
14.705

@<SCITEGIC>MOL_PROPERTY
Coulomb
SciTegic.value.DoubleValue
-10.687

@<SCITEGIC>MOL_PROPERTY
VdW
SciTegic.value.DoubleValue
0.490

@<SCITEGIC>MOL_PROPERTY
VdW6
SciTegic.value.DoubleValue
-3.745

@<SCITEGIC>MOL_PROPERTY
VdW12
SciTegic.value.DoubleValue
4.235

@<SCITEGIC>MOL_PROPERTY
Bond
SciTegic.value.DoubleValue
0.068

@<SCITEGIC>MOL_PROPERTY
Angle
SciTegic.value.DoubleValue
3.901

@<SCITEGIC>MOL_PROPERTY
Pdih
SciTegic.value.DoubleValue
10.737

@<SCITEGIC>MOL_PROPERTY
Idih
SciTegic.value.DoubleValue
0.000

@<SCITEGIC>MOL_PROPERTY
Tether
SciTegic.value.DoubleValue
0.000

@<TRIPOS>MOLECULE
guest-4_confgen4.mol2 : confsearch ligand conformer 841
          16          16           1
SMALL
USER_CHARGES
 
@<TRIPOS>ATOM
       1    C1      20.389396   19.502726   22.701759 C.3        1 MOL1        -0.1689
       2    H1      19.922261   20.131187   23.472796 H          1 MOL1         0.0830
       3    H2      21.437072   19.814190   22.592170 H          1 MOL1         0.0830
       4    C2      19.601017   19.625907   21.390648 C.3        1 MOL1        -0.1689
       5    H3      19.264130   20.654071   21.200528 H          1 MOL1         0.0830
       6    H4      20.232439   19.309976   20.548556 H          1 MOL1         0.0830
       7    C3      18.425560   18.645487   21.556886 C.3        1 MOL1        -0.1765
       8    H5      18.096505   18.245952   20.588929 H          1 MOL1         0.0830
       9    H6      17.575111   19.171728   22.011410 H          1 MOL1         0.0830
      10    C4      18.923319   17.524573   22.493617 C.3        1 MOL1         0.1214
      11    H7      19.104150   16.605327   21.917593 H          1 MOL1         0.0787
      12    C5      20.255174   18.019799   23.094241 C.3        1 MOL1        -0.1765
      13    H8      20.297191   17.884442   24.183247 H          1 MOL1         0.0830
      14    H9      21.081377   17.446059   22.654589 H          1 MOL1         0.0830
      15    O1      17.974910   17.292093   23.528200 O.3        1 MOL1        -0.5512
      16    H10     17.149953   16.992018   23.091242 H          1 MOL1         0.3776
@<TRIPOS>BOND
    1     1     2    1
    2     1     3    1
    3     1     4    1
    4     4     5    1
    5     4     6    1
    6     4     7    1
    7     7     8    1
    8     7     9    1
    9     7    10    1
   10    10    11    1
   11     1    12    1
   12    10    12    1
   13    12    13    1
   14    12    14    1
   15    10    15    1
   16    15    16    1
@<TRIPOS>SUBSTRUCTURE
       1 MOL1            1 RESIDUE      1      MOL     
@<SCITEGIC>MOL_PROPERTY
VConf Rank
SciTegic.value.IntegerValue
841

@<SCITEGIC>MOL_PROPERTY
Conf_Id
SciTegic.value.IntegerValue
59

@<SCITEGIC>MOL_PROPERTY
Delta U+W
SciTegic.value.DoubleValue
0.000

@<SCITEGIC>MOL_PROPERTY
U+W
SciTegic.value.DoubleValue
3.010

@<SCITEGIC>MOL_PROPERTY
Grad RMS
SciTegic.value.DoubleValue
0.000000

@<SCITEGIC>MOL_PROPERTY
U
SciTegic.value.DoubleValue
5.843

@<SCITEGIC>MOL_PROPERTY
W
SciTegic.value.DoubleValue
-2.833

@<SCITEGIC>MOL_PROPERTY
W(PB)
SciTegic.value.DoubleValue
-4.568

@<SCITEGIC>MOL_PROPERTY
W(SA)
SciTegic.value.DoubleValue
1.735

@<SCITEGIC>MOL_PROPERTY
Valence
SciTegic.value.DoubleValue
13.789

@<SCITEGIC>MOL_PROPERTY
Coulomb
SciTegic.value.DoubleValue
-8.574

@<SCITEGIC>MOL_PROPERTY
VdW
SciTegic.value.DoubleValue
0.628

@<SCITEGIC>MOL_PROPERTY
VdW6
SciTegic.value.DoubleValue
-3.284

@<SCITEGIC>MOL_PROPERTY
VdW12
SciTegic.value.DoubleValue
3.912

@<SCITEGIC>MOL_PROPERTY
Bond
SciTegic.value.DoubleValue
0.054

@<SCITEGIC>MOL_PROPERTY
Angle
SciTegic.value.DoubleValue
4.034

@<SCITEGIC>MOL_PROPERTY
Pdih
SciTegic.value.DoubleValue
9.702

@<SCITEGIC>MOL_PROPERTY
Idih
SciTegic.value.DoubleValue
0.000

@<SCITEGIC>MOL_PROPERTY
Tether
SciTegic.value.DoubleValue
0.000

@<TRIPOS>MOLECULE
guest-4_confgen4.mol2 : confsearch ligand conformer 842
          16          16           1
SMALL
USER_CHARGES
 
@<TRIPOS>ATOM
       1    C1      18.890290   17.940454   21.154992 C.3        1 MOL1        -0.1689
       2    H1      19.223510   17.396126   20.260884 H          1 MOL1         0.0830
       3    H2      17.799467   17.834228   21.235261 H          1 MOL1         0.0830
       4    C2      19.261750   19.428818   21.104793 C.3        1 MOL1        -0.1689
       5    H3      20.266620   19.543307   20.674900 H          1 MOL1         0.0830
       6    H4      18.559062   20.016387   20.498465 H          1 MOL1         0.0830
       7    C3      19.278263   19.871700   22.579466 C.3        1 MOL1        -0.1765
       8    H5      18.280740   20.227325   22.868537 H          1 MOL1         0.0830
       9    H6      19.987125   20.693591   22.746885 H          1 MOL1         0.0830
      10    C4      19.626380   18.619713   23.410815 C.3        1 MOL1         0.1214
      11    H7      18.882688   18.497075   24.211691 H          1 MOL1         0.0787
      12    C5      19.560197   17.421462   22.440481 C.3        1 MOL1        -0.1765
      13    H8      20.572612   17.066279   22.204594 H          1 MOL1         0.0830
      14    H9      19.000840   16.582131   22.873483 H          1 MOL1         0.0830
      15    O1      20.935816   18.739929   23.953790 O.3        1 MOL1        -0.5512
      16    H10     21.107257   17.917388   24.459323 H          1 MOL1         0.3776
@<TRIPOS>BOND
    1     1     2    1
    2     1     3    1
    3     1     4    1
    4     4     5    1
    5     4     6    1
    6     4     7    1
    7     7     8    1
    8     7     9    1
    9     7    10    1
   10    10    11    1
   11     1    12    1
   12    10    12    1
   13    12    13    1
   14    12    14    1
   15    10    15    1
   16    15    16    1
@<TRIPOS>SUBSTRUCTURE
       1 MOL1            1 RESIDUE      1      MOL     
@<SCITEGIC>MOL_PROPERTY
VConf Rank
SciTegic.value.IntegerValue
842

@<SCITEGIC>MOL_PROPERTY
Conf_Id
SciTegic.value.IntegerValue
33

@<SCITEGIC>MOL_PROPERTY
Delta U+W
SciTegic.value.DoubleValue
0.015

@<SCITEGIC>MOL_PROPERTY
U+W
SciTegic.value.DoubleValue
3.025

@<SCITEGIC>MOL_PROPERTY
Grad RMS
SciTegic.value.DoubleValue
0.000000

@<SCITEGIC>MOL_PROPERTY
U
SciTegic.value.DoubleValue
5.843

@<SCITEGIC>MOL_PROPERTY
W
SciTegic.value.DoubleValue
-2.819

@<SCITEGIC>MOL_PROPERTY
W(PB)
SciTegic.value.DoubleValue
-4.568

@<SCITEGIC>MOL_PROPERTY
W(SA)
SciTegic.value.DoubleValue
1.750

@<SCITEGIC>MOL_PROPERTY
Valence
SciTegic.value.DoubleValue
13.789

@<SCITEGIC>MOL_PROPERTY
Coulomb
SciTegic.value.DoubleValue
-8.574

@<SCITEGIC>MOL_PROPERTY
VdW
SciTegic.value.DoubleValue
0.628

@<SCITEGIC>MOL_PROPERTY
VdW6
SciTegic.value.DoubleValue
-3.284

@<SCITEGIC>MOL_PROPERTY
VdW12
SciTegic.value.DoubleValue
3.913

@<SCITEGIC>MOL_PROPERTY
Bond
SciTegic.value.DoubleValue
0.054

@<SCITEGIC>MOL_PROPERTY
Angle
SciTegic.value.DoubleValue
4.033

@<SCITEGIC>MOL_PROPERTY
Pdih
SciTegic.value.DoubleValue
9.702

@<SCITEGIC>MOL_PROPERTY
Idih
SciTegic.value.DoubleValue
0.000

@<SCITEGIC>MOL_PROPERTY
Tether
SciTegic.value.DoubleValue
0.000

@<TRIPOS>MOLECULE
guest-4_confgen4.mol2 : confsearch ligand conformer 843
          16          16           1
SMALL
USER_CHARGES
 
@<TRIPOS>ATOM
       1    C1      19.607962   19.663778   21.469308 C.3        1 MOL1        -0.1689
       2    H1      20.103865   20.505492   21.972125 H          1 MOL1         0.0830
       3    H2      19.457563   19.945304   20.418060 H          1 MOL1         0.0830
       4    C2      18.268294   19.348813   22.170097 C.3        1 MOL1        -0.1689
       5    H3      18.115334   20.038761   23.011407 H          1 MOL1         0.0830
       6    H4      17.417169   19.464598   21.485131 H          1 MOL1         0.0830
       7    C3      18.373680   17.897019   22.683542 C.3        1 MOL1        -0.1765
       8    H5      17.887310   17.219213   21.969649 H          1 MOL1         0.0830
       9    H6      17.884407   17.763448   23.657593 H          1 MOL1         0.0830
      10    C4      19.872663   17.572646   22.736678 C.3        1 MOL1         0.1214
      11    H7      20.058552   16.496504   22.608821 H          1 MOL1         0.0787
      12    C5      20.472101   18.390064   21.584524 C.3        1 MOL1        -0.1765
      13    H8      21.533613   18.620425   21.746169 H          1 MOL1         0.0830
      14    H9      20.393983   17.808550   20.656428 H          1 MOL1         0.0830
      15    O1      20.408243   18.036586   23.967417 O.3        1 MOL1        -0.5512
      16    H10     20.197014   18.992563   23.992965 H          1 MOL1         0.3776
@<TRIPOS>BOND
    1     1     2    1
    2     1     3    1
    3     1     4    1
    4     4     5    1
    5     4     6    1
    6     4     7    1
    7     7     8    1
    8     7     9    1
    9     7    10    1
   10    10    11    1
   11     1    12    1
   12    10    12    1
   13    12    13    1
   14    12    14    1
   15    10    15    1
   16    15    16    1
@<TRIPOS>SUBSTRUCTURE
       1 MOL1            1 RESIDUE      1      MOL     
@<SCITEGIC>MOL_PROPERTY
VConf Rank
SciTegic.value.IntegerValue
843

@<SCITEGIC>MOL_PROPERTY
Conf_Id
SciTegic.value.IntegerValue
20

@<SCITEGIC>MOL_PROPERTY
Delta U+W
SciTegic.value.DoubleValue
-0.483

@<SCITEGIC>MOL_PROPERTY
U+W
SciTegic.value.DoubleValue
2.527

@<SCITEGIC>MOL_PROPERTY
Grad RMS
SciTegic.value.DoubleValue
0.000000

@<SCITEGIC>MOL_PROPERTY
U
SciTegic.value.DoubleValue
4.508

@<SCITEGIC>MOL_PROPERTY
W
SciTegic.value.DoubleValue
-1.981

@<SCITEGIC>MOL_PROPERTY
W(PB)
SciTegic.value.DoubleValue
-3.712

@<SCITEGIC>MOL_PROPERTY
W(SA)
SciTegic.value.DoubleValue
1.732

@<SCITEGIC>MOL_PROPERTY
Valence
SciTegic.value.DoubleValue
14.705

@<SCITEGIC>MOL_PROPERTY
Coulomb
SciTegic.value.DoubleValue
-10.687

@<SCITEGIC>MOL_PROPERTY
VdW
SciTegic.value.DoubleValue
0.490

@<SCITEGIC>MOL_PROPERTY
VdW6
SciTegic.value.DoubleValue
-3.745

@<SCITEGIC>MOL_PROPERTY
VdW12
SciTegic.value.DoubleValue
4.235

@<SCITEGIC>MOL_PROPERTY
Bond
SciTegic.value.DoubleValue
0.068

@<SCITEGIC>MOL_PROPERTY
Angle
SciTegic.value.DoubleValue
3.901

@<SCITEGIC>MOL_PROPERTY
Pdih
SciTegic.value.DoubleValue
10.737

@<SCITEGIC>MOL_PROPERTY
Idih
SciTegic.value.DoubleValue
0.000

@<SCITEGIC>MOL_PROPERTY
Tether
SciTegic.value.DoubleValue
0.000

@<TRIPOS>MOLECULE
guest-4_confgen4.mol2 : confsearch ligand conformer 844
          16          16           1
SMALL
USER_CHARGES
 
@<TRIPOS>ATOM
       1    C1      19.551281   19.667861   23.228439 C.3        1 MOL1        -0.1689
       2    H1      19.285477   20.561982   22.647429 H          1 MOL1         0.0830
       3    H2      19.791501   19.982227   24.253189 H          1 MOL1         0.0830
       4    C2      20.720228   18.941607   22.548847 C.3        1 MOL1        -0.1689
       5    H3      21.468903   19.638426   22.147989 H          1 MOL1         0.0830
       6    H4      21.217709   18.282577   23.273981 H          1 MOL1         0.0830
       7    C3      20.056932   18.096232   21.446152 C.3        1 MOL1        -0.1765
       8    H5      20.635058   17.187344   21.235114 H          1 MOL1         0.0830
       9    H6      20.003347   18.684675   20.520058 H          1 MOL1         0.0830
      10    C4      18.637126   17.761265   21.949766 C.3        1 MOL1         0.1214
      11    H7      18.584709   16.705425   22.253038 H          1 MOL1         0.0787
      12    C5      18.389977   18.657804   23.180607 C.3        1 MOL1        -0.1765
      13    H8      17.415946   19.163345   23.139207 H          1 MOL1         0.0830
      14    H9      18.404982   18.036003   24.085162 H          1 MOL1         0.0830
      15    O1      17.678044   18.042542   20.937376 O.3        1 MOL1        -0.5512
      16    H10     17.888344   17.456221   20.180056 H          1 MOL1         0.3776
@<TRIPOS>BOND
    1     1     2    1
    2     1     3    1
    3     1     4    1
    4     4     5    1
    5     4     6    1
    6     4     7    1
    7     7     8    1
    8     7     9    1
    9     7    10    1
   10    10    11    1
   11     1    12    1
   12    10    12    1
   13    12    13    1
   14    12    14    1
   15    10    15    1
   16    15    16    1
@<TRIPOS>SUBSTRUCTURE
       1 MOL1            1 RESIDUE      1      MOL     
@<SCITEGIC>MOL_PROPERTY
VConf Rank
SciTegic.value.IntegerValue
844

@<SCITEGIC>MOL_PROPERTY
Conf_Id
SciTegic.value.IntegerValue
59

@<SCITEGIC>MOL_PROPERTY
Delta U+W
SciTegic.value.DoubleValue
0.000

@<SCITEGIC>MOL_PROPERTY
U+W
SciTegic.value.DoubleValue
3.010

@<SCITEGIC>MOL_PROPERTY
Grad RMS
SciTegic.value.DoubleValue
0.000000

@<SCITEGIC>MOL_PROPERTY
U
SciTegic.value.DoubleValue
5.843

@<SCITEGIC>MOL_PROPERTY
W
SciTegic.value.DoubleValue
-2.833

@<SCITEGIC>MOL_PROPERTY
W(PB)
SciTegic.value.DoubleValue
-4.568

@<SCITEGIC>MOL_PROPERTY
W(SA)
SciTegic.value.DoubleValue
1.735

@<SCITEGIC>MOL_PROPERTY
Valence
SciTegic.value.DoubleValue
13.789

@<SCITEGIC>MOL_PROPERTY
Coulomb
SciTegic.value.DoubleValue
-8.574

@<SCITEGIC>MOL_PROPERTY
VdW
SciTegic.value.DoubleValue
0.628

@<SCITEGIC>MOL_PROPERTY
VdW6
SciTegic.value.DoubleValue
-3.284

@<SCITEGIC>MOL_PROPERTY
VdW12
SciTegic.value.DoubleValue
3.912

@<SCITEGIC>MOL_PROPERTY
Bond
SciTegic.value.DoubleValue
0.054

@<SCITEGIC>MOL_PROPERTY
Angle
SciTegic.value.DoubleValue
4.034

@<SCITEGIC>MOL_PROPERTY
Pdih
SciTegic.value.DoubleValue
9.702

@<SCITEGIC>MOL_PROPERTY
Idih
SciTegic.value.DoubleValue
0.000

@<SCITEGIC>MOL_PROPERTY
Tether
SciTegic.value.DoubleValue
0.000

@<TRIPOS>MOLECULE
guest-4_confgen4.mol2 : confsearch ligand conformer 845
          16          16           1
SMALL
USER_CHARGES
 
@<TRIPOS>ATOM
       1    C1      20.143052   18.298393   23.510820 C.3        1 MOL1        -0.1689
       2    H1      20.782093   17.507026   23.925696 H          1 MOL1         0.0830
       3    H2      20.130373   19.137213   24.220638 H          1 MOL1         0.0830
       4    C2      18.708378   17.816556   23.255338 C.3        1 MOL1        -0.1689
       5    H3      18.729335   16.793420   22.854797 H          1 MOL1         0.0830
       6    H4      18.097079   17.816373   24.168002 H          1 MOL1         0.0830
       7    C3      18.163923   18.778823   22.183569 C.3        1 MOL1        -0.1765
       8    H5      17.687542   19.640174   22.669593 H          1 MOL1         0.0830
       9    H6      17.409384   18.293483   21.550216 H          1 MOL1         0.0830
      10    C4      19.381576   19.268637   21.372890 C.3        1 MOL1         0.1214
      11    H7      19.368714   20.367346   21.326070 H          1 MOL1         0.0787
      12    C5      20.633763   18.787047   22.135672 C.3        1 MOL1        -0.1765
      13    H8      21.107385   17.952240   21.601292 H          1 MOL1         0.0830
      14    H9      21.377505   19.587984   22.236632 H          1 MOL1         0.0830
      15    O1      19.357739   18.708677   20.065307 O.3        1 MOL1        -0.5512
      16    H10     20.154775   19.042520   19.601828 H          1 MOL1         0.3776
@<TRIPOS>BOND
    1     1     2    1
    2     1     3    1
    3     1     4    1
    4     4     5    1
    5     4     6    1
    6     4     7    1
    7     7     8    1
    8     7     9    1
    9     7    10    1
   10    10    11    1
   11     1    12    1
   12    10    12    1
   13    12    13    1
   14    12    14    1
   15    10    15    1
   16    15    16    1
@<TRIPOS>SUBSTRUCTURE
       1 MOL1            1 RESIDUE      1      MOL     
@<SCITEGIC>MOL_PROPERTY
VConf Rank
SciTegic.value.IntegerValue
845

@<SCITEGIC>MOL_PROPERTY
Conf_Id
SciTegic.value.IntegerValue
33

@<SCITEGIC>MOL_PROPERTY
Delta U+W
SciTegic.value.DoubleValue
0.015

@<SCITEGIC>MOL_PROPERTY
U+W
SciTegic.value.DoubleValue
3.025

@<SCITEGIC>MOL_PROPERTY
Grad RMS
SciTegic.value.DoubleValue
0.000000

@<SCITEGIC>MOL_PROPERTY
U
SciTegic.value.DoubleValue
5.843

@<SCITEGIC>MOL_PROPERTY
W
SciTegic.value.DoubleValue
-2.819

@<SCITEGIC>MOL_PROPERTY
W(PB)
SciTegic.value.DoubleValue
-4.568

@<SCITEGIC>MOL_PROPERTY
W(SA)
SciTegic.value.DoubleValue
1.750

@<SCITEGIC>MOL_PROPERTY
Valence
SciTegic.value.DoubleValue
13.789

@<SCITEGIC>MOL_PROPERTY
Coulomb
SciTegic.value.DoubleValue
-8.574

@<SCITEGIC>MOL_PROPERTY
VdW
SciTegic.value.DoubleValue
0.628

@<SCITEGIC>MOL_PROPERTY
VdW6
SciTegic.value.DoubleValue
-3.284

@<SCITEGIC>MOL_PROPERTY
VdW12
SciTegic.value.DoubleValue
3.913

@<SCITEGIC>MOL_PROPERTY
Bond
SciTegic.value.DoubleValue
0.054

@<SCITEGIC>MOL_PROPERTY
Angle
SciTegic.value.DoubleValue
4.033

@<SCITEGIC>MOL_PROPERTY
Pdih
SciTegic.value.DoubleValue
9.702

@<SCITEGIC>MOL_PROPERTY
Idih
SciTegic.value.DoubleValue
0.000

@<SCITEGIC>MOL_PROPERTY
Tether
SciTegic.value.DoubleValue
0.000

@<TRIPOS>MOLECULE
guest-4_confgen4.mol2 : confsearch ligand conformer 846
          16          16           1
SMALL
USER_CHARGES
 
@<TRIPOS>ATOM
       1    C1      19.395646   17.660100   21.319028 C.3        1 MOL1        -0.1689
       2    H1      20.261667   17.706921   20.644459 H          1 MOL1         0.0830
       3    H2      18.784507   16.798365   21.017501 H          1 MOL1         0.0830
       4    C2      18.596072   18.978958   21.239553 C.3        1 MOL1        -0.1689
       5    H3      19.074513   19.663646   20.525745 H          1 MOL1         0.0830
       6    H4      17.566331   18.806986   20.897413 H          1 MOL1         0.0830
       7    C3      18.615039   19.588394   22.657532 C.3        1 MOL1        -0.1765
       8    H5      17.683768   19.331838   23.179579 H          1 MOL1         0.0830
       9    H6      18.696894   20.683364   22.638920 H          1 MOL1         0.0830
      10    C4      19.793255   18.929761   23.387602 C.3        1 MOL1         0.1214
      11    H7      19.627667   18.895082   24.474046 H          1 MOL1         0.0787
      12    C5      19.866706   17.521497   22.782329 C.3        1 MOL1        -0.1765
      13    H8      20.873363   17.088874   22.856372 H          1 MOL1         0.0830
      14    H9      19.178831   16.862437   23.328306 H          1 MOL1         0.0830
      15    O1      20.987224   19.634182   23.079322 O.3        1 MOL1        -0.5512
      16    H10     21.050270   19.613357   22.102207 H          1 MOL1         0.3776
@<TRIPOS>BOND
    1     1     2    1
    2     1     3    1
    3     1     4    1
    4     4     5    1
    5     4     6    1
    6     4     7    1
    7     7     8    1
    8     7     9    1
    9     7    10    1
   10    10    11    1
   11     1    12    1
   12    10    12    1
   13    12    13    1
   14    12    14    1
   15    10    15    1
   16    15    16    1
@<TRIPOS>SUBSTRUCTURE
       1 MOL1            1 RESIDUE      1      MOL     
@<SCITEGIC>MOL_PROPERTY
VConf Rank
SciTegic.value.IntegerValue
846

@<SCITEGIC>MOL_PROPERTY
Conf_Id
SciTegic.value.IntegerValue
20

@<SCITEGIC>MOL_PROPERTY
Delta U+W
SciTegic.value.DoubleValue
-0.483

@<SCITEGIC>MOL_PROPERTY
U+W
SciTegic.value.DoubleValue
2.527

@<SCITEGIC>MOL_PROPERTY
Grad RMS
SciTegic.value.DoubleValue
0.000000

@<SCITEGIC>MOL_PROPERTY
U
SciTegic.value.DoubleValue
4.508

@<SCITEGIC>MOL_PROPERTY
W
SciTegic.value.DoubleValue
-1.981

@<SCITEGIC>MOL_PROPERTY
W(PB)
SciTegic.value.DoubleValue
-3.712

@<SCITEGIC>MOL_PROPERTY
W(SA)
SciTegic.value.DoubleValue
1.732

@<SCITEGIC>MOL_PROPERTY
Valence
SciTegic.value.DoubleValue
14.705

@<SCITEGIC>MOL_PROPERTY
Coulomb
SciTegic.value.DoubleValue
-10.687

@<SCITEGIC>MOL_PROPERTY
VdW
SciTegic.value.DoubleValue
0.490

@<SCITEGIC>MOL_PROPERTY
VdW6
SciTegic.value.DoubleValue
-3.745

@<SCITEGIC>MOL_PROPERTY
VdW12
SciTegic.value.DoubleValue
4.235

@<SCITEGIC>MOL_PROPERTY
Bond
SciTegic.value.DoubleValue
0.068

@<SCITEGIC>MOL_PROPERTY
Angle
SciTegic.value.DoubleValue
3.901

@<SCITEGIC>MOL_PROPERTY
Pdih
SciTegic.value.DoubleValue
10.737

@<SCITEGIC>MOL_PROPERTY
Idih
SciTegic.value.DoubleValue
0.000

@<SCITEGIC>MOL_PROPERTY
Tether
SciTegic.value.DoubleValue
0.000

@<TRIPOS>MOLECULE
guest-4_confgen4.mol2 : confsearch ligand conformer 847
          16          16           1
SMALL
USER_CHARGES
 
@<TRIPOS>ATOM
       1    C1      19.122672   19.911460   22.778751 C.3        1 MOL1        -0.1689
       2    H1      19.211516   19.856892   23.872737 H          1 MOL1         0.0830
       3    H2      18.953126   20.960137   22.499156 H          1 MOL1         0.0830
       4    C2      17.990023   18.988814   22.308051 C.3        1 MOL1        -0.1689
       5    H3      17.121755   19.016381   22.980443 H          1 MOL1         0.0830
       6    H4      17.658057   19.292849   21.305560 H          1 MOL1         0.0830
       7    C3      18.635715   17.592657   22.241840 C.3        1 MOL1        -0.1765
       8    H5      18.157881   16.965536   21.478139 H          1 MOL1         0.0830
       9    H6      18.517675   17.091456   23.212226 H          1 MOL1         0.0830
      10    C4      20.131194   17.819219   21.935422 C.3        1 MOL1         0.1214
      11    H7      20.347645   17.544077   20.892846 H          1 MOL1         0.0787
      12    C5      20.390606   19.327591   22.128695 C.3        1 MOL1        -0.1765
      13    H8      21.283464   19.522293   22.737725 H          1 MOL1         0.0830
      14    H9      20.548659   19.792305   21.146788 H          1 MOL1         0.0830
      15    O1      20.936132   17.063993   22.832972 O.3        1 MOL1        -0.5512
      16    H10     20.723445   16.119874   22.675061 H          1 MOL1         0.3776
@<TRIPOS>BOND
    1     1     2    1
    2     1     3    1
    3     1     4    1
    4     4     5    1
    5     4     6    1
    6     4     7    1
    7     7     8    1
    8     7     9    1
    9     7    10    1
   10    10    11    1
   11     1    12    1
   12    10    12    1
   13    12    13    1
   14    12    14    1
   15    10    15    1
   16    15    16    1
@<TRIPOS>SUBSTRUCTURE
       1 MOL1            1 RESIDUE      1      MOL     
@<SCITEGIC>MOL_PROPERTY
VConf Rank
SciTegic.value.IntegerValue
847

@<SCITEGIC>MOL_PROPERTY
Conf_Id
SciTegic.value.IntegerValue
59

@<SCITEGIC>MOL_PROPERTY
Delta U+W
SciTegic.value.DoubleValue
0.000

@<SCITEGIC>MOL_PROPERTY
U+W
SciTegic.value.DoubleValue
3.010

@<SCITEGIC>MOL_PROPERTY
Grad RMS
SciTegic.value.DoubleValue
0.000000

@<SCITEGIC>MOL_PROPERTY
U
SciTegic.value.DoubleValue
5.843

@<SCITEGIC>MOL_PROPERTY
W
SciTegic.value.DoubleValue
-2.833

@<SCITEGIC>MOL_PROPERTY
W(PB)
SciTegic.value.DoubleValue
-4.568

@<SCITEGIC>MOL_PROPERTY
W(SA)
SciTegic.value.DoubleValue
1.735

@<SCITEGIC>MOL_PROPERTY
Valence
SciTegic.value.DoubleValue
13.789

@<SCITEGIC>MOL_PROPERTY
Coulomb
SciTegic.value.DoubleValue
-8.574

@<SCITEGIC>MOL_PROPERTY
VdW
SciTegic.value.DoubleValue
0.628

@<SCITEGIC>MOL_PROPERTY
VdW6
SciTegic.value.DoubleValue
-3.284

@<SCITEGIC>MOL_PROPERTY
VdW12
SciTegic.value.DoubleValue
3.912

@<SCITEGIC>MOL_PROPERTY
Bond
SciTegic.value.DoubleValue
0.054

@<SCITEGIC>MOL_PROPERTY
Angle
SciTegic.value.DoubleValue
4.034

@<SCITEGIC>MOL_PROPERTY
Pdih
SciTegic.value.DoubleValue
9.702

@<SCITEGIC>MOL_PROPERTY
Idih
SciTegic.value.DoubleValue
0.000

@<SCITEGIC>MOL_PROPERTY
Tether
SciTegic.value.DoubleValue
0.000

@<TRIPOS>MOLECULE
guest-4_confgen4.mol2 : confsearch ligand conformer 848
          16          16           1
SMALL
USER_CHARGES
 
@<TRIPOS>ATOM
       1    C1      19.226802   20.024615   22.169784 C.3        1 MOL1        -0.1689
       2    H1      19.740309   20.920355   21.794660 H          1 MOL1         0.0830
       3    H2      18.194466   20.301866   22.424805 H          1 MOL1         0.0830
       4    C2      19.920163   19.426885   23.401733 C.3        1 MOL1        -0.1689
       5    H3      21.010240   19.481675   23.273629 H          1 MOL1         0.0830
       6    H4      19.655706   19.953485   24.328770 H          1 MOL1         0.0830
       7    C3      19.476145   17.952534   23.416245 C.3        1 MOL1        -0.1765
       8    H5      18.554010   17.851234   24.003179 H          1 MOL1         0.0830
       9    H6      20.236258   17.305844   23.874547 H          1 MOL1         0.0830
      10    C4      19.184949   17.566467   21.951337 C.3        1 MOL1         0.1214
      11    H7      18.186057   17.110785   21.887401 H          1 MOL1         0.0787
      12    C5      19.219519   18.879308   21.140789 C.3        1 MOL1        -0.1765
      13    H8      20.134888   18.928968   20.535466 H          1 MOL1         0.0830
      14    H9      18.361199   18.956406   20.460944 H          1 MOL1         0.0830
      15    O1      20.179541   16.668362   21.473749 O.3        1 MOL1        -0.5512
      16    H10     19.952362   16.467122   20.541321 H          1 MOL1         0.3776
@<TRIPOS>BOND
    1     1     2    1
    2     1     3    1
    3     1     4    1
    4     4     5    1
    5     4     6    1
    6     4     7    1
    7     7     8    1
    8     7     9    1
    9     7    10    1
   10    10    11    1
   11     1    12    1
   12    10    12    1
   13    12    13    1
   14    12    14    1
   15    10    15    1
   16    15    16    1
@<TRIPOS>SUBSTRUCTURE
       1 MOL1            1 RESIDUE      1      MOL     
@<SCITEGIC>MOL_PROPERTY
VConf Rank
SciTegic.value.IntegerValue
848

@<SCITEGIC>MOL_PROPERTY
Conf_Id
SciTegic.value.IntegerValue
33

@<SCITEGIC>MOL_PROPERTY
Delta U+W
SciTegic.value.DoubleValue
0.015

@<SCITEGIC>MOL_PROPERTY
U+W
SciTegic.value.DoubleValue
3.025

@<SCITEGIC>MOL_PROPERTY
Grad RMS
SciTegic.value.DoubleValue
0.000000

@<SCITEGIC>MOL_PROPERTY
U
SciTegic.value.DoubleValue
5.843

@<SCITEGIC>MOL_PROPERTY
W
SciTegic.value.DoubleValue
-2.819

@<SCITEGIC>MOL_PROPERTY
W(PB)
SciTegic.value.DoubleValue
-4.568

@<SCITEGIC>MOL_PROPERTY
W(SA)
SciTegic.value.DoubleValue
1.750

@<SCITEGIC>MOL_PROPERTY
Valence
SciTegic.value.DoubleValue
13.789

@<SCITEGIC>MOL_PROPERTY
Coulomb
SciTegic.value.DoubleValue
-8.574

@<SCITEGIC>MOL_PROPERTY
VdW
SciTegic.value.DoubleValue
0.628

@<SCITEGIC>MOL_PROPERTY
VdW6
SciTegic.value.DoubleValue
-3.284

@<SCITEGIC>MOL_PROPERTY
VdW12
SciTegic.value.DoubleValue
3.913

@<SCITEGIC>MOL_PROPERTY
Bond
SciTegic.value.DoubleValue
0.054

@<SCITEGIC>MOL_PROPERTY
Angle
SciTegic.value.DoubleValue
4.033

@<SCITEGIC>MOL_PROPERTY
Pdih
SciTegic.value.DoubleValue
9.702

@<SCITEGIC>MOL_PROPERTY
Idih
SciTegic.value.DoubleValue
0.000

@<SCITEGIC>MOL_PROPERTY
Tether
SciTegic.value.DoubleValue
0.000

@<TRIPOS>MOLECULE
guest-4_confgen4.mol2 : confsearch ligand conformer 849
          16          16           1
SMALL
USER_CHARGES
 
@<TRIPOS>ATOM
       1    C1      20.561740   18.063296   21.966360 C.3        1 MOL1        -0.1689
       2    H1      21.342685   18.248405   22.716751 H          1 MOL1         0.0830
       3    H2      21.001552   17.442543   21.173751 H          1 MOL1         0.0830
       4    C2      20.037866   19.405874   21.411326 C.3        1 MOL1        -0.1689
       5    H3      20.566002   20.240707   21.892315 H          1 MOL1         0.0830
       6    H4      20.202727   19.486997   20.328164 H          1 MOL1         0.0830
       7    C3      18.532802   19.461678   21.749120 C.3        1 MOL1        -0.1765
       8    H5      17.948684   19.144188   20.875262 H          1 MOL1         0.0830
       9    H6      18.204412   20.473802   22.020726 H          1 MOL1         0.0830
      10    C4      18.314811   18.454997   22.886690 C.3        1 MOL1         0.1214
      11    H7      17.291213   18.053503   22.881074 H          1 MOL1         0.0787
      12    C5      19.353300   17.357683   22.617620 C.3        1 MOL1        -0.1765
      13    H8      19.630879   16.814677   23.530910 H          1 MOL1         0.0830
      14    H9      18.929239   16.630638   21.912496 H          1 MOL1         0.0830
      15    O1      18.606676   19.081018   24.127545 O.3        1 MOL1        -0.5512
      16    H10     19.527166   19.403759   24.039805 H          1 MOL1         0.3776
@<TRIPOS>BOND
    1     1     2    1
    2     1     3    1
    3     1     4    1
    4     4     5    1
    5     4     6    1
    6     4     7    1
    7     7     8    1
    8     7     9    1
    9     7    10    1
   10    10    11    1
   11     1    12    1
   12    10    12    1
   13    12    13    1
   14    12    14    1
   15    10    15    1
   16    15    16    1
@<TRIPOS>SUBSTRUCTURE
       1 MOL1            1 RESIDUE      1      MOL     
@<SCITEGIC>MOL_PROPERTY
VConf Rank
SciTegic.value.IntegerValue
849

@<SCITEGIC>MOL_PROPERTY
Conf_Id
SciTegic.value.IntegerValue
20

@<SCITEGIC>MOL_PROPERTY
Delta U+W
SciTegic.value.DoubleValue
-0.483

@<SCITEGIC>MOL_PROPERTY
U+W
SciTegic.value.DoubleValue
2.527

@<SCITEGIC>MOL_PROPERTY
Grad RMS
SciTegic.value.DoubleValue
0.000000

@<SCITEGIC>MOL_PROPERTY
U
SciTegic.value.DoubleValue
4.508

@<SCITEGIC>MOL_PROPERTY
W
SciTegic.value.DoubleValue
-1.981

@<SCITEGIC>MOL_PROPERTY
W(PB)
SciTegic.value.DoubleValue
-3.712

@<SCITEGIC>MOL_PROPERTY
W(SA)
SciTegic.value.DoubleValue
1.732

@<SCITEGIC>MOL_PROPERTY
Valence
SciTegic.value.DoubleValue
14.705

@<SCITEGIC>MOL_PROPERTY
Coulomb
SciTegic.value.DoubleValue
-10.687

@<SCITEGIC>MOL_PROPERTY
VdW
SciTegic.value.DoubleValue
0.490

@<SCITEGIC>MOL_PROPERTY
VdW6
SciTegic.value.DoubleValue
-3.745

@<SCITEGIC>MOL_PROPERTY
VdW12
SciTegic.value.DoubleValue
4.235

@<SCITEGIC>MOL_PROPERTY
Bond
SciTegic.value.DoubleValue
0.068

@<SCITEGIC>MOL_PROPERTY
Angle
SciTegic.value.DoubleValue
3.901

@<SCITEGIC>MOL_PROPERTY
Pdih
SciTegic.value.DoubleValue
10.737

@<SCITEGIC>MOL_PROPERTY
Idih
SciTegic.value.DoubleValue
0.000

@<SCITEGIC>MOL_PROPERTY
Tether
SciTegic.value.DoubleValue
0.000

@<TRIPOS>MOLECULE
guest-4_confgen4.mol2 : confsearch ligand conformer 850
          16          16           1
SMALL
USER_CHARGES
 
@<TRIPOS>ATOM
       1    C1      19.815284   17.626296   21.292444 C.3        1 MOL1        -0.1689
       2    H1      18.901601   17.146376   20.914904 H          1 MOL1         0.0830
       3    H2      20.667257   17.250835   20.709509 H          1 MOL1         0.0830
       4    C2      19.962103   17.343421   22.793828 C.3        1 MOL1        -0.1689
       5    H3      19.674549   16.316038   23.055661 H          1 MOL1         0.0830
       6    H4      21.006928   17.495966   23.098287 H          1 MOL1         0.0830
       7    C3      19.063399   18.394100   23.471295 C.3        1 MOL1        -0.1765
       8    H5      19.436179   18.657020   24.469671 H          1 MOL1         0.0830
       9    H6      18.050139   17.985597   23.586242 H          1 MOL1         0.0830
      10    C4      19.042840   19.618987   22.532728 C.3        1 MOL1         0.1214
      11    H7      19.651886   20.429694   22.958565 H          1 MOL1         0.0787
      12    C5      19.669459   19.156498   21.201080 C.3        1 MOL1        -0.1765
      13    H8      19.067937   19.454082   20.331807 H          1 MOL1         0.0830
      14    H9      20.660919   19.615341   21.093598 H          1 MOL1         0.0830
      15    O1      17.704595   20.052648   22.320769 O.3        1 MOL1        -0.5512
      16    H10     17.354491   20.322634   23.196022 H          1 MOL1         0.3776
@<TRIPOS>BOND
    1     1     2    1
    2     1     3    1
    3     1     4    1
    4     4     5    1
    5     4     6    1
    6     4     7    1
    7     7     8    1
    8     7     9    1
    9     7    10    1
   10    10    11    1
   11     1    12    1
   12    10    12    1
   13    12    13    1
   14    12    14    1
   15    10    15    1
   16    15    16    1
@<TRIPOS>SUBSTRUCTURE
       1 MOL1            1 RESIDUE      1      MOL     
@<SCITEGIC>MOL_PROPERTY
VConf Rank
SciTegic.value.IntegerValue
850

@<SCITEGIC>MOL_PROPERTY
Conf_Id
SciTegic.value.IntegerValue
59

@<SCITEGIC>MOL_PROPERTY
Delta U+W
SciTegic.value.DoubleValue
0.000

@<SCITEGIC>MOL_PROPERTY
U+W
SciTegic.value.DoubleValue
3.010

@<SCITEGIC>MOL_PROPERTY
Grad RMS
SciTegic.value.DoubleValue
0.000000

@<SCITEGIC>MOL_PROPERTY
U
SciTegic.value.DoubleValue
5.843

@<SCITEGIC>MOL_PROPERTY
W
SciTegic.value.DoubleValue
-2.833

@<SCITEGIC>MOL_PROPERTY
W(PB)
SciTegic.value.DoubleValue
-4.568

@<SCITEGIC>MOL_PROPERTY
W(SA)
SciTegic.value.DoubleValue
1.735

@<SCITEGIC>MOL_PROPERTY
Valence
SciTegic.value.DoubleValue
13.789

@<SCITEGIC>MOL_PROPERTY
Coulomb
SciTegic.value.DoubleValue
-8.574

@<SCITEGIC>MOL_PROPERTY
VdW
SciTegic.value.DoubleValue
0.628

@<SCITEGIC>MOL_PROPERTY
VdW6
SciTegic.value.DoubleValue
-3.284

@<SCITEGIC>MOL_PROPERTY
VdW12
SciTegic.value.DoubleValue
3.912

@<SCITEGIC>MOL_PROPERTY
Bond
SciTegic.value.DoubleValue
0.054

@<SCITEGIC>MOL_PROPERTY
Angle
SciTegic.value.DoubleValue
4.034

@<SCITEGIC>MOL_PROPERTY
Pdih
SciTegic.value.DoubleValue
9.702

@<SCITEGIC>MOL_PROPERTY
Idih
SciTegic.value.DoubleValue
0.000

@<SCITEGIC>MOL_PROPERTY
Tether
SciTegic.value.DoubleValue
0.000

@<TRIPOS>MOLECULE
guest-4_confgen4.mol2 : confsearch ligand conformer 851
          16          16           1
SMALL
USER_CHARGES
 
@<TRIPOS>ATOM
       1    C1      19.446494   19.757081   23.158350 C.3        1 MOL1        -0.1689
       2    H1      19.167890   20.021463   24.187544 H          1 MOL1         0.0830
       3    H2      19.972277   20.613621   22.713925 H          1 MOL1         0.0830
       4    C2      18.227853   19.396301   22.297839 C.3        1 MOL1        -0.1689
       5    H3      17.516685   18.808292   22.894634 H          1 MOL1         0.0830
       6    H4      17.705588   20.284387   21.916806 H          1 MOL1         0.0830
       7    C3      18.799928   18.520922   21.167566 C.3        1 MOL1        -0.1765
       8    H5      19.091228   19.156233   20.321038 H          1 MOL1         0.0830
       9    H6      18.059128   17.797158   20.802326 H          1 MOL1         0.0830
      10    C4      20.058225   17.833974   21.737293 C.3        1 MOL1         0.1214
      11    H7      20.902987   17.997382   21.052315 H          1 MOL1         0.0787
      12    C5      20.342758   18.506668   23.096800 C.3        1 MOL1        -0.1765
      13    H8      20.077788   17.828919   23.919740 H          1 MOL1         0.0830
      14    H9      21.403523   18.767901   23.203485 H          1 MOL1         0.0830
      15    O1      19.818511   16.443406   21.918281 O.3        1 MOL1        -0.5512
      16    H10     20.641753   16.062202   22.290418 H          1 MOL1         0.3776
@<TRIPOS>BOND
    1     1     2    1
    2     1     3    1
    3     1     4    1
    4     4     5    1
    5     4     6    1
    6     4     7    1
    7     7     8    1
    8     7     9    1
    9     7    10    1
   10    10    11    1
   11     1    12    1
   12    10    12    1
   13    12    13    1
   14    12    14    1
   15    10    15    1
   16    15    16    1
@<TRIPOS>SUBSTRUCTURE
       1 MOL1            1 RESIDUE      1      MOL     
@<SCITEGIC>MOL_PROPERTY
VConf Rank
SciTegic.value.IntegerValue
851

@<SCITEGIC>MOL_PROPERTY
Conf_Id
SciTegic.value.IntegerValue
33

@<SCITEGIC>MOL_PROPERTY
Delta U+W
SciTegic.value.DoubleValue
0.015

@<SCITEGIC>MOL_PROPERTY
U+W
SciTegic.value.DoubleValue
3.025

@<SCITEGIC>MOL_PROPERTY
Grad RMS
SciTegic.value.DoubleValue
0.000000

@<SCITEGIC>MOL_PROPERTY
U
SciTegic.value.DoubleValue
5.843

@<SCITEGIC>MOL_PROPERTY
W
SciTegic.value.DoubleValue
-2.819

@<SCITEGIC>MOL_PROPERTY
W(PB)
SciTegic.value.DoubleValue
-4.568

@<SCITEGIC>MOL_PROPERTY
W(SA)
SciTegic.value.DoubleValue
1.750

@<SCITEGIC>MOL_PROPERTY
Valence
SciTegic.value.DoubleValue
13.789

@<SCITEGIC>MOL_PROPERTY
Coulomb
SciTegic.value.DoubleValue
-8.574

@<SCITEGIC>MOL_PROPERTY
VdW
SciTegic.value.DoubleValue
0.628

@<SCITEGIC>MOL_PROPERTY
VdW6
SciTegic.value.DoubleValue
-3.284

@<SCITEGIC>MOL_PROPERTY
VdW12
SciTegic.value.DoubleValue
3.913

@<SCITEGIC>MOL_PROPERTY
Bond
SciTegic.value.DoubleValue
0.054

@<SCITEGIC>MOL_PROPERTY
Angle
SciTegic.value.DoubleValue
4.033

@<SCITEGIC>MOL_PROPERTY
Pdih
SciTegic.value.DoubleValue
9.702

@<SCITEGIC>MOL_PROPERTY
Idih
SciTegic.value.DoubleValue
0.000

@<SCITEGIC>MOL_PROPERTY
Tether
SciTegic.value.DoubleValue
0.000

@<TRIPOS>MOLECULE
guest-4_confgen4.mol2 : confsearch ligand conformer 852
          16          16           1
SMALL
USER_CHARGES
 
@<TRIPOS>ATOM
       1    C1      19.702748   17.374838   22.649831 C.3        1 MOL1        -0.1689
       2    H1      19.780167   16.646515   21.830821 H          1 MOL1         0.0830
       3    H2      19.942150   16.851023   23.585406 H          1 MOL1         0.0830
       4    C2      18.281255   17.977501   22.684145 C.3        1 MOL1        -0.1689
       5    H3      17.670409   17.540082   21.882422 H          1 MOL1         0.0830
       6    H4      17.777434   17.769803   23.638097 H          1 MOL1         0.0830
       7    C3      18.444291   19.496221   22.462008 C.3        1 MOL1        -0.1765
       8    H5      18.429888   20.012341   23.431045 H          1 MOL1         0.0830
       9    H6      17.636581   19.916126   21.847769 H          1 MOL1         0.0830
      10    C4      19.823741   19.685839   21.816906 C.3        1 MOL1         0.1214
      11    H7      20.247679   20.672971   22.051065 H          1 MOL1         0.0787
      12    C5      20.671475   18.552189   22.409477 C.3        1 MOL1        -0.1765
      13    H8      21.509876   18.274803   21.756679 H          1 MOL1         0.0830
      14    H9      21.090461   18.884191   23.368563 H          1 MOL1         0.0830
      15    O1      19.712784   19.502171   20.413068 O.3        1 MOL1        -0.5512
      16    H10     19.330814   18.607150   20.302613 H          1 MOL1         0.3776
@<TRIPOS>BOND
    1     1     2    1
    2     1     3    1
    3     1     4    1
    4     4     5    1
    5     4     6    1
    6     4     7    1
    7     7     8    1
    8     7     9    1
    9     7    10    1
   10    10    11    1
   11     1    12    1
   12    10    12    1
   13    12    13    1
   14    12    14    1
   15    10    15    1
   16    15    16    1
@<TRIPOS>SUBSTRUCTURE
       1 MOL1            1 RESIDUE      1      MOL     
@<SCITEGIC>MOL_PROPERTY
VConf Rank
SciTegic.value.IntegerValue
852

@<SCITEGIC>MOL_PROPERTY
Conf_Id
SciTegic.value.IntegerValue
20

@<SCITEGIC>MOL_PROPERTY
Delta U+W
SciTegic.value.DoubleValue
-0.483

@<SCITEGIC>MOL_PROPERTY
U+W
SciTegic.value.DoubleValue
2.527

@<SCITEGIC>MOL_PROPERTY
Grad RMS
SciTegic.value.DoubleValue
0.000000

@<SCITEGIC>MOL_PROPERTY
U
SciTegic.value.DoubleValue
4.508

@<SCITEGIC>MOL_PROPERTY
W
SciTegic.value.DoubleValue
-1.981

@<SCITEGIC>MOL_PROPERTY
W(PB)
SciTegic.value.DoubleValue
-3.712

@<SCITEGIC>MOL_PROPERTY
W(SA)
SciTegic.value.DoubleValue
1.732

@<SCITEGIC>MOL_PROPERTY
Valence
SciTegic.value.DoubleValue
14.705

@<SCITEGIC>MOL_PROPERTY
Coulomb
SciTegic.value.DoubleValue
-10.687

@<SCITEGIC>MOL_PROPERTY
VdW
SciTegic.value.DoubleValue
0.490

@<SCITEGIC>MOL_PROPERTY
VdW6
SciTegic.value.DoubleValue
-3.745

@<SCITEGIC>MOL_PROPERTY
VdW12
SciTegic.value.DoubleValue
4.235

@<SCITEGIC>MOL_PROPERTY
Bond
SciTegic.value.DoubleValue
0.068

@<SCITEGIC>MOL_PROPERTY
Angle
SciTegic.value.DoubleValue
3.901

@<SCITEGIC>MOL_PROPERTY
Pdih
SciTegic.value.DoubleValue
10.737

@<SCITEGIC>MOL_PROPERTY
Idih
SciTegic.value.DoubleValue
0.000

@<SCITEGIC>MOL_PROPERTY
Tether
SciTegic.value.DoubleValue
0.000

@<TRIPOS>MOLECULE
guest-4_confgen4.mol2 : confsearch ligand conformer 853
          16          16           1
SMALL
USER_CHARGES
 
@<TRIPOS>ATOM
       1    C1      20.774608   18.440066   22.007212 C.3        1 MOL1        -0.1689
       2    H1      21.290357   18.826613   22.897303 H          1 MOL1         0.0830
       3    H2      21.533472   18.084240   21.297172 H          1 MOL1         0.0830
       4    C2      19.883671   19.538656   21.411343 C.3        1 MOL1        -0.1689
       5    H3      20.361427   20.527338   21.443215 H          1 MOL1         0.0830
       6    H4      19.655101   19.301131   20.363028 H          1 MOL1         0.0830
       7    C3      18.594294   19.483637   22.251008 C.3        1 MOL1        -0.1765
       8    H5      17.722018   19.806696   21.668244 H          1 MOL1         0.0830
       9    H6      18.692905   20.157844   23.112695 H          1 MOL1         0.0830
      10    C4      18.448268   18.023391   22.728542 C.3        1 MOL1         0.1214
      11    H7      17.645022   17.522791   22.168441 H          1 MOL1         0.0787
      12    C5      19.791736   17.329750   22.422293 C.3        1 MOL1        -0.1765
      13    H8      20.169035   16.755325   23.278858 H          1 MOL1         0.0830
      14    H9      19.651569   16.630763   21.587517 H          1 MOL1         0.0830
      15    O1      18.185178   17.987922   24.126188 O.3        1 MOL1        -0.5512
      16    H10     17.330904   18.449371   24.263351 H          1 MOL1         0.3776
@<TRIPOS>BOND
    1     1     2    1
    2     1     3    1
    3     1     4    1
    4     4     5    1
    5     4     6    1
    6     4     7    1
    7     7     8    1
    8     7     9    1
    9     7    10    1
   10    10    11    1
   11     1    12    1
   12    10    12    1
   13    12    13    1
   14    12    14    1
   15    10    15    1
   16    15    16    1
@<TRIPOS>SUBSTRUCTURE
       1 MOL1            1 RESIDUE      1      MOL     
@<SCITEGIC>MOL_PROPERTY
VConf Rank
SciTegic.value.IntegerValue
853

@<SCITEGIC>MOL_PROPERTY
Conf_Id
SciTegic.value.IntegerValue
59

@<SCITEGIC>MOL_PROPERTY
Delta U+W
SciTegic.value.DoubleValue
0.000

@<SCITEGIC>MOL_PROPERTY
U+W
SciTegic.value.DoubleValue
3.010

@<SCITEGIC>MOL_PROPERTY
Grad RMS
SciTegic.value.DoubleValue
0.000000

@<SCITEGIC>MOL_PROPERTY
U
SciTegic.value.DoubleValue
5.843

@<SCITEGIC>MOL_PROPERTY
W
SciTegic.value.DoubleValue
-2.833

@<SCITEGIC>MOL_PROPERTY
W(PB)
SciTegic.value.DoubleValue
-4.568

@<SCITEGIC>MOL_PROPERTY
W(SA)
SciTegic.value.DoubleValue
1.735

@<SCITEGIC>MOL_PROPERTY
Valence
SciTegic.value.DoubleValue
13.789

@<SCITEGIC>MOL_PROPERTY
Coulomb
SciTegic.value.DoubleValue
-8.574

@<SCITEGIC>MOL_PROPERTY
VdW
SciTegic.value.DoubleValue
0.628

@<SCITEGIC>MOL_PROPERTY
VdW6
SciTegic.value.DoubleValue
-3.284

@<SCITEGIC>MOL_PROPERTY
VdW12
SciTegic.value.DoubleValue
3.912

@<SCITEGIC>MOL_PROPERTY
Bond
SciTegic.value.DoubleValue
0.054

@<SCITEGIC>MOL_PROPERTY
Angle
SciTegic.value.DoubleValue
4.034

@<SCITEGIC>MOL_PROPERTY
Pdih
SciTegic.value.DoubleValue
9.702

@<SCITEGIC>MOL_PROPERTY
Idih
SciTegic.value.DoubleValue
0.000

@<SCITEGIC>MOL_PROPERTY
Tether
SciTegic.value.DoubleValue
0.000

@<TRIPOS>MOLECULE
guest-4_confgen4.mol2 : confsearch ligand conformer 854
          16          16           1
SMALL
USER_CHARGES
 
@<TRIPOS>ATOM
       1    C1      18.707573   18.140232   23.425327 C.3        1 MOL1        -0.1689
       2    H1      18.879606   17.615288   24.374852 H          1 MOL1         0.0830
       3    H2      17.666131   18.490649   23.410247 H          1 MOL1         0.0830
       4    C2      18.968398   17.243961   22.206969 C.3        1 MOL1        -0.1689
       5    H3      19.852478   16.618174   22.392641 H          1 MOL1         0.0830
       6    H4      18.119973   16.583198   21.982896 H          1 MOL1         0.0830
       7    C3      19.265101   18.228579   21.060858 C.3        1 MOL1        -0.1765
       8    H5      18.329978   18.490997   20.549227 H          1 MOL1         0.0830
       9    H6      19.941532   17.789423   20.315471 H          1 MOL1         0.0830
      10    C4      19.855145   19.496519   21.711991 C.3        1 MOL1         0.1214
      11    H7      19.303910   20.378555   21.354678 H          1 MOL1         0.0787
      12    C5      19.661528   19.333598   23.234392 C.3        1 MOL1        -0.1765
      13    H8      20.622258   19.111802   23.718732 H          1 MOL1         0.0830
      14    H9      19.257391   20.246956   23.689692 H          1 MOL1         0.0830
      15    O1      21.239171   19.608285   21.402349 O.3        1 MOL1        -0.5512
      16    H10     21.562442   20.419696   21.848036 H          1 MOL1         0.3776
@<TRIPOS>BOND
    1     1     2    1
    2     1     3    1
    3     1     4    1
    4     4     5    1
    5     4     6    1
    6     4     7    1
    7     7     8    1
    8     7     9    1
    9     7    10    1
   10    10    11    1
   11     1    12    1
   12    10    12    1
   13    12    13    1
   14    12    14    1
   15    10    15    1
   16    15    16    1
@<TRIPOS>SUBSTRUCTURE
       1 MOL1            1 RESIDUE      1      MOL     
@<SCITEGIC>MOL_PROPERTY
VConf Rank
SciTegic.value.IntegerValue
854

@<SCITEGIC>MOL_PROPERTY
Conf_Id
SciTegic.value.IntegerValue
33

@<SCITEGIC>MOL_PROPERTY
Delta U+W
SciTegic.value.DoubleValue
0.015

@<SCITEGIC>MOL_PROPERTY
U+W
SciTegic.value.DoubleValue
3.025

@<SCITEGIC>MOL_PROPERTY
Grad RMS
SciTegic.value.DoubleValue
0.000000

@<SCITEGIC>MOL_PROPERTY
U
SciTegic.value.DoubleValue
5.843

@<SCITEGIC>MOL_PROPERTY
W
SciTegic.value.DoubleValue
-2.819

@<SCITEGIC>MOL_PROPERTY
W(PB)
SciTegic.value.DoubleValue
-4.568

@<SCITEGIC>MOL_PROPERTY
W(SA)
SciTegic.value.DoubleValue
1.750

@<SCITEGIC>MOL_PROPERTY
Valence
SciTegic.value.DoubleValue
13.789

@<SCITEGIC>MOL_PROPERTY
Coulomb
SciTegic.value.DoubleValue
-8.574

@<SCITEGIC>MOL_PROPERTY
VdW
SciTegic.value.DoubleValue
0.628

@<SCITEGIC>MOL_PROPERTY
VdW6
SciTegic.value.DoubleValue
-3.284

@<SCITEGIC>MOL_PROPERTY
VdW12
SciTegic.value.DoubleValue
3.913

@<SCITEGIC>MOL_PROPERTY
Bond
SciTegic.value.DoubleValue
0.054

@<SCITEGIC>MOL_PROPERTY
Angle
SciTegic.value.DoubleValue
4.033

@<SCITEGIC>MOL_PROPERTY
Pdih
SciTegic.value.DoubleValue
9.702

@<SCITEGIC>MOL_PROPERTY
Idih
SciTegic.value.DoubleValue
0.000

@<SCITEGIC>MOL_PROPERTY
Tether
SciTegic.value.DoubleValue
0.000

@<TRIPOS>MOLECULE
guest-4_confgen4.mol2 : confsearch ligand conformer 855
          16          16           1
SMALL
USER_CHARGES
 
@<TRIPOS>ATOM
       1    C1      18.564463   19.209051   21.383964 C.3        1 MOL1        -0.1689
       2    H1      18.288784   18.585441   20.522374 H          1 MOL1         0.0830
       3    H2      18.053046   20.175090   21.273425 H          1 MOL1         0.0830
       4    C2      20.098207   19.381400   21.438267 C.3        1 MOL1        -0.1689
       5    H3      20.564730   18.842091   20.602367 H          1 MOL1         0.0830
       6    H4      20.389055   20.437728   21.357153 H          1 MOL1         0.0830
       7    C3      20.558740   18.780914   22.783541 C.3        1 MOL1        -0.1765
       8    H5      20.680116   19.584685   23.521673 H          1 MOL1         0.0830
       9    H6      21.520420   18.257549   22.698292 H          1 MOL1         0.0830
      10    C4      19.428745   17.849478   23.242379 C.3        1 MOL1         0.1214
      11    H7      19.400624   17.756496   24.337617 H          1 MOL1         0.0787
      12    C5      18.155649   18.512000   22.699011 C.3        1 MOL1        -0.1765
      13    H8      17.341351   17.790030   22.551760 H          1 MOL1         0.0830
      14    H9      17.809219   19.263799   23.420402 H          1 MOL1         0.0830
      15    O1      19.592492   16.578625   22.630067 O.3        1 MOL1        -0.5512
      16    H10     19.606113   16.759385   21.667620 H          1 MOL1         0.3776
@<TRIPOS>BOND
    1     1     2    1
    2     1     3    1
    3     1     4    1
    4     4     5    1
    5     4     6    1
    6     4     7    1
    7     7     8    1
    8     7     9    1
    9     7    10    1
   10    10    11    1
   11     1    12    1
   12    10    12    1
   13    12    13    1
   14    12    14    1
   15    10    15    1
   16    15    16    1
@<TRIPOS>SUBSTRUCTURE
       1 MOL1            1 RESIDUE      1      MOL     
@<SCITEGIC>MOL_PROPERTY
VConf Rank
SciTegic.value.IntegerValue
855

@<SCITEGIC>MOL_PROPERTY
Conf_Id
SciTegic.value.IntegerValue
20

@<SCITEGIC>MOL_PROPERTY
Delta U+W
SciTegic.value.DoubleValue
-0.483

@<SCITEGIC>MOL_PROPERTY
U+W
SciTegic.value.DoubleValue
2.527

@<SCITEGIC>MOL_PROPERTY
Grad RMS
SciTegic.value.DoubleValue
0.000000

@<SCITEGIC>MOL_PROPERTY
U
SciTegic.value.DoubleValue
4.508

@<SCITEGIC>MOL_PROPERTY
W
SciTegic.value.DoubleValue
-1.981

@<SCITEGIC>MOL_PROPERTY
W(PB)
SciTegic.value.DoubleValue
-3.712

@<SCITEGIC>MOL_PROPERTY
W(SA)
SciTegic.value.DoubleValue
1.732

@<SCITEGIC>MOL_PROPERTY
Valence
SciTegic.value.DoubleValue
14.705

@<SCITEGIC>MOL_PROPERTY
Coulomb
SciTegic.value.DoubleValue
-10.687

@<SCITEGIC>MOL_PROPERTY
VdW
SciTegic.value.DoubleValue
0.490

@<SCITEGIC>MOL_PROPERTY
VdW6
SciTegic.value.DoubleValue
-3.745

@<SCITEGIC>MOL_PROPERTY
VdW12
SciTegic.value.DoubleValue
4.235

@<SCITEGIC>MOL_PROPERTY
Bond
SciTegic.value.DoubleValue
0.068

@<SCITEGIC>MOL_PROPERTY
Angle
SciTegic.value.DoubleValue
3.901

@<SCITEGIC>MOL_PROPERTY
Pdih
SciTegic.value.DoubleValue
10.737

@<SCITEGIC>MOL_PROPERTY
Idih
SciTegic.value.DoubleValue
0.000

@<SCITEGIC>MOL_PROPERTY
Tether
SciTegic.value.DoubleValue
0.000

@<TRIPOS>MOLECULE
guest-4_confgen4.mol2 : confsearch ligand conformer 856
          16          16           1
SMALL
USER_CHARGES
 
@<TRIPOS>ATOM
       1    C1      18.486486   17.692908   21.531614 C.3        1 MOL1        -0.1689
       2    H1      18.350407   18.218794   20.576311 H          1 MOL1         0.0830
       3    H2      17.962460   16.729348   21.471683 H          1 MOL1         0.0830
       4    C2      17.970100   18.570582   22.679988 C.3        1 MOL1        -0.1689
       5    H3      17.045513   19.102121   22.416618 H          1 MOL1         0.0830
       6    H4      17.768036   17.945486   23.560925 H          1 MOL1         0.0830
       7    C3      19.133994   19.532840   22.979934 C.3        1 MOL1        -0.1765
       8    H5      19.137321   19.842368   24.033038 H          1 MOL1         0.0830
       9    H6      19.027066   20.435631   22.363233 H          1 MOL1         0.0830
      10    C4      20.428169   18.779930   22.605878 C.3        1 MOL1         0.1214
      11    H7      20.959619   18.469230   23.517220 H          1 MOL1         0.0787
      12    C5      19.990105   17.527200   21.819366 C.3        1 MOL1        -0.1765
      13    H8      20.566399   17.393255   20.894182 H          1 MOL1         0.0830
      14    H9      20.150023   16.638525   22.443677 H          1 MOL1         0.0830
      15    O1      21.258067   19.603050   21.794934 O.3        1 MOL1        -0.5512
      16    H10     21.495801   20.384268   22.337810 H          1 MOL1         0.3776
@<TRIPOS>BOND
    1     1     2    1
    2     1     3    1
    3     1     4    1
    4     4     5    1
    5     4     6    1
    6     4     7    1
    7     7     8    1
    8     7     9    1
    9     7    10    1
   10    10    11    1
   11     1    12    1
   12    10    12    1
   13    12    13    1
   14    12    14    1
   15    10    15    1
   16    15    16    1
@<TRIPOS>SUBSTRUCTURE
       1 MOL1            1 RESIDUE      1      MOL     
@<SCITEGIC>MOL_PROPERTY
VConf Rank
SciTegic.value.IntegerValue
856

@<SCITEGIC>MOL_PROPERTY
Conf_Id
SciTegic.value.IntegerValue
59

@<SCITEGIC>MOL_PROPERTY
Delta U+W
SciTegic.value.DoubleValue
0.000

@<SCITEGIC>MOL_PROPERTY
U+W
SciTegic.value.DoubleValue
3.010

@<SCITEGIC>MOL_PROPERTY
Grad RMS
SciTegic.value.DoubleValue
0.000000

@<SCITEGIC>MOL_PROPERTY
U
SciTegic.value.DoubleValue
5.843

@<SCITEGIC>MOL_PROPERTY
W
SciTegic.value.DoubleValue
-2.833

@<SCITEGIC>MOL_PROPERTY
W(PB)
SciTegic.value.DoubleValue
-4.568

@<SCITEGIC>MOL_PROPERTY
W(SA)
SciTegic.value.DoubleValue
1.735

@<SCITEGIC>MOL_PROPERTY
Valence
SciTegic.value.DoubleValue
13.789

@<SCITEGIC>MOL_PROPERTY
Coulomb
SciTegic.value.DoubleValue
-8.574

@<SCITEGIC>MOL_PROPERTY
VdW
SciTegic.value.DoubleValue
0.628

@<SCITEGIC>MOL_PROPERTY
VdW6
SciTegic.value.DoubleValue
-3.284

@<SCITEGIC>MOL_PROPERTY
VdW12
SciTegic.value.DoubleValue
3.912

@<SCITEGIC>MOL_PROPERTY
Bond
SciTegic.value.DoubleValue
0.054

@<SCITEGIC>MOL_PROPERTY
Angle
SciTegic.value.DoubleValue
4.034

@<SCITEGIC>MOL_PROPERTY
Pdih
SciTegic.value.DoubleValue
9.702

@<SCITEGIC>MOL_PROPERTY
Idih
SciTegic.value.DoubleValue
0.000

@<SCITEGIC>MOL_PROPERTY
Tether
SciTegic.value.DoubleValue
0.000

@<TRIPOS>MOLECULE
guest-4_confgen4.mol2 : confsearch ligand conformer 857
          16          16           1
SMALL
USER_CHARGES
 
@<TRIPOS>ATOM
       1    C1      20.287949   19.507783   23.040607 C.3        1 MOL1        -0.1689
       2    H1      20.844659   19.532083   23.987308 H          1 MOL1         0.0830
       3    H2      20.550197   20.406183   22.464652 H          1 MOL1         0.0830
       4    C2      18.769285   19.458527   23.257311 C.3        1 MOL1        -0.1689
       5    H3      18.539306   18.796056   24.103433 H          1 MOL1         0.0830
       6    H4      18.343478   20.448573   23.469771 H          1 MOL1         0.0830
       7    C3      18.214351   18.846728   21.957763 C.3        1 MOL1        -0.1765
       8    H5      17.990996   19.646715   21.239977 H          1 MOL1         0.0830
       9    H6      17.284703   18.290442   22.137544 H          1 MOL1         0.0830
      10    C4      19.330521   17.951179   21.381609 C.3        1 MOL1         0.1214
      11    H7      19.500117   18.214911   20.327473 H          1 MOL1         0.0787
      12    C5      20.597681   18.248298   22.210924 C.3        1 MOL1        -0.1765
      13    H8      20.814179   17.411122   22.888455 H          1 MOL1         0.0830
      14    H9      21.474831   18.397208   21.568056 H          1 MOL1         0.0830
      15    O1      18.972626   16.579947   21.506232 O.3        1 MOL1        -0.5512
      16    H10     19.717738   16.060154   21.137244 H          1 MOL1         0.3776
@<TRIPOS>BOND
    1     1     2    1
    2     1     3    1
    3     1     4    1
    4     4     5    1
    5     4     6    1
    6     4     7    1
    7     7     8    1
    8     7     9    1
    9     7    10    1
   10    10    11    1
   11     1    12    1
   12    10    12    1
   13    12    13    1
   14    12    14    1
   15    10    15    1
   16    15    16    1
@<TRIPOS>SUBSTRUCTURE
       1 MOL1            1 RESIDUE      1      MOL     
@<SCITEGIC>MOL_PROPERTY
VConf Rank
SciTegic.value.IntegerValue
857

@<SCITEGIC>MOL_PROPERTY
Conf_Id
SciTegic.value.IntegerValue
33

@<SCITEGIC>MOL_PROPERTY
Delta U+W
SciTegic.value.DoubleValue
0.015

@<SCITEGIC>MOL_PROPERTY
U+W
SciTegic.value.DoubleValue
3.025

@<SCITEGIC>MOL_PROPERTY
Grad RMS
SciTegic.value.DoubleValue
0.000000

@<SCITEGIC>MOL_PROPERTY
U
SciTegic.value.DoubleValue
5.843

@<SCITEGIC>MOL_PROPERTY
W
SciTegic.value.DoubleValue
-2.819

@<SCITEGIC>MOL_PROPERTY
W(PB)
SciTegic.value.DoubleValue
-4.568

@<SCITEGIC>MOL_PROPERTY
W(SA)
SciTegic.value.DoubleValue
1.750

@<SCITEGIC>MOL_PROPERTY
Valence
SciTegic.value.DoubleValue
13.789

@<SCITEGIC>MOL_PROPERTY
Coulomb
SciTegic.value.DoubleValue
-8.574

@<SCITEGIC>MOL_PROPERTY
VdW
SciTegic.value.DoubleValue
0.628

@<SCITEGIC>MOL_PROPERTY
VdW6
SciTegic.value.DoubleValue
-3.284

@<SCITEGIC>MOL_PROPERTY
VdW12
SciTegic.value.DoubleValue
3.913

@<SCITEGIC>MOL_PROPERTY
Bond
SciTegic.value.DoubleValue
0.054

@<SCITEGIC>MOL_PROPERTY
Angle
SciTegic.value.DoubleValue
4.033

@<SCITEGIC>MOL_PROPERTY
Pdih
SciTegic.value.DoubleValue
9.702

@<SCITEGIC>MOL_PROPERTY
Idih
SciTegic.value.DoubleValue
0.000

@<SCITEGIC>MOL_PROPERTY
Tether
SciTegic.value.DoubleValue
0.000

@<TRIPOS>MOLECULE
guest-4_confgen4.mol2 : confsearch ligand conformer 858
          16          16           1
SMALL
USER_CHARGES
 
@<TRIPOS>ATOM
       1    C1      20.508811   18.993605   21.658305 C.3        1 MOL1        -0.1689
       2    H1      20.423563   19.929153   21.088471 H          1 MOL1         0.0830
       3    H2      21.547744   18.646188   21.575146 H          1 MOL1         0.0830
       4    C2      19.514767   17.949193   21.105039 C.3        1 MOL1        -0.1689
       5    H3      18.949189   18.378915   20.266775 H          1 MOL1         0.0830
       6    H4      20.033668   17.054982   20.733383 H          1 MOL1         0.0830
       7    C3      18.561017   17.594908   22.265762 C.3        1 MOL1        -0.1765
       8    H5      18.898911   16.668364   22.748426 H          1 MOL1         0.0830
       9    H6      17.529657   17.436417   21.923445 H          1 MOL1         0.0830
      10    C4      18.668723   18.748750   23.271765 C.3        1 MOL1         0.1214
      11    H7      18.449719   18.414285   24.296047 H          1 MOL1         0.0787
      12    C5      20.119170   19.230293   23.132929 C.3        1 MOL1        -0.1765
      13    H8      20.239360   20.280143   23.431885 H          1 MOL1         0.0830
      14    H9      20.760689   18.621948   23.784076 H          1 MOL1         0.0830
      15    O1      17.789659   19.793463   22.881088 O.3        1 MOL1        -0.5512
      16    H10     18.057105   20.023157   21.967372 H          1 MOL1         0.3776
@<TRIPOS>BOND
    1     1     2    1
    2     1     3    1
    3     1     4    1
    4     4     5    1
    5     4     6    1
    6     4     7    1
    7     7     8    1
    8     7     9    1
    9     7    10    1
   10    10    11    1
   11     1    12    1
   12    10    12    1
   13    12    13    1
   14    12    14    1
   15    10    15    1
   16    15    16    1
@<TRIPOS>SUBSTRUCTURE
       1 MOL1            1 RESIDUE      1      MOL     
@<SCITEGIC>MOL_PROPERTY
VConf Rank
SciTegic.value.IntegerValue
858

@<SCITEGIC>MOL_PROPERTY
Conf_Id
SciTegic.value.IntegerValue
20

@<SCITEGIC>MOL_PROPERTY
Delta U+W
SciTegic.value.DoubleValue
-0.483

@<SCITEGIC>MOL_PROPERTY
U+W
SciTegic.value.DoubleValue
2.527

@<SCITEGIC>MOL_PROPERTY
Grad RMS
SciTegic.value.DoubleValue
0.000000

@<SCITEGIC>MOL_PROPERTY
U
SciTegic.value.DoubleValue
4.508

@<SCITEGIC>MOL_PROPERTY
W
SciTegic.value.DoubleValue
-1.981

@<SCITEGIC>MOL_PROPERTY
W(PB)
SciTegic.value.DoubleValue
-3.712

@<SCITEGIC>MOL_PROPERTY
W(SA)
SciTegic.value.DoubleValue
1.732

@<SCITEGIC>MOL_PROPERTY
Valence
SciTegic.value.DoubleValue
14.705

@<SCITEGIC>MOL_PROPERTY
Coulomb
SciTegic.value.DoubleValue
-10.687

@<SCITEGIC>MOL_PROPERTY
VdW
SciTegic.value.DoubleValue
0.490

@<SCITEGIC>MOL_PROPERTY
VdW6
SciTegic.value.DoubleValue
-3.745

@<SCITEGIC>MOL_PROPERTY
VdW12
SciTegic.value.DoubleValue
4.235

@<SCITEGIC>MOL_PROPERTY
Bond
SciTegic.value.DoubleValue
0.068

@<SCITEGIC>MOL_PROPERTY
Angle
SciTegic.value.DoubleValue
3.901

@<SCITEGIC>MOL_PROPERTY
Pdih
SciTegic.value.DoubleValue
10.737

@<SCITEGIC>MOL_PROPERTY
Idih
SciTegic.value.DoubleValue
0.000

@<SCITEGIC>MOL_PROPERTY
Tether
SciTegic.value.DoubleValue
0.000

@<TRIPOS>MOLECULE
guest-4_confgen4.mol2 : confsearch ligand conformer 859
          16          16           1
SMALL
USER_CHARGES
 
@<TRIPOS>ATOM
       1    C1      18.040033   18.987089   22.748820 C.3        1 MOL1        -0.1689
       2    H1      17.989875   18.719958   23.813621 H          1 MOL1         0.0830
       3    H2      17.112036   19.510415   22.481249 H          1 MOL1         0.0830
       4    C2      18.261305   17.720494   21.910665 C.3        1 MOL1        -0.1689
       5    H3      17.683430   16.864847   22.285747 H          1 MOL1         0.0830
       6    H4      17.960974   17.908454   20.870425 H          1 MOL1         0.0830
       7    C3      19.780036   17.476737   21.978450 C.3        1 MOL1        -0.1765
       8    H5      20.145591   16.969768   21.076121 H          1 MOL1         0.0830
       9    H6      20.006875   16.835493   22.841083 H          1 MOL1         0.0830
      10    C4      20.435471   18.862661   22.155367 C.3        1 MOL1         0.1214
      11    H7      20.917651   19.173492   21.217068 H          1 MOL1         0.0787
      12    C5      19.293215   19.843827   22.490625 C.3        1 MOL1        -0.1765
      13    H8      19.531235   20.481900   23.352154 H          1 MOL1         0.0830
      14    H9      19.119791   20.499629   21.627532 H          1 MOL1         0.0830
      15    O1      21.379649   18.827038   23.218921 O.3        1 MOL1        -0.5512
      16    H10     22.072399   18.183731   22.958562 H          1 MOL1         0.3776
@<TRIPOS>BOND
    1     1     2    1
    2     1     3    1
    3     1     4    1
    4     4     5    1
    5     4     6    1
    6     4     7    1
    7     7     8    1
    8     7     9    1
    9     7    10    1
   10    10    11    1
   11     1    12    1
   12    10    12    1
   13    12    13    1
   14    12    14    1
   15    10    15    1
   16    15    16    1
@<TRIPOS>SUBSTRUCTURE
       1 MOL1            1 RESIDUE      1      MOL     
@<SCITEGIC>MOL_PROPERTY
VConf Rank
SciTegic.value.IntegerValue
859

@<SCITEGIC>MOL_PROPERTY
Conf_Id
SciTegic.value.IntegerValue
59

@<SCITEGIC>MOL_PROPERTY
Delta U+W
SciTegic.value.DoubleValue
0.000

@<SCITEGIC>MOL_PROPERTY
U+W
SciTegic.value.DoubleValue
3.010

@<SCITEGIC>MOL_PROPERTY
Grad RMS
SciTegic.value.DoubleValue
0.000000

@<SCITEGIC>MOL_PROPERTY
U
SciTegic.value.DoubleValue
5.843

@<SCITEGIC>MOL_PROPERTY
W
SciTegic.value.DoubleValue
-2.833

@<SCITEGIC>MOL_PROPERTY
W(PB)
SciTegic.value.DoubleValue
-4.568

@<SCITEGIC>MOL_PROPERTY
W(SA)
SciTegic.value.DoubleValue
1.735

@<SCITEGIC>MOL_PROPERTY
Valence
SciTegic.value.DoubleValue
13.789

@<SCITEGIC>MOL_PROPERTY
Coulomb
SciTegic.value.DoubleValue
-8.574

@<SCITEGIC>MOL_PROPERTY
VdW
SciTegic.value.DoubleValue
0.628

@<SCITEGIC>MOL_PROPERTY
VdW6
SciTegic.value.DoubleValue
-3.284

@<SCITEGIC>MOL_PROPERTY
VdW12
SciTegic.value.DoubleValue
3.912

@<SCITEGIC>MOL_PROPERTY
Bond
SciTegic.value.DoubleValue
0.054

@<SCITEGIC>MOL_PROPERTY
Angle
SciTegic.value.DoubleValue
4.034

@<SCITEGIC>MOL_PROPERTY
Pdih
SciTegic.value.DoubleValue
9.702

@<SCITEGIC>MOL_PROPERTY
Idih
SciTegic.value.DoubleValue
0.000

@<SCITEGIC>MOL_PROPERTY
Tether
SciTegic.value.DoubleValue
0.000

@<TRIPOS>MOLECULE
guest-4_confgen4.mol2 : confsearch ligand conformer 860
          16          16           1
SMALL
USER_CHARGES
 
@<TRIPOS>ATOM
       1    C1      18.754364   18.144934   21.128170 C.3        1 MOL1        -0.1689
       2    H1      18.829906   17.347867   20.376016 H          1 MOL1         0.0830
       3    H2      17.793322   18.659228   20.988444 H          1 MOL1         0.0830
       4    C2      19.902312   19.158237   21.022535 C.3        1 MOL1        -0.1689
       5    H3      20.840715   18.630097   20.803110 H          1 MOL1         0.0830
       6    H4      19.733511   19.902592   20.232544 H          1 MOL1         0.0830
       7    C3      19.984106   19.794996   22.422151 C.3        1 MOL1        -0.1765
       8    H5      19.333772   20.678419   22.463576 H          1 MOL1         0.0830
       9    H6      21.005671   20.121144   22.658900 H          1 MOL1         0.0830
      10    C4      19.461333   18.738453   23.417250 C.3        1 MOL1         0.1214
      11    H7      18.686193   19.190450   24.053156 H          1 MOL1         0.0787
      12    C5      18.851580   17.604333   22.566540 C.3        1 MOL1        -0.1765
      13    H8      19.507799   16.723437   22.579974 H          1 MOL1         0.0830
      14    H9      17.868610   17.298277   22.947259 H          1 MOL1         0.0830
      15    O1      20.532339   18.237289   24.208248 O.3        1 MOL1        -0.5512
      16    H10     20.147081   17.566158   24.810484 H          1 MOL1         0.3776
@<TRIPOS>BOND
    1     1     2    1
    2     1     3    1
    3     1     4    1
    4     4     5    1
    5     4     6    1
    6     4     7    1
    7     7     8    1
    8     7     9    1
    9     7    10    1
   10    10    11    1
   11     1    12    1
   12    10    12    1
   13    12    13    1
   14    12    14    1
   15    10    15    1
   16    15    16    1
@<TRIPOS>SUBSTRUCTURE
       1 MOL1            1 RESIDUE      1      MOL     
@<SCITEGIC>MOL_PROPERTY
VConf Rank
SciTegic.value.IntegerValue
860

@<SCITEGIC>MOL_PROPERTY
Conf_Id
SciTegic.value.IntegerValue
33

@<SCITEGIC>MOL_PROPERTY
Delta U+W
SciTegic.value.DoubleValue
0.015

@<SCITEGIC>MOL_PROPERTY
U+W
SciTegic.value.DoubleValue
3.025

@<SCITEGIC>MOL_PROPERTY
Grad RMS
SciTegic.value.DoubleValue
0.000000

@<SCITEGIC>MOL_PROPERTY
U
SciTegic.value.DoubleValue
5.843

@<SCITEGIC>MOL_PROPERTY
W
SciTegic.value.DoubleValue
-2.819

@<SCITEGIC>MOL_PROPERTY
W(PB)
SciTegic.value.DoubleValue
-4.568

@<SCITEGIC>MOL_PROPERTY
W(SA)
SciTegic.value.DoubleValue
1.750

@<SCITEGIC>MOL_PROPERTY
Valence
SciTegic.value.DoubleValue
13.789

@<SCITEGIC>MOL_PROPERTY
Coulomb
SciTegic.value.DoubleValue
-8.574

@<SCITEGIC>MOL_PROPERTY
VdW
SciTegic.value.DoubleValue
0.628

@<SCITEGIC>MOL_PROPERTY
VdW6
SciTegic.value.DoubleValue
-3.284

@<SCITEGIC>MOL_PROPERTY
VdW12
SciTegic.value.DoubleValue
3.913

@<SCITEGIC>MOL_PROPERTY
Bond
SciTegic.value.DoubleValue
0.054

@<SCITEGIC>MOL_PROPERTY
Angle
SciTegic.value.DoubleValue
4.033

@<SCITEGIC>MOL_PROPERTY
Pdih
SciTegic.value.DoubleValue
9.702

@<SCITEGIC>MOL_PROPERTY
Idih
SciTegic.value.DoubleValue
0.000

@<SCITEGIC>MOL_PROPERTY
Tether
SciTegic.value.DoubleValue
0.000

@<TRIPOS>MOLECULE
guest-4_confgen4.mol2 : confsearch ligand conformer 861
          16          16           1
SMALL
USER_CHARGES
 
@<TRIPOS>ATOM
       1    C1      18.485498   18.076048   21.419897 C.3        1 MOL1        -0.1689
       2    H1      17.895716   17.255116   21.850542 H          1 MOL1         0.0830
       3    H2      18.138486   18.230667   20.389037 H          1 MOL1         0.0830
       4    C2      19.988390   17.723658   21.466347 C.3        1 MOL1        -0.1689
       5    H3      20.125888   16.731749   21.918494 H          1 MOL1         0.0830
       6    H4      20.427791   17.694939   20.459817 H          1 MOL1         0.0830
       7    C3      20.664675   18.804541   22.336270 C.3        1 MOL1        -0.1765
       8    H5      21.107506   19.572639   21.688546 H          1 MOL1         0.0830
       9    H6      21.467057   18.392658   22.962801 H          1 MOL1         0.0830
      10    C4      19.544742   19.441150   23.170219 C.3        1 MOL1         0.1214
      11    H7      19.780585   20.481313   23.437470 H          1 MOL1         0.0787
      12    C5      18.310258   19.357335   22.262484 C.3        1 MOL1        -0.1765
      13    H8      17.372777   19.354451   22.834432 H          1 MOL1         0.0830
      14    H9      18.294751   20.232818   21.599981 H          1 MOL1         0.0830
      15    O1      19.324121   18.656771   24.333353 O.3        1 MOL1        -0.5512
      16    H10     19.123512   17.757914   24.000224 H          1 MOL1         0.3776
@<TRIPOS>BOND
    1     1     2    1
    2     1     3    1
    3     1     4    1
    4     4     5    1
    5     4     6    1
    6     4     7    1
    7     7     8    1
    8     7     9    1
    9     7    10    1
   10    10    11    1
   11     1    12    1
   12    10    12    1
   13    12    13    1
   14    12    14    1
   15    10    15    1
   16    15    16    1
@<TRIPOS>SUBSTRUCTURE
       1 MOL1            1 RESIDUE      1      MOL     
@<SCITEGIC>MOL_PROPERTY
VConf Rank
SciTegic.value.IntegerValue
861

@<SCITEGIC>MOL_PROPERTY
Conf_Id
SciTegic.value.IntegerValue
20

@<SCITEGIC>MOL_PROPERTY
Delta U+W
SciTegic.value.DoubleValue
-0.483

@<SCITEGIC>MOL_PROPERTY
U+W
SciTegic.value.DoubleValue
2.527

@<SCITEGIC>MOL_PROPERTY
Grad RMS
SciTegic.value.DoubleValue
0.000000

@<SCITEGIC>MOL_PROPERTY
U
SciTegic.value.DoubleValue
4.508

@<SCITEGIC>MOL_PROPERTY
W
SciTegic.value.DoubleValue
-1.981

@<SCITEGIC>MOL_PROPERTY
W(PB)
SciTegic.value.DoubleValue
-3.712

@<SCITEGIC>MOL_PROPERTY
W(SA)
SciTegic.value.DoubleValue
1.732

@<SCITEGIC>MOL_PROPERTY
Valence
SciTegic.value.DoubleValue
14.705

@<SCITEGIC>MOL_PROPERTY
Coulomb
SciTegic.value.DoubleValue
-10.687

@<SCITEGIC>MOL_PROPERTY
VdW
SciTegic.value.DoubleValue
0.490

@<SCITEGIC>MOL_PROPERTY
VdW6
SciTegic.value.DoubleValue
-3.745

@<SCITEGIC>MOL_PROPERTY
VdW12
SciTegic.value.DoubleValue
4.235

@<SCITEGIC>MOL_PROPERTY
Bond
SciTegic.value.DoubleValue
0.068

@<SCITEGIC>MOL_PROPERTY
Angle
SciTegic.value.DoubleValue
3.901

@<SCITEGIC>MOL_PROPERTY
Pdih
SciTegic.value.DoubleValue
10.737

@<SCITEGIC>MOL_PROPERTY
Idih
SciTegic.value.DoubleValue
0.000

@<SCITEGIC>MOL_PROPERTY
Tether
SciTegic.value.DoubleValue
0.000

@<TRIPOS>MOLECULE
guest-4_confgen4.mol2 : confsearch ligand conformer 862
          16          16           1
SMALL
USER_CHARGES
 
@<TRIPOS>ATOM
       1    C1      19.196708   19.949239   21.938328 C.3        1 MOL1        -0.1689
       2    H1      20.045551   20.469112   22.404027 H          1 MOL1         0.0830
       3    H2      18.626773   20.680337   21.348995 H          1 MOL1         0.0830
       4    C2      18.344293   19.280152   23.025268 C.3        1 MOL1        -0.1689
       5    H3      18.242522   19.907078   23.921574 H          1 MOL1         0.0830
       6    H4      17.338380   19.076021   22.632717 H          1 MOL1         0.0830
       7    C3      19.068606   17.953299   23.317479 C.3        1 MOL1        -0.1765
       8    H5      18.366636   17.178035   23.650721 H          1 MOL1         0.0830
       9    H6      19.803895   18.109588   24.118546 H          1 MOL1         0.0830
      10    C4      19.780768   17.549317   22.009311 C.3        1 MOL1         0.1214
      11    H7      19.251314   16.709295   21.536490 H          1 MOL1         0.0787
      12    C5      19.715537   18.779887   21.081262 C.3        1 MOL1        -0.1765
      13    H8      20.688335   19.011758   20.627477 H          1 MOL1         0.0830
      14    H9      19.007479   18.577169   20.267234 H          1 MOL1         0.0830
      15    O1      21.135668   17.205615   22.273895 O.3        1 MOL1        -0.5512
      16    H10     21.117101   16.429628   22.873089 H          1 MOL1         0.3776
@<TRIPOS>BOND
    1     1     2    1
    2     1     3    1
    3     1     4    1
    4     4     5    1
    5     4     6    1
    6     4     7    1
    7     7     8    1
    8     7     9    1
    9     7    10    1
   10    10    11    1
   11     1    12    1
   12    10    12    1
   13    12    13    1
   14    12    14    1
   15    10    15    1
   16    15    16    1
@<TRIPOS>SUBSTRUCTURE
       1 MOL1            1 RESIDUE      1      MOL     
@<SCITEGIC>MOL_PROPERTY
VConf Rank
SciTegic.value.IntegerValue
862

@<SCITEGIC>MOL_PROPERTY
Conf_Id
SciTegic.value.IntegerValue
59

@<SCITEGIC>MOL_PROPERTY
Delta U+W
SciTegic.value.DoubleValue
0.000

@<SCITEGIC>MOL_PROPERTY
U+W
SciTegic.value.DoubleValue
3.010

@<SCITEGIC>MOL_PROPERTY
Grad RMS
SciTegic.value.DoubleValue
0.000000

@<SCITEGIC>MOL_PROPERTY
U
SciTegic.value.DoubleValue
5.843

@<SCITEGIC>MOL_PROPERTY
W
SciTegic.value.DoubleValue
-2.833

@<SCITEGIC>MOL_PROPERTY
W(PB)
SciTegic.value.DoubleValue
-4.568

@<SCITEGIC>MOL_PROPERTY
W(SA)
SciTegic.value.DoubleValue
1.735

@<SCITEGIC>MOL_PROPERTY
Valence
SciTegic.value.DoubleValue
13.789

@<SCITEGIC>MOL_PROPERTY
Coulomb
SciTegic.value.DoubleValue
-8.574

@<SCITEGIC>MOL_PROPERTY
VdW
SciTegic.value.DoubleValue
0.628

@<SCITEGIC>MOL_PROPERTY
VdW6
SciTegic.value.DoubleValue
-3.284

@<SCITEGIC>MOL_PROPERTY
VdW12
SciTegic.value.DoubleValue
3.912

@<SCITEGIC>MOL_PROPERTY
Bond
SciTegic.value.DoubleValue
0.054

@<SCITEGIC>MOL_PROPERTY
Angle
SciTegic.value.DoubleValue
4.034

@<SCITEGIC>MOL_PROPERTY
Pdih
SciTegic.value.DoubleValue
9.702

@<SCITEGIC>MOL_PROPERTY
Idih
SciTegic.value.DoubleValue
0.000

@<SCITEGIC>MOL_PROPERTY
Tether
SciTegic.value.DoubleValue
0.000

@<TRIPOS>MOLECULE
guest-4_confgen4.mol2 : confsearch ligand conformer 863
          16          16           1
SMALL
USER_CHARGES
 
@<TRIPOS>ATOM
       1    C1      18.121072   18.123490   22.516454 C.3        1 MOL1        -0.1689
       2    H1      17.599920   17.380533   23.135465 H          1 MOL1         0.0830
       3    H2      17.365195   18.733111   22.002029 H          1 MOL1         0.0830
       4    C2      19.050879   17.473431   21.482719 C.3        1 MOL1        -0.1689
       5    H3      19.558573   16.610273   21.935360 H          1 MOL1         0.0830
       6    H4      18.510197   17.126326   20.591751 H          1 MOL1         0.0830
       7    C3      20.085107   18.565862   21.154018 C.3        1 MOL1        -0.1765
       8    H5      19.726500   19.171115   20.311312 H          1 MOL1         0.0830
       9    H6      21.052646   18.133244   20.866391 H          1 MOL1         0.0830
      10    C4      20.192762   19.460605   22.406073 C.3        1 MOL1         0.1214
      11    H7      20.065582   20.512869   22.112670 H          1 MOL1         0.0787
      12    C5      19.046430   19.032136   23.346325 C.3        1 MOL1        -0.1765
      13    H8      19.444842   18.464102   24.198022 H          1 MOL1         0.0830
      14    H9      18.504874   19.900219   23.743810 H          1 MOL1         0.0830
      15    O1      21.449565   19.263891   23.042977 O.3        1 MOL1        -0.5512
      16    H10     21.458475   19.844704   23.832981 H          1 MOL1         0.3776
@<TRIPOS>BOND
    1     1     2    1
    2     1     3    1
    3     1     4    1
    4     4     5    1
    5     4     6    1
    6     4     7    1
    7     7     8    1
    8     7     9    1
    9     7    10    1
   10    10    11    1
   11     1    12    1
   12    10    12    1
   13    12    13    1
   14    12    14    1
   15    10    15    1
   16    15    16    1
@<TRIPOS>SUBSTRUCTURE
       1 MOL1            1 RESIDUE      1      MOL     
@<SCITEGIC>MOL_PROPERTY
VConf Rank
SciTegic.value.IntegerValue
863

@<SCITEGIC>MOL_PROPERTY
Conf_Id
SciTegic.value.IntegerValue
33

@<SCITEGIC>MOL_PROPERTY
Delta U+W
SciTegic.value.DoubleValue
0.015

@<SCITEGIC>MOL_PROPERTY
U+W
SciTegic.value.DoubleValue
3.025

@<SCITEGIC>MOL_PROPERTY
Grad RMS
SciTegic.value.DoubleValue
0.000000

@<SCITEGIC>MOL_PROPERTY
U
SciTegic.value.DoubleValue
5.843

@<SCITEGIC>MOL_PROPERTY
W
SciTegic.value.DoubleValue
-2.819

@<SCITEGIC>MOL_PROPERTY
W(PB)
SciTegic.value.DoubleValue
-4.568

@<SCITEGIC>MOL_PROPERTY
W(SA)
SciTegic.value.DoubleValue
1.750

@<SCITEGIC>MOL_PROPERTY
Valence
SciTegic.value.DoubleValue
13.789

@<SCITEGIC>MOL_PROPERTY
Coulomb
SciTegic.value.DoubleValue
-8.574

@<SCITEGIC>MOL_PROPERTY
VdW
SciTegic.value.DoubleValue
0.628

@<SCITEGIC>MOL_PROPERTY
VdW6
SciTegic.value.DoubleValue
-3.284

@<SCITEGIC>MOL_PROPERTY
VdW12
SciTegic.value.DoubleValue
3.913

@<SCITEGIC>MOL_PROPERTY
Bond
SciTegic.value.DoubleValue
0.054

@<SCITEGIC>MOL_PROPERTY
Angle
SciTegic.value.DoubleValue
4.033

@<SCITEGIC>MOL_PROPERTY
Pdih
SciTegic.value.DoubleValue
9.702

@<SCITEGIC>MOL_PROPERTY
Idih
SciTegic.value.DoubleValue
0.000

@<SCITEGIC>MOL_PROPERTY
Tether
SciTegic.value.DoubleValue
0.000

@<TRIPOS>MOLECULE
guest-4_confgen4.mol2 : confsearch ligand conformer 864
          16          16           1
SMALL
USER_CHARGES
 
@<TRIPOS>ATOM
       1    C1      20.341931   18.632228   21.333048 C.3        1 MOL1        -0.1689
       2    H1      19.974823   18.626403   20.297469 H          1 MOL1         0.0830
       3    H2      21.439225   18.673176   21.297455 H          1 MOL1         0.0830
       4    C2      19.844425   17.371731   22.073762 C.3        1 MOL1        -0.1689
       5    H3      19.237429   16.755346   21.396375 H          1 MOL1         0.0830
       6    H4      20.681514   16.753807   22.426538 H          1 MOL1         0.0830
       7    C3      18.985383   17.869142   23.255737 C.3        1 MOL1        -0.1765
       8    H5      19.591428   17.878569   24.171292 H          1 MOL1         0.0830
       9    H6      18.114950   17.224789   23.437844 H          1 MOL1         0.0830
      10    C4      18.580895   19.308790   22.911067 C.3        1 MOL1         0.1214
      11    H7      18.408797   19.908498   23.816448 H          1 MOL1         0.0787
      12    C5      19.765846   19.844016   22.095972 C.3        1 MOL1        -0.1765
      13    H8      19.472284   20.659363   21.421410 H          1 MOL1         0.0830
      14    H9      20.524189   20.237623   22.785618 H          1 MOL1         0.0830
      15    O1      17.421699   19.285310   22.090994 O.3        1 MOL1        -0.5512
      16    H10     17.666935   18.734973   21.318886 H          1 MOL1         0.3776
@<TRIPOS>BOND
    1     1     2    1
    2     1     3    1
    3     1     4    1
    4     4     5    1
    5     4     6    1
    6     4     7    1
    7     7     8    1
    8     7     9    1
    9     7    10    1
   10    10    11    1
   11     1    12    1
   12    10    12    1
   13    12    13    1
   14    12    14    1
   15    10    15    1
   16    15    16    1
@<TRIPOS>SUBSTRUCTURE
       1 MOL1            1 RESIDUE      1      MOL     
@<SCITEGIC>MOL_PROPERTY
VConf Rank
SciTegic.value.IntegerValue
864

@<SCITEGIC>MOL_PROPERTY
Conf_Id
SciTegic.value.IntegerValue
20

@<SCITEGIC>MOL_PROPERTY
Delta U+W
SciTegic.value.DoubleValue
-0.483

@<SCITEGIC>MOL_PROPERTY
U+W
SciTegic.value.DoubleValue
2.527

@<SCITEGIC>MOL_PROPERTY
Grad RMS
SciTegic.value.DoubleValue
0.000000

@<SCITEGIC>MOL_PROPERTY
U
SciTegic.value.DoubleValue
4.508

@<SCITEGIC>MOL_PROPERTY
W
SciTegic.value.DoubleValue
-1.981

@<SCITEGIC>MOL_PROPERTY
W(PB)
SciTegic.value.DoubleValue
-3.712

@<SCITEGIC>MOL_PROPERTY
W(SA)
SciTegic.value.DoubleValue
1.732

@<SCITEGIC>MOL_PROPERTY
Valence
SciTegic.value.DoubleValue
14.705

@<SCITEGIC>MOL_PROPERTY
Coulomb
SciTegic.value.DoubleValue
-10.687

@<SCITEGIC>MOL_PROPERTY
VdW
SciTegic.value.DoubleValue
0.490

@<SCITEGIC>MOL_PROPERTY
VdW6
SciTegic.value.DoubleValue
-3.745

@<SCITEGIC>MOL_PROPERTY
VdW12
SciTegic.value.DoubleValue
4.235

@<SCITEGIC>MOL_PROPERTY
Bond
SciTegic.value.DoubleValue
0.068

@<SCITEGIC>MOL_PROPERTY
Angle
SciTegic.value.DoubleValue
3.901

@<SCITEGIC>MOL_PROPERTY
Pdih
SciTegic.value.DoubleValue
10.737

@<SCITEGIC>MOL_PROPERTY
Idih
SciTegic.value.DoubleValue
0.000

@<SCITEGIC>MOL_PROPERTY
Tether
SciTegic.value.DoubleValue
0.000

@<TRIPOS>MOLECULE
guest-4_confgen4.mol2 : confsearch ligand conformer 865
          16          16           1
SMALL
USER_CHARGES
 
@<TRIPOS>ATOM
       1    C1      18.717704   18.757747   21.024912 C.3        1 MOL1        -0.1689
       2    H1      17.873546   18.054241   21.012533 H          1 MOL1         0.0830
       3    H2      18.687928   19.347313   20.098537 H          1 MOL1         0.0830
       4    C2      20.032079   17.981232   21.183565 C.3        1 MOL1        -0.1689
       5    H3      20.039415   17.048836   20.602753 H          1 MOL1         0.0830
       6    H4      20.872221   18.603503   20.845090 H          1 MOL1         0.0830
       7    C3      20.147634   17.729052   22.698032 C.3        1 MOL1        -0.1765
       8    H5      21.196526   17.664172   23.014992 H          1 MOL1         0.0830
       9    H6      19.660712   16.775999   22.945785 H          1 MOL1         0.0830
      10    C4      19.417042   18.898735   23.390676 C.3        1 MOL1         0.1214
      11    H7      20.148524   19.585669   23.840759 H          1 MOL1         0.0787
      12    C5      18.636168   19.638870   22.285112 C.3        1 MOL1        -0.1765
      13    H8      17.595120   19.838277   22.572300 H          1 MOL1         0.0830
      14    H9      19.119667   20.605119   22.091018 H          1 MOL1         0.0830
      15    O1      18.519719   18.402145   24.376627 O.3        1 MOL1        -0.5512
      16    H10     19.065562   17.934623   25.043719 H          1 MOL1         0.3776
@<TRIPOS>BOND
    1     1     2    1
    2     1     3    1
    3     1     4    1
    4     4     5    1
    5     4     6    1
    6     4     7    1
    7     7     8    1
    8     7     9    1
    9     7    10    1
   10    10    11    1
   11     1    12    1
   12    10    12    1
   13    12    13    1
   14    12    14    1
   15    10    15    1
   16    15    16    1
@<TRIPOS>SUBSTRUCTURE
       1 MOL1            1 RESIDUE      1      MOL     
@<SCITEGIC>MOL_PROPERTY
VConf Rank
SciTegic.value.IntegerValue
865

@<SCITEGIC>MOL_PROPERTY
Conf_Id
SciTegic.value.IntegerValue
59

@<SCITEGIC>MOL_PROPERTY
Delta U+W
SciTegic.value.DoubleValue
0.000

@<SCITEGIC>MOL_PROPERTY
U+W
SciTegic.value.DoubleValue
3.010

@<SCITEGIC>MOL_PROPERTY
Grad RMS
SciTegic.value.DoubleValue
0.000000

@<SCITEGIC>MOL_PROPERTY
U
SciTegic.value.DoubleValue
5.843

@<SCITEGIC>MOL_PROPERTY
W
SciTegic.value.DoubleValue
-2.833

@<SCITEGIC>MOL_PROPERTY
W(PB)
SciTegic.value.DoubleValue
-4.568

@<SCITEGIC>MOL_PROPERTY
W(SA)
SciTegic.value.DoubleValue
1.735

@<SCITEGIC>MOL_PROPERTY
Valence
SciTegic.value.DoubleValue
13.789

@<SCITEGIC>MOL_PROPERTY
Coulomb
SciTegic.value.DoubleValue
-8.574

@<SCITEGIC>MOL_PROPERTY
VdW
SciTegic.value.DoubleValue
0.628

@<SCITEGIC>MOL_PROPERTY
VdW6
SciTegic.value.DoubleValue
-3.284

@<SCITEGIC>MOL_PROPERTY
VdW12
SciTegic.value.DoubleValue
3.912

@<SCITEGIC>MOL_PROPERTY
Bond
SciTegic.value.DoubleValue
0.054

@<SCITEGIC>MOL_PROPERTY
Angle
SciTegic.value.DoubleValue
4.034

@<SCITEGIC>MOL_PROPERTY
Pdih
SciTegic.value.DoubleValue
9.702

@<SCITEGIC>MOL_PROPERTY
Idih
SciTegic.value.DoubleValue
0.000

@<SCITEGIC>MOL_PROPERTY
Tether
SciTegic.value.DoubleValue
0.000

@<TRIPOS>MOLECULE
guest-4_confgen4.mol2 : confsearch ligand conformer 866
          16          16           1
SMALL
USER_CHARGES
 
@<TRIPOS>ATOM
       1    C1      19.260755   19.253977   23.562100 C.3        1 MOL1        -0.1689
       2    H1      18.503212   19.851218   24.087639 H          1 MOL1         0.0830
       3    H2      20.052323   18.995151   24.279074 H          1 MOL1         0.0830
       4    C2      19.869814   20.002588   22.368637 C.3        1 MOL1        -0.1689
       5    H3      19.083172   20.564533   21.846054 H          1 MOL1         0.0830
       6    H4      20.653689   20.709557   22.672574 H          1 MOL1         0.0830
       7    C3      20.406256   18.890035   21.449109 C.3        1 MOL1        -0.1765
       8    H5      21.446343   18.661365   21.715594 H          1 MOL1         0.0830
       9    H6      20.391289   19.195063   20.394238 H          1 MOL1         0.0830
      10    C4      19.534455   17.644559   21.710932 C.3        1 MOL1         0.1214
      11    H7      20.185211   16.783174   21.920817 H          1 MOL1         0.0787
      12    C5      18.672751   17.969728   22.949265 C.3        1 MOL1        -0.1765
      13    H8      17.631548   18.153271   22.650954 H          1 MOL1         0.0830
      14    H9      18.675821   17.142956   23.671266 H          1 MOL1         0.0830
      15    O1      18.701154   17.384137   20.587683 O.3        1 MOL1        -0.5512
      16    H10     18.164823   16.594599   20.812423 H          1 MOL1         0.3776
@<TRIPOS>BOND
    1     1     2    1
    2     1     3    1
    3     1     4    1
    4     4     5    1
    5     4     6    1
    6     4     7    1
    7     7     8    1
    8     7     9    1
    9     7    10    1
   10    10    11    1
   11     1    12    1
   12    10    12    1
   13    12    13    1
   14    12    14    1
   15    10    15    1
   16    15    16    1
@<TRIPOS>SUBSTRUCTURE
       1 MOL1            1 RESIDUE      1      MOL     
@<SCITEGIC>MOL_PROPERTY
VConf Rank
SciTegic.value.IntegerValue
866

@<SCITEGIC>MOL_PROPERTY
Conf_Id
SciTegic.value.IntegerValue
33

@<SCITEGIC>MOL_PROPERTY
Delta U+W
SciTegic.value.DoubleValue
0.015

@<SCITEGIC>MOL_PROPERTY
U+W
SciTegic.value.DoubleValue
3.025

@<SCITEGIC>MOL_PROPERTY
Grad RMS
SciTegic.value.DoubleValue
0.000000

@<SCITEGIC>MOL_PROPERTY
U
SciTegic.value.DoubleValue
5.843

@<SCITEGIC>MOL_PROPERTY
W
SciTegic.value.DoubleValue
-2.819

@<SCITEGIC>MOL_PROPERTY
W(PB)
SciTegic.value.DoubleValue
-4.568

@<SCITEGIC>MOL_PROPERTY
W(SA)
SciTegic.value.DoubleValue
1.750

@<SCITEGIC>MOL_PROPERTY
Valence
SciTegic.value.DoubleValue
13.789

@<SCITEGIC>MOL_PROPERTY
Coulomb
SciTegic.value.DoubleValue
-8.574

@<SCITEGIC>MOL_PROPERTY
VdW
SciTegic.value.DoubleValue
0.628

@<SCITEGIC>MOL_PROPERTY
VdW6
SciTegic.value.DoubleValue
-3.284

@<SCITEGIC>MOL_PROPERTY
VdW12
SciTegic.value.DoubleValue
3.913

@<SCITEGIC>MOL_PROPERTY
Bond
SciTegic.value.DoubleValue
0.054

@<SCITEGIC>MOL_PROPERTY
Angle
SciTegic.value.DoubleValue
4.033

@<SCITEGIC>MOL_PROPERTY
Pdih
SciTegic.value.DoubleValue
9.702

@<SCITEGIC>MOL_PROPERTY
Idih
SciTegic.value.DoubleValue
0.000

@<SCITEGIC>MOL_PROPERTY
Tether
SciTegic.value.DoubleValue
0.000

@<TRIPOS>MOLECULE
guest-4_confgen4.mol2 : confsearch ligand conformer 867
          16          16           1
SMALL
USER_CHARGES
 
@<TRIPOS>ATOM
       1    C1      18.689151   17.478507   22.086930 C.3        1 MOL1        -0.1689
       2    H1      19.090800   16.616859   22.637810 H          1 MOL1         0.0830
       3    H2      17.791965   17.141791   21.549642 H          1 MOL1         0.0830
       4    C2      19.758972   18.027311   21.117746 C.3        1 MOL1        -0.1689
       5    H3      20.678008   17.430628   21.198799 H          1 MOL1         0.0830
       6    H4      19.420993   17.978615   20.073525 H          1 MOL1         0.0830
       7    C3      20.030412   19.485297   21.545572 C.3        1 MOL1        -0.1765
       8    H5      19.447930   20.167811   20.912714 H          1 MOL1         0.0830
       9    H6      21.089358   19.758306   21.445047 H          1 MOL1         0.0830
      10    C4      19.534722   19.602869   22.993143 C.3        1 MOL1         0.1214
      11    H7      19.224804   20.630311   23.232510 H          1 MOL1         0.0787
      12    C5      18.353404   18.625868   23.063245 C.3        1 MOL1        -0.1765
      13    H8      18.172756   18.264159   24.084292 H          1 MOL1         0.0830
      14    H9      17.444340   19.140785   22.725480 H          1 MOL1         0.0830
      15    O1      20.557714   19.163827   23.874923 O.3        1 MOL1        -0.5512
      16    H10     20.766426   18.250819   23.588537 H          1 MOL1         0.3776
@<TRIPOS>BOND
    1     1     2    1
    2     1     3    1
    3     1     4    1
    4     4     5    1
    5     4     6    1
    6     4     7    1
    7     7     8    1
    8     7     9    1
    9     7    10    1
   10    10    11    1
   11     1    12    1
   12    10    12    1
   13    12    13    1
   14    12    14    1
   15    10    15    1
   16    15    16    1
@<TRIPOS>SUBSTRUCTURE
       1 MOL1            1 RESIDUE      1      MOL     
@<SCITEGIC>MOL_PROPERTY
VConf Rank
SciTegic.value.IntegerValue
867

@<SCITEGIC>MOL_PROPERTY
Conf_Id
SciTegic.value.IntegerValue
20

@<SCITEGIC>MOL_PROPERTY
Delta U+W
SciTegic.value.DoubleValue
-0.483

@<SCITEGIC>MOL_PROPERTY
U+W
SciTegic.value.DoubleValue
2.527

@<SCITEGIC>MOL_PROPERTY
Grad RMS
SciTegic.value.DoubleValue
0.000000

@<SCITEGIC>MOL_PROPERTY
U
SciTegic.value.DoubleValue
4.508

@<SCITEGIC>MOL_PROPERTY
W
SciTegic.value.DoubleValue
-1.981

@<SCITEGIC>MOL_PROPERTY
W(PB)
SciTegic.value.DoubleValue
-3.712

@<SCITEGIC>MOL_PROPERTY
W(SA)
SciTegic.value.DoubleValue
1.732

@<SCITEGIC>MOL_PROPERTY
Valence
SciTegic.value.DoubleValue
14.705

@<SCITEGIC>MOL_PROPERTY
Coulomb
SciTegic.value.DoubleValue
-10.687

@<SCITEGIC>MOL_PROPERTY
VdW
SciTegic.value.DoubleValue
0.490

@<SCITEGIC>MOL_PROPERTY
VdW6
SciTegic.value.DoubleValue
-3.745

@<SCITEGIC>MOL_PROPERTY
VdW12
SciTegic.value.DoubleValue
4.235

@<SCITEGIC>MOL_PROPERTY
Bond
SciTegic.value.DoubleValue
0.068

@<SCITEGIC>MOL_PROPERTY
Angle
SciTegic.value.DoubleValue
3.901

@<SCITEGIC>MOL_PROPERTY
Pdih
SciTegic.value.DoubleValue
10.737

@<SCITEGIC>MOL_PROPERTY
Idih
SciTegic.value.DoubleValue
0.000

@<SCITEGIC>MOL_PROPERTY
Tether
SciTegic.value.DoubleValue
0.000

@<TRIPOS>MOLECULE
guest-4_confgen4.mol2 : confsearch ligand conformer 868
          16          16           1
SMALL
USER_CHARGES
 
@<TRIPOS>ATOM
       1    C1      18.190476   17.926978   21.716575 C.3        1 MOL1        -0.1689
       2    H1      18.502150   16.896114   21.497813 H          1 MOL1         0.0830
       3    H2      17.130157   18.030075   21.448734 H          1 MOL1         0.0830
       4    C2      19.086907   18.909000   20.949913 C.3        1 MOL1        -0.1689
       5    H3      19.320146   18.557489   19.935615 H          1 MOL1         0.0830
       6    H4      18.583911   19.882686   20.868940 H          1 MOL1         0.0830
       7    C3      20.345087   19.043982   21.827022 C.3        1 MOL1        -0.1765
       8    H5      20.813545   20.029431   21.707504 H          1 MOL1         0.0830
       9    H6      21.079129   18.283034   21.528822 H          1 MOL1         0.0830
      10    C4      19.888664   18.805545   23.281844 C.3        1 MOL1         0.1214
      11    H7      19.873942   19.757440   23.832478 H          1 MOL1         0.0787
      12    C5      18.455021   18.241731   23.200514 C.3        1 MOL1        -0.1765
      13    H8      18.319857   17.353798   23.832438 H          1 MOL1         0.0830
      14    H9      17.748934   19.007898   23.546217 H          1 MOL1         0.0830
      15    O1      20.748945   17.868583   23.918953 O.3        1 MOL1        -0.5512
      16    H10     21.642695   18.271751   23.933027 H          1 MOL1         0.3776
@<TRIPOS>BOND
    1     1     2    1
    2     1     3    1
    3     1     4    1
    4     4     5    1
    5     4     6    1
    6     4     7    1
    7     7     8    1
    8     7     9    1
    9     7    10    1
   10    10    11    1
   11     1    12    1
   12    10    12    1
   13    12    13    1
   14    12    14    1
   15    10    15    1
   16    15    16    1
@<TRIPOS>SUBSTRUCTURE
       1 MOL1            1 RESIDUE      1      MOL     
@<SCITEGIC>MOL_PROPERTY
VConf Rank
SciTegic.value.IntegerValue
868

@<SCITEGIC>MOL_PROPERTY
Conf_Id
SciTegic.value.IntegerValue
59

@<SCITEGIC>MOL_PROPERTY
Delta U+W
SciTegic.value.DoubleValue
0.000

@<SCITEGIC>MOL_PROPERTY
U+W
SciTegic.value.DoubleValue
3.010

@<SCITEGIC>MOL_PROPERTY
Grad RMS
SciTegic.value.DoubleValue
0.000000

@<SCITEGIC>MOL_PROPERTY
U
SciTegic.value.DoubleValue
5.843

@<SCITEGIC>MOL_PROPERTY
W
SciTegic.value.DoubleValue
-2.833

@<SCITEGIC>MOL_PROPERTY
W(PB)
SciTegic.value.DoubleValue
-4.568

@<SCITEGIC>MOL_PROPERTY
W(SA)
SciTegic.value.DoubleValue
1.735

@<SCITEGIC>MOL_PROPERTY
Valence
SciTegic.value.DoubleValue
13.789

@<SCITEGIC>MOL_PROPERTY
Coulomb
SciTegic.value.DoubleValue
-8.574

@<SCITEGIC>MOL_PROPERTY
VdW
SciTegic.value.DoubleValue
0.628

@<SCITEGIC>MOL_PROPERTY
VdW6
SciTegic.value.DoubleValue
-3.284

@<SCITEGIC>MOL_PROPERTY
VdW12
SciTegic.value.DoubleValue
3.912

@<SCITEGIC>MOL_PROPERTY
Bond
SciTegic.value.DoubleValue
0.054

@<SCITEGIC>MOL_PROPERTY
Angle
SciTegic.value.DoubleValue
4.034

@<SCITEGIC>MOL_PROPERTY
Pdih
SciTegic.value.DoubleValue
9.702

@<SCITEGIC>MOL_PROPERTY
Idih
SciTegic.value.DoubleValue
0.000

@<SCITEGIC>MOL_PROPERTY
Tether
SciTegic.value.DoubleValue
0.000

@<TRIPOS>MOLECULE
guest-4_confgen4.mol2 : confsearch ligand conformer 869
          16          16           1
SMALL
USER_CHARGES
 
@<TRIPOS>ATOM
       1    C1      18.781009   19.122670   23.454181 C.3        1 MOL1        -0.1689
       2    H1      18.949394   19.226653   24.534733 H          1 MOL1         0.0830
       3    H2      17.867709   19.675666   23.193992 H          1 MOL1         0.0830
       4    C2      18.636915   17.656395   23.024061 C.3        1 MOL1        -0.1689
       5    H3      19.355094   17.037342   23.579642 H          1 MOL1         0.0830
       6    H4      17.628222   17.262345   23.208194 H          1 MOL1         0.0830
       7    C3      19.004153   17.655718   21.528664 C.3        1 MOL1        -0.1765
       8    H5      18.100954   17.822473   20.927408 H          1 MOL1         0.0830
       9    H6      19.438458   16.695633   21.219415 H          1 MOL1         0.0830
      10    C4      19.976056   18.834315   21.313929 C.3        1 MOL1         0.1214
      11    H7      19.616290   19.454589   20.480054 H          1 MOL1         0.0787
      12    C5      19.964547   19.651223   22.623229 C.3        1 MOL1        -0.1765
      13    H8      20.898524   19.492297   23.179297 H          1 MOL1         0.0830
      14    H9      19.868023   20.726835   22.426792 H          1 MOL1         0.0830
      15    O1      21.286642   18.347634   21.050490 O.3        1 MOL1        -0.5512
      16    H10     21.860626   19.134124   20.934278 H          1 MOL1         0.3776
@<TRIPOS>BOND
    1     1     2    1
    2     1     3    1
    3     1     4    1
    4     4     5    1
    5     4     6    1
    6     4     7    1
    7     7     8    1
    8     7     9    1
    9     7    10    1
   10    10    11    1
   11     1    12    1
   12    10    12    1
   13    12    13    1
   14    12    14    1
   15    10    15    1
   16    15    16    1
@<TRIPOS>SUBSTRUCTURE
       1 MOL1            1 RESIDUE      1      MOL     
@<SCITEGIC>MOL_PROPERTY
VConf Rank
SciTegic.value.IntegerValue
869

@<SCITEGIC>MOL_PROPERTY
Conf_Id
SciTegic.value.IntegerValue
33

@<SCITEGIC>MOL_PROPERTY
Delta U+W
SciTegic.value.DoubleValue
0.015

@<SCITEGIC>MOL_PROPERTY
U+W
SciTegic.value.DoubleValue
3.025

@<SCITEGIC>MOL_PROPERTY
Grad RMS
SciTegic.value.DoubleValue
0.000000

@<SCITEGIC>MOL_PROPERTY
U
SciTegic.value.DoubleValue
5.843

@<SCITEGIC>MOL_PROPERTY
W
SciTegic.value.DoubleValue
-2.819

@<SCITEGIC>MOL_PROPERTY
W(PB)
SciTegic.value.DoubleValue
-4.568

@<SCITEGIC>MOL_PROPERTY
W(SA)
SciTegic.value.DoubleValue
1.750

@<SCITEGIC>MOL_PROPERTY
Valence
SciTegic.value.DoubleValue
13.789

@<SCITEGIC>MOL_PROPERTY
Coulomb
SciTegic.value.DoubleValue
-8.574

@<SCITEGIC>MOL_PROPERTY
VdW
SciTegic.value.DoubleValue
0.628

@<SCITEGIC>MOL_PROPERTY
VdW6
SciTegic.value.DoubleValue
-3.284

@<SCITEGIC>MOL_PROPERTY
VdW12
SciTegic.value.DoubleValue
3.913

@<SCITEGIC>MOL_PROPERTY
Bond
SciTegic.value.DoubleValue
0.054

@<SCITEGIC>MOL_PROPERTY
Angle
SciTegic.value.DoubleValue
4.033

@<SCITEGIC>MOL_PROPERTY
Pdih
SciTegic.value.DoubleValue
9.702

@<SCITEGIC>MOL_PROPERTY
Idih
SciTegic.value.DoubleValue
0.000

@<SCITEGIC>MOL_PROPERTY
Tether
SciTegic.value.DoubleValue
0.000

@<TRIPOS>MOLECULE
guest-4_confgen4.mol2 : confsearch ligand conformer 870
          16          16           1
SMALL
USER_CHARGES
 
@<TRIPOS>ATOM
       1    C1      19.298833   17.828493   21.177598 C.3        1 MOL1        -0.1689
       2    H1      19.151502   18.373545   20.235028 H          1 MOL1         0.0830
       3    H2      19.356256   16.757838   20.938021 H          1 MOL1         0.0830
       4    C2      18.135630   18.131882   22.147101 C.3        1 MOL1        -0.1689
       5    H3      17.424810   18.822918   21.673360 H          1 MOL1         0.0830
       6    H4      17.585189   17.219749   22.415482 H          1 MOL1         0.0830
       7    C3      18.765326   18.787167   23.394707 C.3        1 MOL1        -0.1765
       8    H5      18.905323   18.028744   24.176254 H          1 MOL1         0.0830
       9    H6      18.133163   19.582948   23.810770 H          1 MOL1         0.0830
      10    C4      20.139892   19.307650   22.953504 C.3        1 MOL1         0.1214
      11    H7      20.848536   19.341224   23.793552 H          1 MOL1         0.0787
      12    C5      20.587881   18.310721   21.876288 C.3        1 MOL1        -0.1765
      13    H8      21.302906   18.754243   21.170573 H          1 MOL1         0.0830
      14    H9      21.082398   17.459203   22.362077 H          1 MOL1         0.0830
      15    O1      19.987542   20.592269   22.367546 O.3        1 MOL1        -0.5512
      16    H10     19.346565   20.465169   21.638055 H          1 MOL1         0.3776
@<TRIPOS>BOND
    1     1     2    1
    2     1     3    1
    3     1     4    1
    4     4     5    1
    5     4     6    1
    6     4     7    1
    7     7     8    1
    8     7     9    1
    9     7    10    1
   10    10    11    1
   11     1    12    1
   12    10    12    1
   13    12    13    1
   14    12    14    1
   15    10    15    1
   16    15    16    1
@<TRIPOS>SUBSTRUCTURE
       1 MOL1            1 RESIDUE      1      MOL     
@<SCITEGIC>MOL_PROPERTY
VConf Rank
SciTegic.value.IntegerValue
870

@<SCITEGIC>MOL_PROPERTY
Conf_Id
SciTegic.value.IntegerValue
20

@<SCITEGIC>MOL_PROPERTY
Delta U+W
SciTegic.value.DoubleValue
-0.483

@<SCITEGIC>MOL_PROPERTY
U+W
SciTegic.value.DoubleValue
2.527

@<SCITEGIC>MOL_PROPERTY
Grad RMS
SciTegic.value.DoubleValue
0.000000

@<SCITEGIC>MOL_PROPERTY
U
SciTegic.value.DoubleValue
4.508

@<SCITEGIC>MOL_PROPERTY
W
SciTegic.value.DoubleValue
-1.981

@<SCITEGIC>MOL_PROPERTY
W(PB)
SciTegic.value.DoubleValue
-3.712

@<SCITEGIC>MOL_PROPERTY
W(SA)
SciTegic.value.DoubleValue
1.732

@<SCITEGIC>MOL_PROPERTY
Valence
SciTegic.value.DoubleValue
14.705

@<SCITEGIC>MOL_PROPERTY
Coulomb
SciTegic.value.DoubleValue
-10.687

@<SCITEGIC>MOL_PROPERTY
VdW
SciTegic.value.DoubleValue
0.490

@<SCITEGIC>MOL_PROPERTY
VdW6
SciTegic.value.DoubleValue
-3.745

@<SCITEGIC>MOL_PROPERTY
VdW12
SciTegic.value.DoubleValue
4.235

@<SCITEGIC>MOL_PROPERTY
Bond
SciTegic.value.DoubleValue
0.068

@<SCITEGIC>MOL_PROPERTY
Angle
SciTegic.value.DoubleValue
3.901

@<SCITEGIC>MOL_PROPERTY
Pdih
SciTegic.value.DoubleValue
10.737

@<SCITEGIC>MOL_PROPERTY
Idih
SciTegic.value.DoubleValue
0.000

@<SCITEGIC>MOL_PROPERTY
Tether
SciTegic.value.DoubleValue
0.000

@<TRIPOS>MOLECULE
guest-4_confgen4.mol2 : confsearch ligand conformer 871
          16          16           1
SMALL
USER_CHARGES
 
@<TRIPOS>ATOM
       1    C1      18.371562   17.699639   21.673552 C.3        1 MOL1        -0.1689
       2    H1      18.652768   16.676604   21.959907 H          1 MOL1         0.0830
       3    H2      17.447369   17.649650   21.081934 H          1 MOL1         0.0830
       4    C2      19.526374   18.353792   20.902695 C.3        1 MOL1        -0.1689
       5    H3      20.018270   17.653938   20.213491 H          1 MOL1         0.0830
       6    H4      19.146112   19.202443   20.317189 H          1 MOL1         0.0830
       7    C3      20.479285   18.863014   21.999604 C.3        1 MOL1        -0.1765
       8    H5      21.037084   19.748013   21.667214 H          1 MOL1         0.0830
       9    H6      21.207198   18.076809   22.242108 H          1 MOL1         0.0830
      10    C4      19.600052   19.175300   23.228875 C.3        1 MOL1         0.1214
      11    H7      19.498624   20.263405   23.352401 H          1 MOL1         0.0787
      12    C5      18.213802   18.564101   22.938047 C.3        1 MOL1        -0.1765
      13    H8      17.831256   17.977261   23.783801 H          1 MOL1         0.0830
      14    H9      17.499035   19.374292   22.743679 H          1 MOL1         0.0830
      15    O1      20.160924   18.586178   24.396029 O.3        1 MOL1        -0.5512
      16    H10     21.039852   19.001095   24.525883 H          1 MOL1         0.3776
@<TRIPOS>BOND
    1     1     2    1
    2     1     3    1
    3     1     4    1
    4     4     5    1
    5     4     6    1
    6     4     7    1
    7     7     8    1
    8     7     9    1
    9     7    10    1
   10    10    11    1
   11     1    12    1
   12    10    12    1
   13    12    13    1
   14    12    14    1
   15    10    15    1
   16    15    16    1
@<TRIPOS>SUBSTRUCTURE
       1 MOL1            1 RESIDUE      1      MOL     
@<SCITEGIC>MOL_PROPERTY
VConf Rank
SciTegic.value.IntegerValue
871

@<SCITEGIC>MOL_PROPERTY
Conf_Id
SciTegic.value.IntegerValue
59

@<SCITEGIC>MOL_PROPERTY
Delta U+W
SciTegic.value.DoubleValue
0.000

@<SCITEGIC>MOL_PROPERTY
U+W
SciTegic.value.DoubleValue
3.010

@<SCITEGIC>MOL_PROPERTY
Grad RMS
SciTegic.value.DoubleValue
0.000000

@<SCITEGIC>MOL_PROPERTY
U
SciTegic.value.DoubleValue
5.843

@<SCITEGIC>MOL_PROPERTY
W
SciTegic.value.DoubleValue
-2.833

@<SCITEGIC>MOL_PROPERTY
W(PB)
SciTegic.value.DoubleValue
-4.568

@<SCITEGIC>MOL_PROPERTY
W(SA)
SciTegic.value.DoubleValue
1.735

@<SCITEGIC>MOL_PROPERTY
Valence
SciTegic.value.DoubleValue
13.789

@<SCITEGIC>MOL_PROPERTY
Coulomb
SciTegic.value.DoubleValue
-8.574

@<SCITEGIC>MOL_PROPERTY
VdW
SciTegic.value.DoubleValue
0.628

@<SCITEGIC>MOL_PROPERTY
VdW6
SciTegic.value.DoubleValue
-3.284

@<SCITEGIC>MOL_PROPERTY
VdW12
SciTegic.value.DoubleValue
3.912

@<SCITEGIC>MOL_PROPERTY
Bond
SciTegic.value.DoubleValue
0.054

@<SCITEGIC>MOL_PROPERTY
Angle
SciTegic.value.DoubleValue
4.034

@<SCITEGIC>MOL_PROPERTY
Pdih
SciTegic.value.DoubleValue
9.702

@<SCITEGIC>MOL_PROPERTY
Idih
SciTegic.value.DoubleValue
0.000

@<SCITEGIC>MOL_PROPERTY
Tether
SciTegic.value.DoubleValue
0.000

@<TRIPOS>MOLECULE
guest-4_confgen4.mol2 : confsearch ligand conformer 872
          16          16           1
SMALL
USER_CHARGES
 
@<TRIPOS>ATOM
       1    C1      20.349860   19.661880   22.683212 C.3        1 MOL1        -0.1689
       2    H1      20.334533   20.603048   23.249541 H          1 MOL1         0.0830
       3    H2      21.395357   19.420881   22.445566 H          1 MOL1         0.0830
       4    C2      19.532197   19.746881   21.387091 C.3        1 MOL1        -0.1689
       5    H3      18.612652   20.320581   21.568704 H          1 MOL1         0.0830
       6    H4      20.086121   20.233327   20.572732 H          1 MOL1         0.0830
       7    C3      19.172409   18.285388   21.062029 C.3        1 MOL1        -0.1765
       8    H5      19.953949   17.845643   20.428860 H          1 MOL1         0.0830
       9    H6      18.221884   18.214708   20.516570 H          1 MOL1         0.0830
      10    C4      19.132595   17.532463   22.407881 C.3        1 MOL1         0.1214
      11    H7      19.758964   16.631140   22.338607 H          1 MOL1         0.0787
      12    C5      19.711425   18.498140   23.463418 C.3        1 MOL1        -0.1765
      13    H8      18.908478   18.887523   24.104073 H          1 MOL1         0.0830
      14    H9      20.444913   17.997790   24.108780 H          1 MOL1         0.0830
      15    O1      17.792084   17.189775   22.738780 O.3        1 MOL1        -0.5512
      16    H10     17.825194   16.726743   23.602513 H          1 MOL1         0.3776
@<TRIPOS>BOND
    1     1     2    1
    2     1     3    1
    3     1     4    1
    4     4     5    1
    5     4     6    1
    6     4     7    1
    7     7     8    1
    8     7     9    1
    9     7    10    1
   10    10    11    1
   11     1    12    1
   12    10    12    1
   13    12    13    1
   14    12    14    1
   15    10    15    1
   16    15    16    1
@<TRIPOS>SUBSTRUCTURE
       1 MOL1            1 RESIDUE      1      MOL     
@<SCITEGIC>MOL_PROPERTY
VConf Rank
SciTegic.value.IntegerValue
872

@<SCITEGIC>MOL_PROPERTY
Conf_Id
SciTegic.value.IntegerValue
33

@<SCITEGIC>MOL_PROPERTY
Delta U+W
SciTegic.value.DoubleValue
0.015

@<SCITEGIC>MOL_PROPERTY
U+W
SciTegic.value.DoubleValue
3.025

@<SCITEGIC>MOL_PROPERTY
Grad RMS
SciTegic.value.DoubleValue
0.000000

@<SCITEGIC>MOL_PROPERTY
U
SciTegic.value.DoubleValue
5.843

@<SCITEGIC>MOL_PROPERTY
W
SciTegic.value.DoubleValue
-2.819

@<SCITEGIC>MOL_PROPERTY
W(PB)
SciTegic.value.DoubleValue
-4.568

@<SCITEGIC>MOL_PROPERTY
W(SA)
SciTegic.value.DoubleValue
1.750

@<SCITEGIC>MOL_PROPERTY
Valence
SciTegic.value.DoubleValue
13.789

@<SCITEGIC>MOL_PROPERTY
Coulomb
SciTegic.value.DoubleValue
-8.574

@<SCITEGIC>MOL_PROPERTY
VdW
SciTegic.value.DoubleValue
0.628

@<SCITEGIC>MOL_PROPERTY
VdW6
SciTegic.value.DoubleValue
-3.284

@<SCITEGIC>MOL_PROPERTY
VdW12
SciTegic.value.DoubleValue
3.913

@<SCITEGIC>MOL_PROPERTY
Bond
SciTegic.value.DoubleValue
0.054

@<SCITEGIC>MOL_PROPERTY
Angle
SciTegic.value.DoubleValue
4.033

@<SCITEGIC>MOL_PROPERTY
Pdih
SciTegic.value.DoubleValue
9.702

@<SCITEGIC>MOL_PROPERTY
Idih
SciTegic.value.DoubleValue
0.000

@<SCITEGIC>MOL_PROPERTY
Tether
SciTegic.value.DoubleValue
0.000

@<TRIPOS>MOLECULE
guest-4_confgen4.mol2 : confsearch ligand conformer 873
          16          16           1
SMALL
USER_CHARGES
 
@<TRIPOS>ATOM
       1    C1      18.766499   19.706820   21.801794 C.3        1 MOL1        -0.1689
       2    H1      18.040485   20.143743   22.501244 H          1 MOL1         0.0830
       3    H2      18.785999   20.339068   20.903529 H          1 MOL1         0.0830
       4    C2      18.363237   18.254505   21.465372 C.3        1 MOL1        -0.1689
       5    H3      17.441493   17.988905   22.001163 H          1 MOL1         0.0830
       6    H4      18.172772   18.126800   20.390935 H          1 MOL1         0.0830
       7    C3      19.528963   17.357185   21.932637 C.3        1 MOL1        -0.1765
       8    H5      20.177662   17.123866   21.078019 H          1 MOL1         0.0830
       9    H6      19.178561   16.406209   22.355565 H          1 MOL1         0.0830
      10    C4      20.323661   18.187745   22.949308 C.3        1 MOL1         0.1214
      11    H7      21.380847   17.887019   22.979357 H          1 MOL1         0.0787
      12    C5      20.161298   19.632668   22.458600 C.3        1 MOL1        -0.1765
      13    H8      20.278661   20.363242   23.270075 H          1 MOL1         0.0830
      14    H9      20.932810   19.842441   21.706013 H          1 MOL1         0.0830
      15    O1      19.723565   18.058504   24.229928 O.3        1 MOL1        -0.5512
      16    H10     18.795237   18.345043   24.106376 H          1 MOL1         0.3776
@<TRIPOS>BOND
    1     1     2    1
    2     1     3    1
    3     1     4    1
    4     4     5    1
    5     4     6    1
    6     4     7    1
    7     7     8    1
    8     7     9    1
    9     7    10    1
   10    10    11    1
   11     1    12    1
   12    10    12    1
   13    12    13    1
   14    12    14    1
   15    10    15    1
   16    15    16    1
@<TRIPOS>SUBSTRUCTURE
       1 MOL1            1 RESIDUE      1      MOL     
@<SCITEGIC>MOL_PROPERTY
VConf Rank
SciTegic.value.IntegerValue
873

@<SCITEGIC>MOL_PROPERTY
Conf_Id
SciTegic.value.IntegerValue
20

@<SCITEGIC>MOL_PROPERTY
Delta U+W
SciTegic.value.DoubleValue
-0.483

@<SCITEGIC>MOL_PROPERTY
U+W
SciTegic.value.DoubleValue
2.527

@<SCITEGIC>MOL_PROPERTY
Grad RMS
SciTegic.value.DoubleValue
0.000000

@<SCITEGIC>MOL_PROPERTY
U
SciTegic.value.DoubleValue
4.508

@<SCITEGIC>MOL_PROPERTY
W
SciTegic.value.DoubleValue
-1.981

@<SCITEGIC>MOL_PROPERTY
W(PB)
SciTegic.value.DoubleValue
-3.712

@<SCITEGIC>MOL_PROPERTY
W(SA)
SciTegic.value.DoubleValue
1.732

@<SCITEGIC>MOL_PROPERTY
Valence
SciTegic.value.DoubleValue
14.705

@<SCITEGIC>MOL_PROPERTY
Coulomb
SciTegic.value.DoubleValue
-10.687

@<SCITEGIC>MOL_PROPERTY
VdW
SciTegic.value.DoubleValue
0.490

@<SCITEGIC>MOL_PROPERTY
VdW6
SciTegic.value.DoubleValue
-3.745

@<SCITEGIC>MOL_PROPERTY
VdW12
SciTegic.value.DoubleValue
4.235

@<SCITEGIC>MOL_PROPERTY
Bond
SciTegic.value.DoubleValue
0.068

@<SCITEGIC>MOL_PROPERTY
Angle
SciTegic.value.DoubleValue
3.901

@<SCITEGIC>MOL_PROPERTY
Pdih
SciTegic.value.DoubleValue
10.737

@<SCITEGIC>MOL_PROPERTY
Idih
SciTegic.value.DoubleValue
0.000

@<SCITEGIC>MOL_PROPERTY
Tether
SciTegic.value.DoubleValue
0.000

@<TRIPOS>MOLECULE
guest-4_confgen4.mol2 : confsearch ligand conformer 874
          16          16           1
SMALL
USER_CHARGES
 
@<TRIPOS>ATOM
       1    C1      20.345151   19.353608   23.021414 C.3        1 MOL1        -0.1689
       2    H1      19.866815   19.617563   23.974934 H          1 MOL1         0.0830
       3    H2      21.369584   19.749995   23.029002 H          1 MOL1         0.0830
       4    C2      19.511352   19.906317   21.857361 C.3        1 MOL1        -0.1689
       5    H3      19.110899   20.907256   22.068358 H          1 MOL1         0.0830
       6    H4      20.133693   19.968677   20.953796 H          1 MOL1         0.0830
       7    C3      18.399171   18.861448   21.652771 C.3        1 MOL1        -0.1765
       8    H5      18.063944   18.831775   20.607980 H          1 MOL1         0.0830
       9    H6      17.534462   19.124318   22.277240 H          1 MOL1         0.0830
      10    C4      18.988246   17.506365   22.098215 C.3        1 MOL1         0.1214
      11    H7      19.203367   16.882133   21.218684 H          1 MOL1         0.0787
      12    C5      20.307517   17.826025   22.831138 C.3        1 MOL1        -0.1765
      13    H8      20.390416   17.297045   23.789955 H          1 MOL1         0.0830
      14    H9      21.151186   17.512088   22.202848 H          1 MOL1         0.0830
      15    O1      18.086644   16.844259   22.977201 O.3        1 MOL1        -0.5512
      16    H10     17.267118   16.676663   22.465516 H          1 MOL1         0.3776
@<TRIPOS>BOND
    1     1     2    1
    2     1     3    1
    3     1     4    1
    4     4     5    1
    5     4     6    1
    6     4     7    1
    7     7     8    1
    8     7     9    1
    9     7    10    1
   10    10    11    1
   11     1    12    1
   12    10    12    1
   13    12    13    1
   14    12    14    1
   15    10    15    1
   16    15    16    1
@<TRIPOS>SUBSTRUCTURE
       1 MOL1            1 RESIDUE      1      MOL     
@<SCITEGIC>MOL_PROPERTY
VConf Rank
SciTegic.value.IntegerValue
874

@<SCITEGIC>MOL_PROPERTY
Conf_Id
SciTegic.value.IntegerValue
59

@<SCITEGIC>MOL_PROPERTY
Delta U+W
SciTegic.value.DoubleValue
0.000

@<SCITEGIC>MOL_PROPERTY
U+W
SciTegic.value.DoubleValue
3.010

@<SCITEGIC>MOL_PROPERTY
Grad RMS
SciTegic.value.DoubleValue
0.000000

@<SCITEGIC>MOL_PROPERTY
U
SciTegic.value.DoubleValue
5.843

@<SCITEGIC>MOL_PROPERTY
W
SciTegic.value.DoubleValue
-2.833

@<SCITEGIC>MOL_PROPERTY
W(PB)
SciTegic.value.DoubleValue
-4.568

@<SCITEGIC>MOL_PROPERTY
W(SA)
SciTegic.value.DoubleValue
1.735

@<SCITEGIC>MOL_PROPERTY
Valence
SciTegic.value.DoubleValue
13.789

@<SCITEGIC>MOL_PROPERTY
Coulomb
SciTegic.value.DoubleValue
-8.574

@<SCITEGIC>MOL_PROPERTY
VdW
SciTegic.value.DoubleValue
0.628

@<SCITEGIC>MOL_PROPERTY
VdW6
SciTegic.value.DoubleValue
-3.284

@<SCITEGIC>MOL_PROPERTY
VdW12
SciTegic.value.DoubleValue
3.912

@<SCITEGIC>MOL_PROPERTY
Bond
SciTegic.value.DoubleValue
0.054

@<SCITEGIC>MOL_PROPERTY
Angle
SciTegic.value.DoubleValue
4.034

@<SCITEGIC>MOL_PROPERTY
Pdih
SciTegic.value.DoubleValue
9.702

@<SCITEGIC>MOL_PROPERTY
Idih
SciTegic.value.DoubleValue
0.000

@<SCITEGIC>MOL_PROPERTY
Tether
SciTegic.value.DoubleValue
0.000

@<TRIPOS>MOLECULE
guest-4_confgen4.mol2 : confsearch ligand conformer 875
          16          16           1
SMALL
USER_CHARGES
 
@<TRIPOS>ATOM
       1    C1      18.620644   19.199572   21.280279 C.3        1 MOL1        -0.1689
       2    H1      17.660739   19.726651   21.193506 H          1 MOL1         0.0830
       3    H2      19.124020   19.239545   20.304248 H          1 MOL1         0.0830
       4    C2      18.446816   17.736994   21.711992 C.3        1 MOL1        -0.1689
       5    H3      17.656364   17.668917   22.472406 H          1 MOL1         0.0830
       6    H4      18.175047   17.081511   20.873466 H          1 MOL1         0.0830
       7    C3      19.800507   17.357199   22.339967 C.3        1 MOL1        -0.1765
       8    H5      20.464725   16.951172   21.565989 H          1 MOL1         0.0830
       9    H6      19.684724   16.589570   23.116729 H          1 MOL1         0.0830
      10    C4      20.410560   18.661954   22.892459 C.3        1 MOL1         0.1214
      11    H7      21.438474   18.770026   22.516650 H          1 MOL1         0.0787
      12    C5      19.530080   19.812580   22.360907 C.3        1 MOL1        -0.1765
      13    H8      18.908836   20.221302   23.169476 H          1 MOL1         0.0830
      14    H9      20.138078   20.631833   21.955925 H          1 MOL1         0.0830
      15    O1      20.393459   18.647594   24.314921 O.3        1 MOL1        -0.5512
      16    H10     20.779542   19.499492   24.609436 H          1 MOL1         0.3776
@<TRIPOS>BOND
    1     1     2    1
    2     1     3    1
    3     1     4    1
    4     4     5    1
    5     4     6    1
    6     4     7    1
    7     7     8    1
    8     7     9    1
    9     7    10    1
   10    10    11    1
   11     1    12    1
   12    10    12    1
   13    12    13    1
   14    12    14    1
   15    10    15    1
   16    15    16    1
@<TRIPOS>SUBSTRUCTURE
       1 MOL1            1 RESIDUE      1      MOL     
@<SCITEGIC>MOL_PROPERTY
VConf Rank
SciTegic.value.IntegerValue
875

@<SCITEGIC>MOL_PROPERTY
Conf_Id
SciTegic.value.IntegerValue
33

@<SCITEGIC>MOL_PROPERTY
Delta U+W
SciTegic.value.DoubleValue
0.015

@<SCITEGIC>MOL_PROPERTY
U+W
SciTegic.value.DoubleValue
3.025

@<SCITEGIC>MOL_PROPERTY
Grad RMS
SciTegic.value.DoubleValue
0.000000

@<SCITEGIC>MOL_PROPERTY
U
SciTegic.value.DoubleValue
5.843

@<SCITEGIC>MOL_PROPERTY
W
SciTegic.value.DoubleValue
-2.819

@<SCITEGIC>MOL_PROPERTY
W(PB)
SciTegic.value.DoubleValue
-4.568

@<SCITEGIC>MOL_PROPERTY
W(SA)
SciTegic.value.DoubleValue
1.750

@<SCITEGIC>MOL_PROPERTY
Valence
SciTegic.value.DoubleValue
13.789

@<SCITEGIC>MOL_PROPERTY
Coulomb
SciTegic.value.DoubleValue
-8.574

@<SCITEGIC>MOL_PROPERTY
VdW
SciTegic.value.DoubleValue
0.628

@<SCITEGIC>MOL_PROPERTY
VdW6
SciTegic.value.DoubleValue
-3.284

@<SCITEGIC>MOL_PROPERTY
VdW12
SciTegic.value.DoubleValue
3.913

@<SCITEGIC>MOL_PROPERTY
Bond
SciTegic.value.DoubleValue
0.054

@<SCITEGIC>MOL_PROPERTY
Angle
SciTegic.value.DoubleValue
4.033

@<SCITEGIC>MOL_PROPERTY
Pdih
SciTegic.value.DoubleValue
9.702

@<SCITEGIC>MOL_PROPERTY
Idih
SciTegic.value.DoubleValue
0.000

@<SCITEGIC>MOL_PROPERTY
Tether
SciTegic.value.DoubleValue
0.000

@<TRIPOS>MOLECULE
guest-4_confgen4.mol2 : confsearch ligand conformer 876
          16          16           1
SMALL
USER_CHARGES
 
@<TRIPOS>ATOM
       1    C1      19.161085   19.602376   21.390101 C.3        1 MOL1        -0.1689
       2    H1      19.988140   19.778451   20.688528 H          1 MOL1         0.0830
       3    H2      18.360579   20.314519   21.147124 H          1 MOL1         0.0830
       4    C2      19.657169   19.779271   22.841870 C.3        1 MOL1        -0.1689
       5    H3      20.724035   20.041993   22.842873 H          1 MOL1         0.0830
       6    H4      19.115441   20.583301   23.358655 H          1 MOL1         0.0830
       7    C3      19.441394   18.423000   23.546431 C.3        1 MOL1        -0.1765
       8    H5      18.502560   18.450321   24.115170 H          1 MOL1         0.0830
       9    H6      20.251072   18.185628   24.249340 H          1 MOL1         0.0830
      10    C4      19.316866   17.378533   22.429035 C.3        1 MOL1         0.1214
      11    H7      18.704285   16.521141   22.743051 H          1 MOL1         0.0787
      12    C5      18.663030   18.146212   21.272263 C.3        1 MOL1        -0.1765
      13    H8      18.897092   17.704035   20.294664 H          1 MOL1         0.0830
      14    H9      17.572591   18.120117   21.398298 H          1 MOL1         0.0830
      15    O1      20.614826   16.956986   22.036092 O.3        1 MOL1        -0.5512
      16    H10     21.081588   17.777879   21.776420 H          1 MOL1         0.3776
@<TRIPOS>BOND
    1     1     2    1
    2     1     3    1
    3     1     4    1
    4     4     5    1
    5     4     6    1
    6     4     7    1
    7     7     8    1
    8     7     9    1
    9     7    10    1
   10    10    11    1
   11     1    12    1
   12    10    12    1
   13    12    13    1
   14    12    14    1
   15    10    15    1
   16    15    16    1
@<TRIPOS>SUBSTRUCTURE
       1 MOL1            1 RESIDUE      1      MOL     
@<SCITEGIC>MOL_PROPERTY
VConf Rank
SciTegic.value.IntegerValue
876

@<SCITEGIC>MOL_PROPERTY
Conf_Id
SciTegic.value.IntegerValue
20

@<SCITEGIC>MOL_PROPERTY
Delta U+W
SciTegic.value.DoubleValue
-0.483

@<SCITEGIC>MOL_PROPERTY
U+W
SciTegic.value.DoubleValue
2.527

@<SCITEGIC>MOL_PROPERTY
Grad RMS
SciTegic.value.DoubleValue
0.000000

@<SCITEGIC>MOL_PROPERTY
U
SciTegic.value.DoubleValue
4.508

@<SCITEGIC>MOL_PROPERTY
W
SciTegic.value.DoubleValue
-1.981

@<SCITEGIC>MOL_PROPERTY
W(PB)
SciTegic.value.DoubleValue
-3.712

@<SCITEGIC>MOL_PROPERTY
W(SA)
SciTegic.value.DoubleValue
1.732

@<SCITEGIC>MOL_PROPERTY
Valence
SciTegic.value.DoubleValue
14.705

@<SCITEGIC>MOL_PROPERTY
Coulomb
SciTegic.value.DoubleValue
-10.687

@<SCITEGIC>MOL_PROPERTY
VdW
SciTegic.value.DoubleValue
0.490

@<SCITEGIC>MOL_PROPERTY
VdW6
SciTegic.value.DoubleValue
-3.745

@<SCITEGIC>MOL_PROPERTY
VdW12
SciTegic.value.DoubleValue
4.235

@<SCITEGIC>MOL_PROPERTY
Bond
SciTegic.value.DoubleValue
0.068

@<SCITEGIC>MOL_PROPERTY
Angle
SciTegic.value.DoubleValue
3.901

@<SCITEGIC>MOL_PROPERTY
Pdih
SciTegic.value.DoubleValue
10.737

@<SCITEGIC>MOL_PROPERTY
Idih
SciTegic.value.DoubleValue
0.000

@<SCITEGIC>MOL_PROPERTY
Tether
SciTegic.value.DoubleValue
0.000

@<TRIPOS>MOLECULE
guest-4_confgen4.mol2 : confsearch ligand conformer 877
          16          16           1
SMALL
USER_CHARGES
 
@<TRIPOS>ATOM
       1    C1      18.429914   18.561611   23.433138 C.3        1 MOL1        -0.1689
       2    H1      18.994622   18.999646   24.267949 H          1 MOL1         0.0830
       3    H2      17.403546   18.370480   23.774724 H          1 MOL1         0.0830
       4    C2      19.133678   17.286391   22.949136 C.3        1 MOL1        -0.1689
       5    H3      19.533006   16.688481   23.779678 H          1 MOL1         0.0830
       6    H4      18.424135   16.663188   22.387180 H          1 MOL1         0.0830
       7    C3      20.240813   17.793832   22.007164 C.3        1 MOL1        -0.1765
       8    H5      20.471879   17.057609   21.226503 H          1 MOL1         0.0830
       9    H6      21.157500   17.970700   22.586118 H          1 MOL1         0.0830
      10    C4      19.725609   19.117576   21.403885 C.3        1 MOL1         0.1214
      11    H7      19.437242   18.965439   20.353543 H          1 MOL1         0.0787
      12    C5      18.478966   19.511954   22.222531 C.3        1 MOL1        -0.1765
      13    H8      18.501576   20.564386   22.535415 H          1 MOL1         0.0830
      14    H9      17.583852   19.366978   21.603794 H          1 MOL1         0.0830
      15    O1      20.722498   20.126823   21.511209 O.3        1 MOL1        -0.5512
      16    H10     21.490729   19.820440   20.984443 H          1 MOL1         0.3776
@<TRIPOS>BOND
    1     1     2    1
    2     1     3    1
    3     1     4    1
    4     4     5    1
    5     4     6    1
    6     4     7    1
    7     7     8    1
    8     7     9    1
    9     7    10    1
   10    10    11    1
   11     1    12    1
   12    10    12    1
   13    12    13    1
   14    12    14    1
   15    10    15    1
   16    15    16    1
@<TRIPOS>SUBSTRUCTURE
       1 MOL1            1 RESIDUE      1      MOL     
@<SCITEGIC>MOL_PROPERTY
VConf Rank
SciTegic.value.IntegerValue
877

@<SCITEGIC>MOL_PROPERTY
Conf_Id
SciTegic.value.IntegerValue
59

@<SCITEGIC>MOL_PROPERTY
Delta U+W
SciTegic.value.DoubleValue
0.000

@<SCITEGIC>MOL_PROPERTY
U+W
SciTegic.value.DoubleValue
3.010

@<SCITEGIC>MOL_PROPERTY
Grad RMS
SciTegic.value.DoubleValue
0.000000

@<SCITEGIC>MOL_PROPERTY
U
SciTegic.value.DoubleValue
5.843

@<SCITEGIC>MOL_PROPERTY
W
SciTegic.value.DoubleValue
-2.833

@<SCITEGIC>MOL_PROPERTY
W(PB)
SciTegic.value.DoubleValue
-4.568

@<SCITEGIC>MOL_PROPERTY
W(SA)
SciTegic.value.DoubleValue
1.735

@<SCITEGIC>MOL_PROPERTY
Valence
SciTegic.value.DoubleValue
13.789

@<SCITEGIC>MOL_PROPERTY
Coulomb
SciTegic.value.DoubleValue
-8.574

@<SCITEGIC>MOL_PROPERTY
VdW
SciTegic.value.DoubleValue
0.628

@<SCITEGIC>MOL_PROPERTY
VdW6
SciTegic.value.DoubleValue
-3.284

@<SCITEGIC>MOL_PROPERTY
VdW12
SciTegic.value.DoubleValue
3.912

@<SCITEGIC>MOL_PROPERTY
Bond
SciTegic.value.DoubleValue
0.054

@<SCITEGIC>MOL_PROPERTY
Angle
SciTegic.value.DoubleValue
4.034

@<SCITEGIC>MOL_PROPERTY
Pdih
SciTegic.value.DoubleValue
9.702

@<SCITEGIC>MOL_PROPERTY
Idih
SciTegic.value.DoubleValue
0.000

@<SCITEGIC>MOL_PROPERTY
Tether
SciTegic.value.DoubleValue
0.000

@<TRIPOS>MOLECULE
guest-4_confgen4.mol2 : confsearch ligand conformer 878
          16          16           1
SMALL
USER_CHARGES
 
@<TRIPOS>ATOM
       1    C1      19.339502   17.530430   23.229183 C.3        1 MOL1        -0.1689
       2    H1      19.987651   16.881734   23.834043 H          1 MOL1         0.0830
       3    H2      18.297410   17.348590   23.526842 H          1 MOL1         0.0830
       4    C2      19.498602   17.274963   21.724142 C.3        1 MOL1        -0.1689
       5    H3      20.558373   17.102730   21.489835 H          1 MOL1         0.0830
       6    H4      18.924678   16.402395   21.383731 H          1 MOL1         0.0830
       7    C3      19.029514   18.582486   21.059750 C.3        1 MOL1        -0.1765
       8    H5      17.951604   18.527776   20.859245 H          1 MOL1         0.0830
       9    H6      19.538826   18.754803   20.102187 H          1 MOL1         0.0830
      10    C4      19.295399   19.712223   22.076016 C.3        1 MOL1         0.1214
      11    H7      18.377881   20.303557   22.210192 H          1 MOL1         0.0787
      12    C5      19.677974   19.022413   23.402490 C.3        1 MOL1        -0.1765
      13    H8      20.754679   19.131103   23.591365 H          1 MOL1         0.0830
      14    H9      19.140548   19.459302   24.254047 H          1 MOL1         0.0830
      15    O1      20.363953   20.536131   21.625167 O.3        1 MOL1        -0.5512
      16    H10     20.496020   21.225275   22.310125 H          1 MOL1         0.3776
@<TRIPOS>BOND
    1     1     2    1
    2     1     3    1
    3     1     4    1
    4     4     5    1
    5     4     6    1
    6     4     7    1
    7     7     8    1
    8     7     9    1
    9     7    10    1
   10    10    11    1
   11     1    12    1
   12    10    12    1
   13    12    13    1
   14    12    14    1
   15    10    15    1
   16    15    16    1
@<TRIPOS>SUBSTRUCTURE
       1 MOL1            1 RESIDUE      1      MOL     
@<SCITEGIC>MOL_PROPERTY
VConf Rank
SciTegic.value.IntegerValue
878

@<SCITEGIC>MOL_PROPERTY
Conf_Id
SciTegic.value.IntegerValue
33

@<SCITEGIC>MOL_PROPERTY
Delta U+W
SciTegic.value.DoubleValue
0.015

@<SCITEGIC>MOL_PROPERTY
U+W
SciTegic.value.DoubleValue
3.025

@<SCITEGIC>MOL_PROPERTY
Grad RMS
SciTegic.value.DoubleValue
0.000000

@<SCITEGIC>MOL_PROPERTY
U
SciTegic.value.DoubleValue
5.843

@<SCITEGIC>MOL_PROPERTY
W
SciTegic.value.DoubleValue
-2.819

@<SCITEGIC>MOL_PROPERTY
W(PB)
SciTegic.value.DoubleValue
-4.568

@<SCITEGIC>MOL_PROPERTY
W(SA)
SciTegic.value.DoubleValue
1.750

@<SCITEGIC>MOL_PROPERTY
Valence
SciTegic.value.DoubleValue
13.789

@<SCITEGIC>MOL_PROPERTY
Coulomb
SciTegic.value.DoubleValue
-8.574

@<SCITEGIC>MOL_PROPERTY
VdW
SciTegic.value.DoubleValue
0.628

@<SCITEGIC>MOL_PROPERTY
VdW6
SciTegic.value.DoubleValue
-3.284

@<SCITEGIC>MOL_PROPERTY
VdW12
SciTegic.value.DoubleValue
3.913

@<SCITEGIC>MOL_PROPERTY
Bond
SciTegic.value.DoubleValue
0.054

@<SCITEGIC>MOL_PROPERTY
Angle
SciTegic.value.DoubleValue
4.033

@<SCITEGIC>MOL_PROPERTY
Pdih
SciTegic.value.DoubleValue
9.702

@<SCITEGIC>MOL_PROPERTY
Idih
SciTegic.value.DoubleValue
0.000

@<SCITEGIC>MOL_PROPERTY
Tether
SciTegic.value.DoubleValue
0.000

@<TRIPOS>MOLECULE
guest-4_confgen4.mol2 : confsearch ligand conformer 879
          16          16           1
SMALL
USER_CHARGES
 
@<TRIPOS>ATOM
       1    C1      18.969968   19.644872   21.517987 C.3        1 MOL1        -0.1689
       2    H1      18.362047   20.379416   22.063975 H          1 MOL1         0.0830
       3    H2      19.079643   20.004423   20.485663 H          1 MOL1         0.0830
       4    C2      18.289600   18.259351   21.567491 C.3        1 MOL1        -0.1689
       5    H3      17.351888   18.323567   22.136525 H          1 MOL1         0.0830
       6    H4      18.044285   17.893667   20.560965 H          1 MOL1         0.0830
       7    C3      19.279552   17.310728   22.276395 C.3        1 MOL1        -0.1765
       8    H5      19.845020   16.742957   21.525726 H          1 MOL1         0.0830
       9    H6      18.769821   16.588188   22.927636 H          1 MOL1         0.0830
      10    C4      20.248619   18.211407   23.054006 C.3        1 MOL1         0.1214
      11    H7      21.230560   17.733572   23.182259 H          1 MOL1         0.0787
      12    C5      20.346011   19.481162   22.197739 C.3        1 MOL1        -0.1765
      13    H8      20.624842   20.362418   22.790736 H          1 MOL1         0.0830
      14    H9      21.118819   19.335988   21.431375 H          1 MOL1         0.0830
      15    O1      19.676098   18.538308   24.311846 O.3        1 MOL1        -0.5512
      16    H10     18.814979   18.953740   24.099590 H          1 MOL1         0.3776
@<TRIPOS>BOND
    1     1     2    1
    2     1     3    1
    3     1     4    1
    4     4     5    1
    5     4     6    1
    6     4     7    1
    7     7     8    1
    8     7     9    1
    9     7    10    1
   10    10    11    1
   11     1    12    1
   12    10    12    1
   13    12    13    1
   14    12    14    1
   15    10    15    1
   16    15    16    1
@<TRIPOS>SUBSTRUCTURE
       1 MOL1            1 RESIDUE      1      MOL     
@<SCITEGIC>MOL_PROPERTY
VConf Rank
SciTegic.value.IntegerValue
879

@<SCITEGIC>MOL_PROPERTY
Conf_Id
SciTegic.value.IntegerValue
20

@<SCITEGIC>MOL_PROPERTY
Delta U+W
SciTegic.value.DoubleValue
-0.483

@<SCITEGIC>MOL_PROPERTY
U+W
SciTegic.value.DoubleValue
2.527

@<SCITEGIC>MOL_PROPERTY
Grad RMS
SciTegic.value.DoubleValue
0.000000

@<SCITEGIC>MOL_PROPERTY
U
SciTegic.value.DoubleValue
4.508

@<SCITEGIC>MOL_PROPERTY
W
SciTegic.value.DoubleValue
-1.981

@<SCITEGIC>MOL_PROPERTY
W(PB)
SciTegic.value.DoubleValue
-3.712

@<SCITEGIC>MOL_PROPERTY
W(SA)
SciTegic.value.DoubleValue
1.732

@<SCITEGIC>MOL_PROPERTY
Valence
SciTegic.value.DoubleValue
14.705

@<SCITEGIC>MOL_PROPERTY
Coulomb
SciTegic.value.DoubleValue
-10.687

@<SCITEGIC>MOL_PROPERTY
VdW
SciTegic.value.DoubleValue
0.490

@<SCITEGIC>MOL_PROPERTY
VdW6
SciTegic.value.DoubleValue
-3.745

@<SCITEGIC>MOL_PROPERTY
VdW12
SciTegic.value.DoubleValue
4.235

@<SCITEGIC>MOL_PROPERTY
Bond
SciTegic.value.DoubleValue
0.068

@<SCITEGIC>MOL_PROPERTY
Angle
SciTegic.value.DoubleValue
3.901

@<SCITEGIC>MOL_PROPERTY
Pdih
SciTegic.value.DoubleValue
10.737

@<SCITEGIC>MOL_PROPERTY
Idih
SciTegic.value.DoubleValue
0.000

@<SCITEGIC>MOL_PROPERTY
Tether
SciTegic.value.DoubleValue
0.000

@<TRIPOS>MOLECULE
guest-4_confgen4.mol2 : confsearch ligand conformer 880
          16          16           1
SMALL
USER_CHARGES
 
@<TRIPOS>ATOM
       1    C1      20.337292   19.535253   22.752585 C.3        1 MOL1        -0.1689
       2    H1      20.295651   19.507472   23.850388 H          1 MOL1         0.0830
       3    H2      21.127167   20.238606   22.455875 H          1 MOL1         0.0830
       4    C2      18.962340   19.928851   22.195525 C.3        1 MOL1        -0.1689
       5    H3      18.476540   20.710537   22.795295 H          1 MOL1         0.0830
       6    H4      19.073026   20.303010   21.168209 H          1 MOL1         0.0830
       7    C3      18.161508   18.613875   22.187544 C.3        1 MOL1        -0.1765
       8    H5      17.407098   18.608496   21.390247 H          1 MOL1         0.0830
       9    H6      17.638998   18.500941   23.147238 H          1 MOL1         0.0830
      10    C4      19.190757   17.478973   22.002278 C.3        1 MOL1         0.1214
      11    H7      19.125109   17.074240   20.981787 H          1 MOL1         0.0787
      12    C5      20.580819   18.114998   22.209720 C.3        1 MOL1        -0.1765
      13    H8      21.211845   17.525549   22.888231 H          1 MOL1         0.0830
      14    H9      21.095620   18.173708   21.241931 H          1 MOL1         0.0830
      15    O1      18.971095   16.454998   22.965145 O.3        1 MOL1        -0.5512
      16    H10     18.074701   16.096026   22.794413 H          1 MOL1         0.3776
@<TRIPOS>BOND
    1     1     2    1
    2     1     3    1
    3     1     4    1
    4     4     5    1
    5     4     6    1
    6     4     7    1
    7     7     8    1
    8     7     9    1
    9     7    10    1
   10    10    11    1
   11     1    12    1
   12    10    12    1
   13    12    13    1
   14    12    14    1
   15    10    15    1
   16    15    16    1
@<TRIPOS>SUBSTRUCTURE
       1 MOL1            1 RESIDUE      1      MOL     
@<SCITEGIC>MOL_PROPERTY
VConf Rank
SciTegic.value.IntegerValue
880

@<SCITEGIC>MOL_PROPERTY
Conf_Id
SciTegic.value.IntegerValue
59

@<SCITEGIC>MOL_PROPERTY
Delta U+W
SciTegic.value.DoubleValue
0.000

@<SCITEGIC>MOL_PROPERTY
U+W
SciTegic.value.DoubleValue
3.010

@<SCITEGIC>MOL_PROPERTY
Grad RMS
SciTegic.value.DoubleValue
0.000000

@<SCITEGIC>MOL_PROPERTY
U
SciTegic.value.DoubleValue
5.843

@<SCITEGIC>MOL_PROPERTY
W
SciTegic.value.DoubleValue
-2.833

@<SCITEGIC>MOL_PROPERTY
W(PB)
SciTegic.value.DoubleValue
-4.568

@<SCITEGIC>MOL_PROPERTY
W(SA)
SciTegic.value.DoubleValue
1.735

@<SCITEGIC>MOL_PROPERTY
Valence
SciTegic.value.DoubleValue
13.789

@<SCITEGIC>MOL_PROPERTY
Coulomb
SciTegic.value.DoubleValue
-8.574

@<SCITEGIC>MOL_PROPERTY
VdW
SciTegic.value.DoubleValue
0.628

@<SCITEGIC>MOL_PROPERTY
VdW6
SciTegic.value.DoubleValue
-3.284

@<SCITEGIC>MOL_PROPERTY
VdW12
SciTegic.value.DoubleValue
3.912

@<SCITEGIC>MOL_PROPERTY
Bond
SciTegic.value.DoubleValue
0.054

@<SCITEGIC>MOL_PROPERTY
Angle
SciTegic.value.DoubleValue
4.034

@<SCITEGIC>MOL_PROPERTY
Pdih
SciTegic.value.DoubleValue
9.702

@<SCITEGIC>MOL_PROPERTY
Idih
SciTegic.value.DoubleValue
0.000

@<SCITEGIC>MOL_PROPERTY
Tether
SciTegic.value.DoubleValue
0.000

@<TRIPOS>MOLECULE
guest-4_confgen4.mol2 : confsearch ligand conformer 881
          16          16           1
SMALL
USER_CHARGES
 
@<TRIPOS>ATOM
       1    C1      18.569507   17.481345   22.344929 C.3        1 MOL1        -0.1689
       2    H1      18.452343   16.541552   22.901545 H          1 MOL1         0.0830
       3    H2      17.674870   17.626422   21.723480 H          1 MOL1         0.0830
       4    C2      19.820954   17.481626   21.456330 C.3        1 MOL1        -0.1689
       5    H3      20.650108   16.994048   21.987790 H          1 MOL1         0.0830
       6    H4      19.661721   16.951976   20.507247 H          1 MOL1         0.0830
       7    C3      20.146513   18.972422   21.249895 C.3        1 MOL1        -0.1765
       8    H5      19.627243   19.342636   20.356371 H          1 MOL1         0.0830
       9    H6      21.222528   19.134567   21.101841 H          1 MOL1         0.0830
      10    C4      19.607372   19.716060   22.489301 C.3        1 MOL1         0.1214
      11    H7      18.976917   20.556128   22.163215 H          1 MOL1         0.0787
      12    C5      18.759763   18.693429   23.275125 C.3        1 MOL1        -0.1765
      13    H8      19.291480   18.375284   24.182232 H          1 MOL1         0.0830
      14    H9      17.795519   19.119189   23.581409 H          1 MOL1         0.0830
      15    O1      20.687027   20.178744   23.291901 O.3        1 MOL1        -0.5512
      16    H10     20.288751   20.630482   24.065747 H          1 MOL1         0.3776
@<TRIPOS>BOND
    1     1     2    1
    2     1     3    1
    3     1     4    1
    4     4     5    1
    5     4     6    1
    6     4     7    1
    7     7     8    1
    8     7     9    1
    9     7    10    1
   10    10    11    1
   11     1    12    1
   12    10    12    1
   13    12    13    1
   14    12    14    1
   15    10    15    1
   16    15    16    1
@<TRIPOS>SUBSTRUCTURE
       1 MOL1            1 RESIDUE      1      MOL     
@<SCITEGIC>MOL_PROPERTY
VConf Rank
SciTegic.value.IntegerValue
881

@<SCITEGIC>MOL_PROPERTY
Conf_Id
SciTegic.value.IntegerValue
33

@<SCITEGIC>MOL_PROPERTY
Delta U+W
SciTegic.value.DoubleValue
0.015

@<SCITEGIC>MOL_PROPERTY
U+W
SciTegic.value.DoubleValue
3.025

@<SCITEGIC>MOL_PROPERTY
Grad RMS
SciTegic.value.DoubleValue
0.000000

@<SCITEGIC>MOL_PROPERTY
U
SciTegic.value.DoubleValue
5.843

@<SCITEGIC>MOL_PROPERTY
W
SciTegic.value.DoubleValue
-2.819

@<SCITEGIC>MOL_PROPERTY
W(PB)
SciTegic.value.DoubleValue
-4.568

@<SCITEGIC>MOL_PROPERTY
W(SA)
SciTegic.value.DoubleValue
1.750

@<SCITEGIC>MOL_PROPERTY
Valence
SciTegic.value.DoubleValue
13.789

@<SCITEGIC>MOL_PROPERTY
Coulomb
SciTegic.value.DoubleValue
-8.574

@<SCITEGIC>MOL_PROPERTY
VdW
SciTegic.value.DoubleValue
0.628

@<SCITEGIC>MOL_PROPERTY
VdW6
SciTegic.value.DoubleValue
-3.284

@<SCITEGIC>MOL_PROPERTY
VdW12
SciTegic.value.DoubleValue
3.913

@<SCITEGIC>MOL_PROPERTY
Bond
SciTegic.value.DoubleValue
0.054

@<SCITEGIC>MOL_PROPERTY
Angle
SciTegic.value.DoubleValue
4.033

@<SCITEGIC>MOL_PROPERTY
Pdih
SciTegic.value.DoubleValue
9.702

@<SCITEGIC>MOL_PROPERTY
Idih
SciTegic.value.DoubleValue
0.000

@<SCITEGIC>MOL_PROPERTY
Tether
SciTegic.value.DoubleValue
0.000

@<TRIPOS>MOLECULE
guest-4_confgen4.mol2 : confsearch ligand conformer 882
          16          16           1
SMALL
USER_CHARGES
 
@<TRIPOS>ATOM
       1    C1      19.783261   19.629778   21.495598 C.3        1 MOL1        -0.1689
       2    H1      19.601955   19.490532   20.420905 H          1 MOL1         0.0830
       3    H2      20.248441   20.615939   21.630097 H          1 MOL1         0.0830
       4    C2      20.689266   18.497361   22.026454 C.3        1 MOL1        -0.1689
       5    H3      20.947303   17.810660   21.208478 H          1 MOL1         0.0830
       6    H4      21.627974   18.891252   22.439586 H          1 MOL1         0.0830
       7    C3      19.875003   17.756080   23.108080 C.3        1 MOL1        -0.1765
       8    H5      20.160325   18.127746   24.101094 H          1 MOL1         0.0830
       9    H6      20.052654   16.672465   23.093164 H          1 MOL1         0.0830
      10    C4      18.403976   18.107566   22.848215 C.3        1 MOL1         0.1214
      11    H7      17.808250   18.063406   23.771331 H          1 MOL1         0.0787
      12    C5      18.455996   19.531028   22.277247 C.3        1 MOL1        -0.1765
      13    H8      17.584819   19.759242   21.648778 H          1 MOL1         0.0830
      14    H9      18.465483   20.248447   23.108416 H          1 MOL1         0.0830
      15    O1      17.879680   17.227866   21.864320 O.3        1 MOL1        -0.5512
      16    H10     18.467369   17.334396   21.088153 H          1 MOL1         0.3776
@<TRIPOS>BOND
    1     1     2    1
    2     1     3    1
    3     1     4    1
    4     4     5    1
    5     4     6    1
    6     4     7    1
    7     7     8    1
    8     7     9    1
    9     7    10    1
   10    10    11    1
   11     1    12    1
   12    10    12    1
   13    12    13    1
   14    12    14    1
   15    10    15    1
   16    15    16    1
@<TRIPOS>SUBSTRUCTURE
       1 MOL1            1 RESIDUE      1      MOL     
@<SCITEGIC>MOL_PROPERTY
VConf Rank
SciTegic.value.IntegerValue
882

@<SCITEGIC>MOL_PROPERTY
Conf_Id
SciTegic.value.IntegerValue
20

@<SCITEGIC>MOL_PROPERTY
Delta U+W
SciTegic.value.DoubleValue
-0.483

@<SCITEGIC>MOL_PROPERTY
U+W
SciTegic.value.DoubleValue
2.527

@<SCITEGIC>MOL_PROPERTY
Grad RMS
SciTegic.value.DoubleValue
0.000000

@<SCITEGIC>MOL_PROPERTY
U
SciTegic.value.DoubleValue
4.508

@<SCITEGIC>MOL_PROPERTY
W
SciTegic.value.DoubleValue
-1.981

@<SCITEGIC>MOL_PROPERTY
W(PB)
SciTegic.value.DoubleValue
-3.712

@<SCITEGIC>MOL_PROPERTY
W(SA)
SciTegic.value.DoubleValue
1.732

@<SCITEGIC>MOL_PROPERTY
Valence
SciTegic.value.DoubleValue
14.705

@<SCITEGIC>MOL_PROPERTY
Coulomb
SciTegic.value.DoubleValue
-10.687

@<SCITEGIC>MOL_PROPERTY
VdW
SciTegic.value.DoubleValue
0.490

@<SCITEGIC>MOL_PROPERTY
VdW6
SciTegic.value.DoubleValue
-3.745

@<SCITEGIC>MOL_PROPERTY
VdW12
SciTegic.value.DoubleValue
4.235

@<SCITEGIC>MOL_PROPERTY
Bond
SciTegic.value.DoubleValue
0.068

@<SCITEGIC>MOL_PROPERTY
Angle
SciTegic.value.DoubleValue
3.901

@<SCITEGIC>MOL_PROPERTY
Pdih
SciTegic.value.DoubleValue
10.737

@<SCITEGIC>MOL_PROPERTY
Idih
SciTegic.value.DoubleValue
0.000

@<SCITEGIC>MOL_PROPERTY
Tether
SciTegic.value.DoubleValue
0.000

@<TRIPOS>MOLECULE
guest-4_confgen4.mol2 : confsearch ligand conformer 883
          16          16           1
SMALL
USER_CHARGES
 
@<TRIPOS>ATOM
       1    C1      18.446657   17.475753   21.967500 C.3        1 MOL1        -0.1689
       2    H1      18.049091   17.746192   20.979329 H          1 MOL1         0.0830
       3    H2      18.038592   16.494605   22.245845 H          1 MOL1         0.0830
       4    C2      18.088056   18.569287   22.983037 C.3        1 MOL1        -0.1689
       5    H3      17.072766   18.961381   22.834014 H          1 MOL1         0.0830
       6    H4      18.153419   18.163195   24.002077 H          1 MOL1         0.0830
       7    C3      19.168110   19.647977   22.781867 C.3        1 MOL1        -0.1765
       8    H5      19.359849   20.201637   23.710061 H          1 MOL1         0.0830
       9    H6      18.826906   20.366860   22.024523 H          1 MOL1         0.0830
      10    C4      20.431744   18.911618   22.289238 C.3        1 MOL1         0.1214
      11    H7      21.178162   18.864305   23.095550 H          1 MOL1         0.0787
      12    C5      19.985855   17.480903   21.923078 C.3        1 MOL1        -0.1765
      13    H8      20.363005   17.165225   20.941178 H          1 MOL1         0.0830
      14    H9      20.378423   16.780918   22.672072 H          1 MOL1         0.0830
      15    O1      20.967034   19.566558   21.145382 O.3        1 MOL1        -0.5512
      16    H10     21.221900   20.469121   21.431662 H          1 MOL1         0.3776
@<TRIPOS>BOND
    1     1     2    1
    2     1     3    1
    3     1     4    1
    4     4     5    1
    5     4     6    1
    6     4     7    1
    7     7     8    1
    8     7     9    1
    9     7    10    1
   10    10    11    1
   11     1    12    1
   12    10    12    1
   13    12    13    1
   14    12    14    1
   15    10    15    1
   16    15    16    1
@<TRIPOS>SUBSTRUCTURE
       1 MOL1            1 RESIDUE      1      MOL     
@<SCITEGIC>MOL_PROPERTY
VConf Rank
SciTegic.value.IntegerValue
883

@<SCITEGIC>MOL_PROPERTY
Conf_Id
SciTegic.value.IntegerValue
59

@<SCITEGIC>MOL_PROPERTY
Delta U+W
SciTegic.value.DoubleValue
0.000

@<SCITEGIC>MOL_PROPERTY
U+W
SciTegic.value.DoubleValue
3.010

@<SCITEGIC>MOL_PROPERTY
Grad RMS
SciTegic.value.DoubleValue
0.000000

@<SCITEGIC>MOL_PROPERTY
U
SciTegic.value.DoubleValue
5.843

@<SCITEGIC>MOL_PROPERTY
W
SciTegic.value.DoubleValue
-2.833

@<SCITEGIC>MOL_PROPERTY
W(PB)
SciTegic.value.DoubleValue
-4.568

@<SCITEGIC>MOL_PROPERTY
W(SA)
SciTegic.value.DoubleValue
1.735

@<SCITEGIC>MOL_PROPERTY
Valence
SciTegic.value.DoubleValue
13.789

@<SCITEGIC>MOL_PROPERTY
Coulomb
SciTegic.value.DoubleValue
-8.574

@<SCITEGIC>MOL_PROPERTY
VdW
SciTegic.value.DoubleValue
0.628

@<SCITEGIC>MOL_PROPERTY
VdW6
SciTegic.value.DoubleValue
-3.284

@<SCITEGIC>MOL_PROPERTY
VdW12
SciTegic.value.DoubleValue
3.912

@<SCITEGIC>MOL_PROPERTY
Bond
SciTegic.value.DoubleValue
0.054

@<SCITEGIC>MOL_PROPERTY
Angle
SciTegic.value.DoubleValue
4.034

@<SCITEGIC>MOL_PROPERTY
Pdih
SciTegic.value.DoubleValue
9.702

@<SCITEGIC>MOL_PROPERTY
Idih
SciTegic.value.DoubleValue
0.000

@<SCITEGIC>MOL_PROPERTY
Tether
SciTegic.value.DoubleValue
0.000

@<TRIPOS>MOLECULE
guest-4_confgen4.mol2 : confsearch ligand conformer 884
          16          16           1
SMALL
USER_CHARGES
 
@<TRIPOS>ATOM
       1    C1      18.246133   19.390816   22.279272 C.3        1 MOL1        -0.1689
       2    H1      17.915283   20.409717   22.036086 H          1 MOL1         0.0830
       3    H2      17.354836   18.774848   22.463107 H          1 MOL1         0.0830
       4    C2      19.162872   19.352556   23.509659 C.3        1 MOL1        -0.1689
       5    H3      19.845410   20.213555   23.487294 H          1 MOL1         0.0830
       6    H4      18.600679   19.383485   24.452859 H          1 MOL1         0.0830
       7    C3      19.969494   18.050810   23.348742 C.3        1 MOL1        -0.1765
       8    H5      19.436794   17.224534   23.837193 H          1 MOL1         0.0830
       9    H6      20.961315   18.129648   23.813602 H          1 MOL1         0.0830
      10    C4      20.053331   17.769727   21.834226 C.3        1 MOL1         0.1214
      11    H7      19.729474   16.737216   21.637867 H          1 MOL1         0.0787
      12    C5      19.089241   18.764216   21.153594 C.3        1 MOL1        -0.1765
      13    H8      19.655889   19.553852   20.641572 H          1 MOL1         0.0830
      14    H9      18.456060   18.266162   20.408027 H          1 MOL1         0.0830
      15    O1      21.381744   17.977705   21.369510 O.3        1 MOL1        -0.5512
      16    H10     21.374061   17.797063   20.405747 H          1 MOL1         0.3776
@<TRIPOS>BOND
    1     1     2    1
    2     1     3    1
    3     1     4    1
    4     4     5    1
    5     4     6    1
    6     4     7    1
    7     7     8    1
    8     7     9    1
    9     7    10    1
   10    10    11    1
   11     1    12    1
   12    10    12    1
   13    12    13    1
   14    12    14    1
   15    10    15    1
   16    15    16    1
@<TRIPOS>SUBSTRUCTURE
       1 MOL1            1 RESIDUE      1      MOL     
@<SCITEGIC>MOL_PROPERTY
VConf Rank
SciTegic.value.IntegerValue
884

@<SCITEGIC>MOL_PROPERTY
Conf_Id
SciTegic.value.IntegerValue
33

@<SCITEGIC>MOL_PROPERTY
Delta U+W
SciTegic.value.DoubleValue
0.015

@<SCITEGIC>MOL_PROPERTY
U+W
SciTegic.value.DoubleValue
3.025

@<SCITEGIC>MOL_PROPERTY
Grad RMS
SciTegic.value.DoubleValue
0.000000

@<SCITEGIC>MOL_PROPERTY
U
SciTegic.value.DoubleValue
5.843

@<SCITEGIC>MOL_PROPERTY
W
SciTegic.value.DoubleValue
-2.819

@<SCITEGIC>MOL_PROPERTY
W(PB)
SciTegic.value.DoubleValue
-4.568

@<SCITEGIC>MOL_PROPERTY
W(SA)
SciTegic.value.DoubleValue
1.750

@<SCITEGIC>MOL_PROPERTY
Valence
SciTegic.value.DoubleValue
13.789

@<SCITEGIC>MOL_PROPERTY
Coulomb
SciTegic.value.DoubleValue
-8.574

@<SCITEGIC>MOL_PROPERTY
VdW
SciTegic.value.DoubleValue
0.628

@<SCITEGIC>MOL_PROPERTY
VdW6
SciTegic.value.DoubleValue
-3.284

@<SCITEGIC>MOL_PROPERTY
VdW12
SciTegic.value.DoubleValue
3.913

@<SCITEGIC>MOL_PROPERTY
Bond
SciTegic.value.DoubleValue
0.054

@<SCITEGIC>MOL_PROPERTY
Angle
SciTegic.value.DoubleValue
4.033

@<SCITEGIC>MOL_PROPERTY
Pdih
SciTegic.value.DoubleValue
9.702

@<SCITEGIC>MOL_PROPERTY
Idih
SciTegic.value.DoubleValue
0.000

@<SCITEGIC>MOL_PROPERTY
Tether
SciTegic.value.DoubleValue
0.000

@<TRIPOS>MOLECULE
guest-4_confgen4.mol2 : confsearch ligand conformer 885
          16          16           1
SMALL
USER_CHARGES
 
@<TRIPOS>ATOM
       1    C1      19.219198   19.538864   21.310856 C.3        1 MOL1        -0.1689
       2    H1      18.364989   19.361711   20.642896 H          1 MOL1         0.0830
       3    H2      19.698561   20.476398   20.997426 H          1 MOL1         0.0830
       4    C2      20.199334   18.347669   21.237302 C.3        1 MOL1        -0.1689
       5    H3      19.820019   17.594509   20.532961 H          1 MOL1         0.0830
       6    H4      21.191733   18.662278   20.886354 H          1 MOL1         0.0830
       7    C3      20.276227   17.755634   22.660685 C.3        1 MOL1        -0.1765
       8    H5      21.164024   18.148222   23.173825 H          1 MOL1         0.0830
       9    H6      20.352290   16.660121   22.652286 H          1 MOL1         0.0830
      10    C4      19.019903   18.245464   23.393289 C.3        1 MOL1         0.1214
      11    H7      19.185066   18.314107   24.478182 H          1 MOL1         0.0787
      12    C5      18.741574   19.622665   22.776192 C.3        1 MOL1        -0.1765
      13    H8      17.683686   19.907072   22.853579 H          1 MOL1         0.0830
      14    H9      19.330860   20.378882   23.311449 H          1 MOL1         0.0830
      15    O1      17.937655   17.374053   23.099709 O.3        1 MOL1        -0.5512
      16    H10     17.866635   17.376115   22.122922 H          1 MOL1         0.3776
@<TRIPOS>BOND
    1     1     2    1
    2     1     3    1
    3     1     4    1
    4     4     5    1
    5     4     6    1
    6     4     7    1
    7     7     8    1
    8     7     9    1
    9     7    10    1
   10    10    11    1
   11     1    12    1
   12    10    12    1
   13    12    13    1
   14    12    14    1
   15    10    15    1
   16    15    16    1
@<TRIPOS>SUBSTRUCTURE
       1 MOL1            1 RESIDUE      1      MOL     
@<SCITEGIC>MOL_PROPERTY
VConf Rank
SciTegic.value.IntegerValue
885

@<SCITEGIC>MOL_PROPERTY
Conf_Id
SciTegic.value.IntegerValue
20

@<SCITEGIC>MOL_PROPERTY
Delta U+W
SciTegic.value.DoubleValue
-0.483

@<SCITEGIC>MOL_PROPERTY
U+W
SciTegic.value.DoubleValue
2.527

@<SCITEGIC>MOL_PROPERTY
Grad RMS
SciTegic.value.DoubleValue
0.000000

@<SCITEGIC>MOL_PROPERTY
U
SciTegic.value.DoubleValue
4.508

@<SCITEGIC>MOL_PROPERTY
W
SciTegic.value.DoubleValue
-1.981

@<SCITEGIC>MOL_PROPERTY
W(PB)
SciTegic.value.DoubleValue
-3.712

@<SCITEGIC>MOL_PROPERTY
W(SA)
SciTegic.value.DoubleValue
1.732

@<SCITEGIC>MOL_PROPERTY
Valence
SciTegic.value.DoubleValue
14.705

@<SCITEGIC>MOL_PROPERTY
Coulomb
SciTegic.value.DoubleValue
-10.687

@<SCITEGIC>MOL_PROPERTY
VdW
SciTegic.value.DoubleValue
0.490

@<SCITEGIC>MOL_PROPERTY
VdW6
SciTegic.value.DoubleValue
-3.745

@<SCITEGIC>MOL_PROPERTY
VdW12
SciTegic.value.DoubleValue
4.235

@<SCITEGIC>MOL_PROPERTY
Bond
SciTegic.value.DoubleValue
0.068

@<SCITEGIC>MOL_PROPERTY
Angle
SciTegic.value.DoubleValue
3.901

@<SCITEGIC>MOL_PROPERTY
Pdih
SciTegic.value.DoubleValue
10.737

@<SCITEGIC>MOL_PROPERTY
Idih
SciTegic.value.DoubleValue
0.000

@<SCITEGIC>MOL_PROPERTY
Tether
SciTegic.value.DoubleValue
0.000

@<TRIPOS>MOLECULE
guest-4_confgen4.mol2 : confsearch ligand conformer 886
          16          16           1
SMALL
USER_CHARGES
 
@<TRIPOS>ATOM
       1    C1      18.715815   17.294524   21.975527 C.3        1 MOL1        -0.1689
       2    H1      17.903147   17.184156   22.707010 H          1 MOL1         0.0830
       3    H2      18.664977   16.450209   21.274677 H          1 MOL1         0.0830
       4    C2      20.061942   17.367035   22.709292 C.3        1 MOL1        -0.1689
       5    H3      20.112718   16.672689   23.559036 H          1 MOL1         0.0830
       6    H4      20.875864   17.119054   22.013833 H          1 MOL1         0.0830
       7    C3      20.180892   18.838370   23.146994 C.3        1 MOL1        -0.1765
       8    H5      21.230037   19.155451   23.206997 H          1 MOL1         0.0830
       9    H6      19.734695   18.958067   24.143671 H          1 MOL1         0.0830
      10    C4      19.396675   19.666213   22.107110 C.3        1 MOL1         0.1214
      11    H7      20.095337   20.207443   21.452542 H          1 MOL1         0.0787
      12    C5      18.589790   18.655446   21.266204 C.3        1 MOL1        -0.1765
      13    H8      17.539646   18.954750   21.149435 H          1 MOL1         0.0830
      14    H9      19.031728   18.590610   20.263423 H          1 MOL1         0.0830
      15    O1      18.516963   20.571752   22.762849 O.3        1 MOL1        -0.5512
      16    H10     19.079340   21.179767   23.287810 H          1 MOL1         0.3776
@<TRIPOS>BOND
    1     1     2    1
    2     1     3    1
    3     1     4    1
    4     4     5    1
    5     4     6    1
    6     4     7    1
    7     7     8    1
    8     7     9    1
    9     7    10    1
   10    10    11    1
   11     1    12    1
   12    10    12    1
   13    12    13    1
   14    12    14    1
   15    10    15    1
   16    15    16    1
@<TRIPOS>SUBSTRUCTURE
       1 MOL1            1 RESIDUE      1      MOL     
@<SCITEGIC>MOL_PROPERTY
VConf Rank
SciTegic.value.IntegerValue
886

@<SCITEGIC>MOL_PROPERTY
Conf_Id
SciTegic.value.IntegerValue
59

@<SCITEGIC>MOL_PROPERTY
Delta U+W
SciTegic.value.DoubleValue
0.000

@<SCITEGIC>MOL_PROPERTY
U+W
SciTegic.value.DoubleValue
3.010

@<SCITEGIC>MOL_PROPERTY
Grad RMS
SciTegic.value.DoubleValue
0.000000

@<SCITEGIC>MOL_PROPERTY
U
SciTegic.value.DoubleValue
5.843

@<SCITEGIC>MOL_PROPERTY
W
SciTegic.value.DoubleValue
-2.833

@<SCITEGIC>MOL_PROPERTY
W(PB)
SciTegic.value.DoubleValue
-4.568

@<SCITEGIC>MOL_PROPERTY
W(SA)
SciTegic.value.DoubleValue
1.735

@<SCITEGIC>MOL_PROPERTY
Valence
SciTegic.value.DoubleValue
13.789

@<SCITEGIC>MOL_PROPERTY
Coulomb
SciTegic.value.DoubleValue
-8.574

@<SCITEGIC>MOL_PROPERTY
VdW
SciTegic.value.DoubleValue
0.628

@<SCITEGIC>MOL_PROPERTY
VdW6
SciTegic.value.DoubleValue
-3.284

@<SCITEGIC>MOL_PROPERTY
VdW12
SciTegic.value.DoubleValue
3.912

@<SCITEGIC>MOL_PROPERTY
Bond
SciTegic.value.DoubleValue
0.054

@<SCITEGIC>MOL_PROPERTY
Angle
SciTegic.value.DoubleValue
4.034

@<SCITEGIC>MOL_PROPERTY
Pdih
SciTegic.value.DoubleValue
9.702

@<SCITEGIC>MOL_PROPERTY
Idih
SciTegic.value.DoubleValue
0.000

@<SCITEGIC>MOL_PROPERTY
Tether
SciTegic.value.DoubleValue
0.000

@<TRIPOS>MOLECULE
guest-4_confgen4.mol2 : confsearch ligand conformer 887
          16          16           1
SMALL
USER_CHARGES
 
@<TRIPOS>ATOM
       1    C1      18.497740   17.546555   22.411460 C.3        1 MOL1        -0.1689
       2    H1      18.268545   16.578072   21.946412 H          1 MOL1         0.0830
       3    H2      17.857409   17.662599   23.296972 H          1 MOL1         0.0830
       4    C2      18.270710   18.723171   21.452418 C.3        1 MOL1        -0.1689
       5    H3      18.611968   18.448034   20.444687 H          1 MOL1         0.0830
       6    H4      17.213713   19.015563   21.389928 H          1 MOL1         0.0830
       7    C3      19.160376   19.850396   22.008238 C.3        1 MOL1        -0.1765
       8    H5      18.588582   20.449789   22.728560 H          1 MOL1         0.0830
       9    H6      19.504195   20.523997   21.211953 H          1 MOL1         0.0830
      10    C4      20.331696   19.165029   22.741776 C.3        1 MOL1         0.1214
      11    H7      20.420836   19.583829   23.754781 H          1 MOL1         0.0787
      12    C5      19.977605   17.664931   22.819622 C.3        1 MOL1        -0.1765
      13    H8      20.595602   17.090902   22.115809 H          1 MOL1         0.0830
      14    H9      20.149618   17.261512   23.825859 H          1 MOL1         0.0830
      15    O1      21.540231   19.346992   22.013607 O.3        1 MOL1        -0.5512
      16    H10     22.243790   18.884541   22.516274 H          1 MOL1         0.3776
@<TRIPOS>BOND
    1     1     2    1
    2     1     3    1
    3     1     4    1
    4     4     5    1
    5     4     6    1
    6     4     7    1
    7     7     8    1
    8     7     9    1
    9     7    10    1
   10    10    11    1
   11     1    12    1
   12    10    12    1
   13    12    13    1
   14    12    14    1
   15    10    15    1
   16    15    16    1
@<TRIPOS>SUBSTRUCTURE
       1 MOL1            1 RESIDUE      1      MOL     
@<SCITEGIC>MOL_PROPERTY
VConf Rank
SciTegic.value.IntegerValue
887

@<SCITEGIC>MOL_PROPERTY
Conf_Id
SciTegic.value.IntegerValue
33

@<SCITEGIC>MOL_PROPERTY
Delta U+W
SciTegic.value.DoubleValue
0.015

@<SCITEGIC>MOL_PROPERTY
U+W
SciTegic.value.DoubleValue
3.025

@<SCITEGIC>MOL_PROPERTY
Grad RMS
SciTegic.value.DoubleValue
0.000000

@<SCITEGIC>MOL_PROPERTY
U
SciTegic.value.DoubleValue
5.843

@<SCITEGIC>MOL_PROPERTY
W
SciTegic.value.DoubleValue
-2.819

@<SCITEGIC>MOL_PROPERTY
W(PB)
SciTegic.value.DoubleValue
-4.568

@<SCITEGIC>MOL_PROPERTY
W(SA)
SciTegic.value.DoubleValue
1.750

@<SCITEGIC>MOL_PROPERTY
Valence
SciTegic.value.DoubleValue
13.789

@<SCITEGIC>MOL_PROPERTY
Coulomb
SciTegic.value.DoubleValue
-8.574

@<SCITEGIC>MOL_PROPERTY
VdW
SciTegic.value.DoubleValue
0.628

@<SCITEGIC>MOL_PROPERTY
VdW6
SciTegic.value.DoubleValue
-3.284

@<SCITEGIC>MOL_PROPERTY
VdW12
SciTegic.value.DoubleValue
3.913

@<SCITEGIC>MOL_PROPERTY
Bond
SciTegic.value.DoubleValue
0.054

@<SCITEGIC>MOL_PROPERTY
Angle
SciTegic.value.DoubleValue
4.033

@<SCITEGIC>MOL_PROPERTY
Pdih
SciTegic.value.DoubleValue
9.702

@<SCITEGIC>MOL_PROPERTY
Idih
SciTegic.value.DoubleValue
0.000

@<SCITEGIC>MOL_PROPERTY
Tether
SciTegic.value.DoubleValue
0.000

@<TRIPOS>MOLECULE
guest-4_confgen4.mol2 : confsearch ligand conformer 888
          16          16           1
SMALL
USER_CHARGES
 
@<TRIPOS>ATOM
       1    C1      20.179145   19.679486   22.244060 C.3        1 MOL1        -0.1689
       2    H1      20.098008   20.316932   23.135298 H          1 MOL1         0.0830
       3    H2      20.939907   20.121602   21.586206 H          1 MOL1         0.0830
       4    C2      18.807509   19.582496   21.541046 C.3        1 MOL1        -0.1689
       5    H3      18.062796   20.173847   22.091440 H          1 MOL1         0.0830
       6    H4      18.851013   19.972956   20.515060 H          1 MOL1         0.0830
       7    C3      18.415548   18.089608   21.550325 C.3        1 MOL1        -0.1765
       8    H5      18.676409   17.635831   20.585101 H          1 MOL1         0.0830
       9    H6      17.338733   17.942952   21.708336 H          1 MOL1         0.0830
      10    C4      19.259201   17.435421   22.652724 C.3        1 MOL1         0.1214
      11    H7      19.440417   16.370887   22.445571 H          1 MOL1         0.0787
      12    C5      20.565090   18.241403   22.650657 C.3        1 MOL1        -0.1765
      13    H8      21.076992   18.206528   23.621607 H          1 MOL1         0.0830
      14    H9      21.244469   17.817565   21.899372 H          1 MOL1         0.0830
      15    O1      18.607262   17.604438   23.903009 O.3        1 MOL1        -0.5512
      16    H10     18.489254   18.571811   24.000102 H          1 MOL1         0.3776
@<TRIPOS>BOND
    1     1     2    1
    2     1     3    1
    3     1     4    1
    4     4     5    1
    5     4     6    1
    6     4     7    1
    7     7     8    1
    8     7     9    1
    9     7    10    1
   10    10    11    1
   11     1    12    1
   12    10    12    1
   13    12    13    1
   14    12    14    1
   15    10    15    1
   16    15    16    1
@<TRIPOS>SUBSTRUCTURE
       1 MOL1            1 RESIDUE      1      MOL     
@<SCITEGIC>MOL_PROPERTY
VConf Rank
SciTegic.value.IntegerValue
888

@<SCITEGIC>MOL_PROPERTY
Conf_Id
SciTegic.value.IntegerValue
20

@<SCITEGIC>MOL_PROPERTY
Delta U+W
SciTegic.value.DoubleValue
-0.483

@<SCITEGIC>MOL_PROPERTY
U+W
SciTegic.value.DoubleValue
2.527

@<SCITEGIC>MOL_PROPERTY
Grad RMS
SciTegic.value.DoubleValue
0.000000

@<SCITEGIC>MOL_PROPERTY
U
SciTegic.value.DoubleValue
4.508

@<SCITEGIC>MOL_PROPERTY
W
SciTegic.value.DoubleValue
-1.981

@<SCITEGIC>MOL_PROPERTY
W(PB)
SciTegic.value.DoubleValue
-3.712

@<SCITEGIC>MOL_PROPERTY
W(SA)
SciTegic.value.DoubleValue
1.732

@<SCITEGIC>MOL_PROPERTY
Valence
SciTegic.value.DoubleValue
14.705

@<SCITEGIC>MOL_PROPERTY
Coulomb
SciTegic.value.DoubleValue
-10.687

@<SCITEGIC>MOL_PROPERTY
VdW
SciTegic.value.DoubleValue
0.490

@<SCITEGIC>MOL_PROPERTY
VdW6
SciTegic.value.DoubleValue
-3.745

@<SCITEGIC>MOL_PROPERTY
VdW12
SciTegic.value.DoubleValue
4.235

@<SCITEGIC>MOL_PROPERTY
Bond
SciTegic.value.DoubleValue
0.068

@<SCITEGIC>MOL_PROPERTY
Angle
SciTegic.value.DoubleValue
3.901

@<SCITEGIC>MOL_PROPERTY
Pdih
SciTegic.value.DoubleValue
10.737

@<SCITEGIC>MOL_PROPERTY
Idih
SciTegic.value.DoubleValue
0.000

@<SCITEGIC>MOL_PROPERTY
Tether
SciTegic.value.DoubleValue
0.000

@<TRIPOS>MOLECULE
guest-4_confgen4.mol2 : confsearch ligand conformer 889
          16          16           1
SMALL
USER_CHARGES
 
@<TRIPOS>ATOM
       1    C1      20.725006   18.757358   22.765773 C.3        1 MOL1        -0.1689
       2    H1      20.663948   19.574714   23.497810 H          1 MOL1         0.0830
       3    H2      21.765383   18.406972   22.727185 H          1 MOL1         0.0830
       4    C2      20.221269   19.249564   21.402062 C.3        1 MOL1        -0.1689
       5    H3      20.547094   20.275205   21.181475 H          1 MOL1         0.0830
       6    H4      20.599860   18.590570   20.608324 H          1 MOL1         0.0830
       7    C3      18.689090   19.128337   21.493112 C.3        1 MOL1        -0.1765
       8    H5      18.241913   18.945412   20.507507 H          1 MOL1         0.0830
       9    H6      18.272983   20.067101   21.883448 H          1 MOL1         0.0830
      10    C4      18.401875   17.968951   22.470357 C.3        1 MOL1         0.1214
      11    H7      18.051698   17.086628   21.915018 H          1 MOL1         0.0787
      12    C5      19.742398   17.638779   23.158703 C.3        1 MOL1        -0.1765
      13    H8      19.641360   17.553999   24.248944 H          1 MOL1         0.0830
      14    H9      20.110621   16.675721   22.781857 H          1 MOL1         0.0830
      15    O1      17.439065   18.369620   23.438009 O.3        1 MOL1        -0.5512
      16    H10     16.616004   18.576603   22.946827 H          1 MOL1         0.3776
@<TRIPOS>BOND
    1     1     2    1
    2     1     3    1
    3     1     4    1
    4     4     5    1
    5     4     6    1
    6     4     7    1
    7     7     8    1
    8     7     9    1
    9     7    10    1
   10    10    11    1
   11     1    12    1
   12    10    12    1
   13    12    13    1
   14    12    14    1
   15    10    15    1
   16    15    16    1
@<TRIPOS>SUBSTRUCTURE
       1 MOL1            1 RESIDUE      1      MOL     
@<SCITEGIC>MOL_PROPERTY
VConf Rank
SciTegic.value.IntegerValue
889

@<SCITEGIC>MOL_PROPERTY
Conf_Id
SciTegic.value.IntegerValue
59

@<SCITEGIC>MOL_PROPERTY
Delta U+W
SciTegic.value.DoubleValue
0.000

@<SCITEGIC>MOL_PROPERTY
U+W
SciTegic.value.DoubleValue
3.010

@<SCITEGIC>MOL_PROPERTY
Grad RMS
SciTegic.value.DoubleValue
0.000000

@<SCITEGIC>MOL_PROPERTY
U
SciTegic.value.DoubleValue
5.843

@<SCITEGIC>MOL_PROPERTY
W
SciTegic.value.DoubleValue
-2.833

@<SCITEGIC>MOL_PROPERTY
W(PB)
SciTegic.value.DoubleValue
-4.568

@<SCITEGIC>MOL_PROPERTY
W(SA)
SciTegic.value.DoubleValue
1.735

@<SCITEGIC>MOL_PROPERTY
Valence
SciTegic.value.DoubleValue
13.789

@<SCITEGIC>MOL_PROPERTY
Coulomb
SciTegic.value.DoubleValue
-8.574

@<SCITEGIC>MOL_PROPERTY
VdW
SciTegic.value.DoubleValue
0.628

@<SCITEGIC>MOL_PROPERTY
VdW6
SciTegic.value.DoubleValue
-3.284

@<SCITEGIC>MOL_PROPERTY
VdW12
SciTegic.value.DoubleValue
3.912

@<SCITEGIC>MOL_PROPERTY
Bond
SciTegic.value.DoubleValue
0.054

@<SCITEGIC>MOL_PROPERTY
Angle
SciTegic.value.DoubleValue
4.034

@<SCITEGIC>MOL_PROPERTY
Pdih
SciTegic.value.DoubleValue
9.702

@<SCITEGIC>MOL_PROPERTY
Idih
SciTegic.value.DoubleValue
0.000

@<SCITEGIC>MOL_PROPERTY
Tether
SciTegic.value.DoubleValue
0.000

@<TRIPOS>MOLECULE
guest-4_confgen4.mol2 : confsearch ligand conformer 890
          16          16           1
SMALL
USER_CHARGES
 
@<TRIPOS>ATOM
       1    C1      18.704517   19.823798   22.476528 C.3        1 MOL1        -0.1689
       2    H1      18.527810   20.779342   21.964211 H          1 MOL1         0.0830
       3    H2      18.010516   19.755839   23.325860 H          1 MOL1         0.0830
       4    C2      20.148825   19.688351   22.977881 C.3        1 MOL1        -0.1689
       5    H3      20.838845   20.102043   22.229275 H          1 MOL1         0.0830
       6    H4      20.314580   20.215574   23.927199 H          1 MOL1         0.0830
       7    C3      20.372699   18.169954   23.102086 C.3        1 MOL1        -0.1765
       8    H5      20.091591   17.837308   24.109761 H          1 MOL1         0.0830
       9    H6      21.425955   17.902274   22.943913 H          1 MOL1         0.0830
      10    C4      19.437808   17.501896   22.072779 C.3        1 MOL1         0.1214
      11    H7      18.845629   16.721518   22.572632 H          1 MOL1         0.0787
      12    C5      18.507344   18.614120   21.544641 C.3        1 MOL1        -0.1765
      13    H8      18.791465   18.893964   20.521048 H          1 MOL1         0.0830
      14    H9      17.459265   18.288469   21.526483 H          1 MOL1         0.0830
      15    O1      20.198567   16.950057   21.004782 O.3        1 MOL1        -0.5512
      16    H10     19.557199   16.551404   20.379280 H          1 MOL1         0.3776
@<TRIPOS>BOND
    1     1     2    1
    2     1     3    1
    3     1     4    1
    4     4     5    1
    5     4     6    1
    6     4     7    1
    7     7     8    1
    8     7     9    1
    9     7    10    1
   10    10    11    1
   11     1    12    1
   12    10    12    1
   13    12    13    1
   14    12    14    1
   15    10    15    1
   16    15    16    1
@<TRIPOS>SUBSTRUCTURE
       1 MOL1            1 RESIDUE      1      MOL     
@<SCITEGIC>MOL_PROPERTY
VConf Rank
SciTegic.value.IntegerValue
890

@<SCITEGIC>MOL_PROPERTY
Conf_Id
SciTegic.value.IntegerValue
33

@<SCITEGIC>MOL_PROPERTY
Delta U+W
SciTegic.value.DoubleValue
0.015

@<SCITEGIC>MOL_PROPERTY
U+W
SciTegic.value.DoubleValue
3.025

@<SCITEGIC>MOL_PROPERTY
Grad RMS
SciTegic.value.DoubleValue
0.000000

@<SCITEGIC>MOL_PROPERTY
U
SciTegic.value.DoubleValue
5.843

@<SCITEGIC>MOL_PROPERTY
W
SciTegic.value.DoubleValue
-2.819

@<SCITEGIC>MOL_PROPERTY
W(PB)
SciTegic.value.DoubleValue
-4.568

@<SCITEGIC>MOL_PROPERTY
W(SA)
SciTegic.value.DoubleValue
1.750

@<SCITEGIC>MOL_PROPERTY
Valence
SciTegic.value.DoubleValue
13.789

@<SCITEGIC>MOL_PROPERTY
Coulomb
SciTegic.value.DoubleValue
-8.574

@<SCITEGIC>MOL_PROPERTY
VdW
SciTegic.value.DoubleValue
0.628

@<SCITEGIC>MOL_PROPERTY
VdW6
SciTegic.value.DoubleValue
-3.284

@<SCITEGIC>MOL_PROPERTY
VdW12
SciTegic.value.DoubleValue
3.913

@<SCITEGIC>MOL_PROPERTY
Bond
SciTegic.value.DoubleValue
0.054

@<SCITEGIC>MOL_PROPERTY
Angle
SciTegic.value.DoubleValue
4.033

@<SCITEGIC>MOL_PROPERTY
Pdih
SciTegic.value.DoubleValue
9.702

@<SCITEGIC>MOL_PROPERTY
Idih
SciTegic.value.DoubleValue
0.000

@<SCITEGIC>MOL_PROPERTY
Tether
SciTegic.value.DoubleValue
0.000

@<TRIPOS>MOLECULE
guest-4_confgen4.mol2 : confsearch ligand conformer 891
          16          16           1
SMALL
USER_CHARGES
 
@<TRIPOS>ATOM
       1    C1      19.666693   17.346567   22.581982 C.3        1 MOL1        -0.1689
       2    H1      20.205035   16.791387   21.801476 H          1 MOL1         0.0830
       3    H2      19.535285   16.672826   23.439772 H          1 MOL1         0.0830
       4    C2      18.309631   17.840023   22.034346 C.3        1 MOL1        -0.1689
       5    H3      18.190733   17.522762   20.989149 H          1 MOL1         0.0830
       6    H4      17.468347   17.425199   22.606326 H          1 MOL1         0.0830
       7    C3      18.335524   19.380701   22.124223 C.3        1 MOL1        -0.1765
       8    H5      17.816204   19.703754   23.036125 H          1 MOL1         0.0830
       9    H6      17.836351   19.855974   21.269269 H          1 MOL1         0.0830
      10    C4      19.814851   19.775761   22.226743 C.3        1 MOL1         0.1214
      11    H7      19.943472   20.726419   22.764041 H          1 MOL1         0.0787
      12    C5      20.461177   18.607538   22.983363 C.3        1 MOL1        -0.1765
      13    H8      21.532892   18.511750   22.763692 H          1 MOL1         0.0830
      14    H9      20.355428   18.779681   24.062625 H          1 MOL1         0.0830
      15    O1      20.370052   19.852168   20.921859 O.3        1 MOL1        -0.5512
      16    H10     20.210076   18.971252   20.524923 H          1 MOL1         0.3776
@<TRIPOS>BOND
    1     1     2    1
    2     1     3    1
    3     1     4    1
    4     4     5    1
    5     4     6    1
    6     4     7    1
    7     7     8    1
    8     7     9    1
    9     7    10    1
   10    10    11    1
   11     1    12    1
   12    10    12    1
   13    12    13    1
   14    12    14    1
   15    10    15    1
   16    15    16    1
@<TRIPOS>SUBSTRUCTURE
       1 MOL1            1 RESIDUE      1      MOL     
@<SCITEGIC>MOL_PROPERTY
VConf Rank
SciTegic.value.IntegerValue
891

@<SCITEGIC>MOL_PROPERTY
Conf_Id
SciTegic.value.IntegerValue
20

@<SCITEGIC>MOL_PROPERTY
Delta U+W
SciTegic.value.DoubleValue
-0.483

@<SCITEGIC>MOL_PROPERTY
U+W
SciTegic.value.DoubleValue
2.527

@<SCITEGIC>MOL_PROPERTY
Grad RMS
SciTegic.value.DoubleValue
0.000000

@<SCITEGIC>MOL_PROPERTY
U
SciTegic.value.DoubleValue
4.508

@<SCITEGIC>MOL_PROPERTY
W
SciTegic.value.DoubleValue
-1.981

@<SCITEGIC>MOL_PROPERTY
W(PB)
SciTegic.value.DoubleValue
-3.712

@<SCITEGIC>MOL_PROPERTY
W(SA)
SciTegic.value.DoubleValue
1.732

@<SCITEGIC>MOL_PROPERTY
Valence
SciTegic.value.DoubleValue
14.705

@<SCITEGIC>MOL_PROPERTY
Coulomb
SciTegic.value.DoubleValue
-10.687

@<SCITEGIC>MOL_PROPERTY
VdW
SciTegic.value.DoubleValue
0.490

@<SCITEGIC>MOL_PROPERTY
VdW6
SciTegic.value.DoubleValue
-3.745

@<SCITEGIC>MOL_PROPERTY
VdW12
SciTegic.value.DoubleValue
4.235

@<SCITEGIC>MOL_PROPERTY
Bond
SciTegic.value.DoubleValue
0.068

@<SCITEGIC>MOL_PROPERTY
Angle
SciTegic.value.DoubleValue
3.901

@<SCITEGIC>MOL_PROPERTY
Pdih
SciTegic.value.DoubleValue
10.737

@<SCITEGIC>MOL_PROPERTY
Idih
SciTegic.value.DoubleValue
0.000

@<SCITEGIC>MOL_PROPERTY
Tether
SciTegic.value.DoubleValue
0.000

@<TRIPOS>MOLECULE
guest-4_confgen4.mol2 : confsearch ligand conformer 892
          16          16           1
SMALL
USER_CHARGES
 
@<TRIPOS>ATOM
       1    C1      19.695586   17.322136   21.619822 C.3        1 MOL1        -0.1689
       2    H1      18.853772   16.644182   21.818327 H          1 MOL1         0.0830
       3    H2      20.396916   16.811744   20.945820 H          1 MOL1         0.0830
       4    C2      20.350178   17.731455   22.946357 C.3        1 MOL1        -0.1689
       5    H3      20.409809   16.896795   23.658078 H          1 MOL1         0.0830
       6    H4      21.369602   18.096269   22.758443 H          1 MOL1         0.0830
       7    C3      19.472188   18.884014   23.467219 C.3        1 MOL1        -0.1765
       8    H5      20.053306   19.586065   24.078997 H          1 MOL1         0.0830
       9    H6      18.669333   18.473982   24.094979 H          1 MOL1         0.0830
      10    C4      18.877381   19.574661   22.221871 C.3        1 MOL1         0.1214
      11    H7      19.373161   20.542102   22.055203 H          1 MOL1         0.0787
      12    C5      19.166537   18.641559   21.027910 C.3        1 MOL1        -0.1765
      13    H8      18.278640   18.476972   20.402953 H          1 MOL1         0.0830
      14    H9      19.939437   19.097960   20.395925 H          1 MOL1         0.0830
      15    O1      17.474308   19.748568   22.380084 O.3        1 MOL1        -0.5512
      16    H10     17.349414   20.337071   23.154421 H          1 MOL1         0.3776
@<TRIPOS>BOND
    1     1     2    1
    2     1     3    1
    3     1     4    1
    4     4     5    1
    5     4     6    1
    6     4     7    1
    7     7     8    1
    8     7     9    1
    9     7    10    1
   10    10    11    1
   11     1    12    1
   12    10    12    1
   13    12    13    1
   14    12    14    1
   15    10    15    1
   16    15    16    1
@<TRIPOS>SUBSTRUCTURE
       1 MOL1            1 RESIDUE      1      MOL     
@<SCITEGIC>MOL_PROPERTY
VConf Rank
SciTegic.value.IntegerValue
892

@<SCITEGIC>MOL_PROPERTY
Conf_Id
SciTegic.value.IntegerValue
59

@<SCITEGIC>MOL_PROPERTY
Delta U+W
SciTegic.value.DoubleValue
0.000

@<SCITEGIC>MOL_PROPERTY
U+W
SciTegic.value.DoubleValue
3.010

@<SCITEGIC>MOL_PROPERTY
Grad RMS
SciTegic.value.DoubleValue
0.000000

@<SCITEGIC>MOL_PROPERTY
U
SciTegic.value.DoubleValue
5.843

@<SCITEGIC>MOL_PROPERTY
W
SciTegic.value.DoubleValue
-2.833

@<SCITEGIC>MOL_PROPERTY
W(PB)
SciTegic.value.DoubleValue
-4.568

@<SCITEGIC>MOL_PROPERTY
W(SA)
SciTegic.value.DoubleValue
1.735

@<SCITEGIC>MOL_PROPERTY
Valence
SciTegic.value.DoubleValue
13.789

@<SCITEGIC>MOL_PROPERTY
Coulomb
SciTegic.value.DoubleValue
-8.574

@<SCITEGIC>MOL_PROPERTY
VdW
SciTegic.value.DoubleValue
0.628

@<SCITEGIC>MOL_PROPERTY
VdW6
SciTegic.value.DoubleValue
-3.284

@<SCITEGIC>MOL_PROPERTY
VdW12
SciTegic.value.DoubleValue
3.912

@<SCITEGIC>MOL_PROPERTY
Bond
SciTegic.value.DoubleValue
0.054

@<SCITEGIC>MOL_PROPERTY
Angle
SciTegic.value.DoubleValue
4.034

@<SCITEGIC>MOL_PROPERTY
Pdih
SciTegic.value.DoubleValue
9.702

@<SCITEGIC>MOL_PROPERTY
Idih
SciTegic.value.DoubleValue
0.000

@<SCITEGIC>MOL_PROPERTY
Tether
SciTegic.value.DoubleValue
0.000

@<TRIPOS>MOLECULE
guest-4_confgen4.mol2 : confsearch ligand conformer 893
          16          16           1
SMALL
USER_CHARGES
 
@<TRIPOS>ATOM
       1    C1      19.951253   18.597665   20.946616 C.3        1 MOL1        -0.1689
       2    H1      20.867787   18.848839   20.395585 H          1 MOL1         0.0830
       3    H2      19.264825   18.086900   20.257009 H          1 MOL1         0.0830
       4    C2      19.264510   19.838256   21.534022 C.3        1 MOL1        -0.1689
       5    H3      20.024445   20.531004   21.921681 H          1 MOL1         0.0830
       6    H4      18.658060   20.373507   20.790808 H          1 MOL1         0.0830
       7    C3      18.419307   19.294586   22.700697 C.3        1 MOL1        -0.1765
       8    H5      17.418070   19.028525   22.337627 H          1 MOL1         0.0830
       9    H6      18.298282   20.042844   23.495356 H          1 MOL1         0.0830
      10    C4      19.128492   18.019048   23.200552 C.3        1 MOL1         0.1214
      11    H7      18.402862   17.193848   23.245545 H          1 MOL1         0.0787
      12    C5      20.228316   17.699535   22.166127 C.3        1 MOL1        -0.1765
      13    H8      21.218489   17.939789   22.576759 H          1 MOL1         0.0830
      14    H9      20.226442   16.637067   21.890437 H          1 MOL1         0.0830
      15    O1      19.708865   18.249395   24.478834 O.3        1 MOL1        -0.5512
      16    H10     20.152610   17.415102   24.740701 H          1 MOL1         0.3776
@<TRIPOS>BOND
    1     1     2    1
    2     1     3    1
    3     1     4    1
    4     4     5    1
    5     4     6    1
    6     4     7    1
    7     7     8    1
    8     7     9    1
    9     7    10    1
   10    10    11    1
   11     1    12    1
   12    10    12    1
   13    12    13    1
   14    12    14    1
   15    10    15    1
   16    15    16    1
@<TRIPOS>SUBSTRUCTURE
       1 MOL1            1 RESIDUE      1      MOL     
@<SCITEGIC>MOL_PROPERTY
VConf Rank
SciTegic.value.IntegerValue
893

@<SCITEGIC>MOL_PROPERTY
Conf_Id
SciTegic.value.IntegerValue
33

@<SCITEGIC>MOL_PROPERTY
Delta U+W
SciTegic.value.DoubleValue
0.015

@<SCITEGIC>MOL_PROPERTY
U+W
SciTegic.value.DoubleValue
3.025

@<SCITEGIC>MOL_PROPERTY
Grad RMS
SciTegic.value.DoubleValue
0.000000

@<SCITEGIC>MOL_PROPERTY
U
SciTegic.value.DoubleValue
5.843

@<SCITEGIC>MOL_PROPERTY
W
SciTegic.value.DoubleValue
-2.819

@<SCITEGIC>MOL_PROPERTY
W(PB)
SciTegic.value.DoubleValue
-4.568

@<SCITEGIC>MOL_PROPERTY
W(SA)
SciTegic.value.DoubleValue
1.750

@<SCITEGIC>MOL_PROPERTY
Valence
SciTegic.value.DoubleValue
13.789

@<SCITEGIC>MOL_PROPERTY
Coulomb
SciTegic.value.DoubleValue
-8.574

@<SCITEGIC>MOL_PROPERTY
VdW
SciTegic.value.DoubleValue
0.628

@<SCITEGIC>MOL_PROPERTY
VdW6
SciTegic.value.DoubleValue
-3.284

@<SCITEGIC>MOL_PROPERTY
VdW12
SciTegic.value.DoubleValue
3.913

@<SCITEGIC>MOL_PROPERTY
Bond
SciTegic.value.DoubleValue
0.054

@<SCITEGIC>MOL_PROPERTY
Angle
SciTegic.value.DoubleValue
4.033

@<SCITEGIC>MOL_PROPERTY
Pdih
SciTegic.value.DoubleValue
9.702

@<SCITEGIC>MOL_PROPERTY
Idih
SciTegic.value.DoubleValue
0.000

@<SCITEGIC>MOL_PROPERTY
Tether
SciTegic.value.DoubleValue
0.000

@<TRIPOS>MOLECULE
guest-4_confgen4.mol2 : confsearch ligand conformer 894
          16          16           1
SMALL
USER_CHARGES
 
@<TRIPOS>ATOM
       1    C1      18.383917   17.738523   22.448912 C.3        1 MOL1        -0.1689
       2    H1      17.379063   18.179258   22.391917 H          1 MOL1         0.0830
       3    H2      18.265772   16.662622   22.637264 H          1 MOL1         0.0830
       4    C2      19.195915   18.425279   23.568755 C.3        1 MOL1        -0.1689
       5    H3      18.583703   19.197644   24.054425 H          1 MOL1         0.0830
       6    H4      19.503408   17.708407   24.342410 H          1 MOL1         0.0830
       7    C3      20.423423   19.067659   22.888308 C.3        1 MOL1        -0.1765
       8    H5      21.290789   18.402573   22.992985 H          1 MOL1         0.0830
       9    H6      20.688341   20.035117   23.335351 H          1 MOL1         0.0830
      10    C4      20.067962   19.192598   21.400682 C.3        1 MOL1         0.1214
      11    H7      20.965774   19.165633   20.766498 H          1 MOL1         0.0787
      12    C5      19.151897   17.990656   21.134001 C.3        1 MOL1        -0.1765
      13    H8      18.477537   18.162019   20.284367 H          1 MOL1         0.0830
      14    H9      19.771579   17.115621   20.897507 H          1 MOL1         0.0830
      15    O1      19.337253   20.392592   21.193595 O.3        1 MOL1        -0.5512
      16    H10     18.565422   20.327560   21.792936 H          1 MOL1         0.3776
@<TRIPOS>BOND
    1     1     2    1
    2     1     3    1
    3     1     4    1
    4     4     5    1
    5     4     6    1
    6     4     7    1
    7     7     8    1
    8     7     9    1
    9     7    10    1
   10    10    11    1
   11     1    12    1
   12    10    12    1
   13    12    13    1
   14    12    14    1
   15    10    15    1
   16    15    16    1
@<TRIPOS>SUBSTRUCTURE
       1 MOL1            1 RESIDUE      1      MOL     
@<SCITEGIC>MOL_PROPERTY
VConf Rank
SciTegic.value.IntegerValue
894

@<SCITEGIC>MOL_PROPERTY
Conf_Id
SciTegic.value.IntegerValue
20

@<SCITEGIC>MOL_PROPERTY
Delta U+W
SciTegic.value.DoubleValue
-0.483

@<SCITEGIC>MOL_PROPERTY
U+W
SciTegic.value.DoubleValue
2.527

@<SCITEGIC>MOL_PROPERTY
Grad RMS
SciTegic.value.DoubleValue
0.000000

@<SCITEGIC>MOL_PROPERTY
U
SciTegic.value.DoubleValue
4.508

@<SCITEGIC>MOL_PROPERTY
W
SciTegic.value.DoubleValue
-1.981

@<SCITEGIC>MOL_PROPERTY
W(PB)
SciTegic.value.DoubleValue
-3.712

@<SCITEGIC>MOL_PROPERTY
W(SA)
SciTegic.value.DoubleValue
1.732

@<SCITEGIC>MOL_PROPERTY
Valence
SciTegic.value.DoubleValue
14.705

@<SCITEGIC>MOL_PROPERTY
Coulomb
SciTegic.value.DoubleValue
-10.687

@<SCITEGIC>MOL_PROPERTY
VdW
SciTegic.value.DoubleValue
0.490

@<SCITEGIC>MOL_PROPERTY
VdW6
SciTegic.value.DoubleValue
-3.745

@<SCITEGIC>MOL_PROPERTY
VdW12
SciTegic.value.DoubleValue
4.235

@<SCITEGIC>MOL_PROPERTY
Bond
SciTegic.value.DoubleValue
0.068

@<SCITEGIC>MOL_PROPERTY
Angle
SciTegic.value.DoubleValue
3.901

@<SCITEGIC>MOL_PROPERTY
Pdih
SciTegic.value.DoubleValue
10.737

@<SCITEGIC>MOL_PROPERTY
Idih
SciTegic.value.DoubleValue
0.000

@<SCITEGIC>MOL_PROPERTY
Tether
SciTegic.value.DoubleValue
0.000

@<TRIPOS>MOLECULE
guest-4_confgen4.mol2 : confsearch ligand conformer 895
          16          16           1
SMALL
USER_CHARGES
 
@<TRIPOS>ATOM
       1    C1      19.614911   17.164683   22.656633 C.3        1 MOL1        -0.1689
       2    H1      20.677981   17.131895   22.933190 H          1 MOL1         0.0830
       3    H2      19.188988   16.163489   22.807773 H          1 MOL1         0.0830
       4    C2      19.475342   17.648322   21.206688 C.3        1 MOL1        -0.1689
       5    H3      20.251176   17.231058   20.550386 H          1 MOL1         0.0830
       6    H4      18.494185   17.351326   20.810771 H          1 MOL1         0.0830
       7    C3      19.554485   19.182777   21.305379 C.3        1 MOL1        -0.1765
       8    H5      18.984938   19.666354   20.501255 H          1 MOL1         0.0830
       9    H6      20.602511   19.499094   21.213887 H          1 MOL1         0.0830
      10    C4      19.002142   19.558154   22.696669 C.3        1 MOL1         0.1214
      11    H7      18.001141   20.002616   22.596826 H          1 MOL1         0.0787
      12    C5      18.897621   18.240755   23.492513 C.3        1 MOL1        -0.1765
      13    H8      19.329930   18.326038   24.498424 H          1 MOL1         0.0830
      14    H9      17.838788   17.974120   23.605916 H          1 MOL1         0.0830
      15    O1      19.889390   20.457463   23.350826 O.3        1 MOL1        -0.5512
      16    H10     19.926039   21.267390   22.799275 H          1 MOL1         0.3776
@<TRIPOS>BOND
    1     1     2    1
    2     1     3    1
    3     1     4    1
    4     4     5    1
    5     4     6    1
    6     4     7    1
    7     7     8    1
    8     7     9    1
    9     7    10    1
   10    10    11    1
   11     1    12    1
   12    10    12    1
   13    12    13    1
   14    12    14    1
   15    10    15    1
   16    15    16    1
@<TRIPOS>SUBSTRUCTURE
       1 MOL1            1 RESIDUE      1      MOL     
@<SCITEGIC>MOL_PROPERTY
VConf Rank
SciTegic.value.IntegerValue
895

@<SCITEGIC>MOL_PROPERTY
Conf_Id
SciTegic.value.IntegerValue
59

@<SCITEGIC>MOL_PROPERTY
Delta U+W
SciTegic.value.DoubleValue
0.000

@<SCITEGIC>MOL_PROPERTY
U+W
SciTegic.value.DoubleValue
3.010

@<SCITEGIC>MOL_PROPERTY
Grad RMS
SciTegic.value.DoubleValue
0.000000

@<SCITEGIC>MOL_PROPERTY
U
SciTegic.value.DoubleValue
5.843

@<SCITEGIC>MOL_PROPERTY
W
SciTegic.value.DoubleValue
-2.833

@<SCITEGIC>MOL_PROPERTY
W(PB)
SciTegic.value.DoubleValue
-4.568

@<SCITEGIC>MOL_PROPERTY
W(SA)
SciTegic.value.DoubleValue
1.735

@<SCITEGIC>MOL_PROPERTY
Valence
SciTegic.value.DoubleValue
13.789

@<SCITEGIC>MOL_PROPERTY
Coulomb
SciTegic.value.DoubleValue
-8.574

@<SCITEGIC>MOL_PROPERTY
VdW
SciTegic.value.DoubleValue
0.628

@<SCITEGIC>MOL_PROPERTY
VdW6
SciTegic.value.DoubleValue
-3.284

@<SCITEGIC>MOL_PROPERTY
VdW12
SciTegic.value.DoubleValue
3.912

@<SCITEGIC>MOL_PROPERTY
Bond
SciTegic.value.DoubleValue
0.054

@<SCITEGIC>MOL_PROPERTY
Angle
SciTegic.value.DoubleValue
4.034

@<SCITEGIC>MOL_PROPERTY
Pdih
SciTegic.value.DoubleValue
9.702

@<SCITEGIC>MOL_PROPERTY
Idih
SciTegic.value.DoubleValue
0.000

@<SCITEGIC>MOL_PROPERTY
Tether
SciTegic.value.DoubleValue
0.000

@<TRIPOS>MOLECULE
guest-4_confgen4.mol2 : confsearch ligand conformer 896
          16          16           1
SMALL
USER_CHARGES
 
@<TRIPOS>ATOM
       1    C1      19.583009   19.861169   22.987803 C.3        1 MOL1        -0.1689
       2    H1      19.945194   20.243607   23.951816 H          1 MOL1         0.0830
       3    H2      19.357023   20.719968   22.340488 H          1 MOL1         0.0830
       4    C2      18.331460   18.985819   23.139836 C.3        1 MOL1        -0.1689
       5    H3      18.429496   18.355304   24.034553 H          1 MOL1         0.0830
       6    H4      17.412895   19.580363   23.236781 H          1 MOL1         0.0830
       7    C3      18.326935   18.098271   21.881537 C.3        1 MOL1        -0.1765
       8    H5      17.765534   18.597089   21.080854 H          1 MOL1         0.0830
       9    H6      17.846818   17.129142   22.072054 H          1 MOL1         0.0830
      10    C4      19.798727   17.946814   21.444860 C.3        1 MOL1         0.1214
      11    H7      19.889519   18.201910   20.378932 H          1 MOL1         0.0787
      12    C5      20.610041   18.944799   22.297815 C.3        1 MOL1        -0.1765
      13    H8      21.189930   18.409138   23.061738 H          1 MOL1         0.0830
      14    H9      21.313448   19.521734   21.683640 H          1 MOL1         0.0830
      15    O1      20.247277   16.618190   21.684561 O.3        1 MOL1        -0.5512
      16    H10     21.185311   16.582594   21.401090 H          1 MOL1         0.3776
@<TRIPOS>BOND
    1     1     2    1
    2     1     3    1
    3     1     4    1
    4     4     5    1
    5     4     6    1
    6     4     7    1
    7     7     8    1
    8     7     9    1
    9     7    10    1
   10    10    11    1
   11     1    12    1
   12    10    12    1
   13    12    13    1
   14    12    14    1
   15    10    15    1
   16    15    16    1
@<TRIPOS>SUBSTRUCTURE
       1 MOL1            1 RESIDUE      1      MOL     
@<SCITEGIC>MOL_PROPERTY
VConf Rank
SciTegic.value.IntegerValue
896

@<SCITEGIC>MOL_PROPERTY
Conf_Id
SciTegic.value.IntegerValue
33

@<SCITEGIC>MOL_PROPERTY
Delta U+W
SciTegic.value.DoubleValue
0.015

@<SCITEGIC>MOL_PROPERTY
U+W
SciTegic.value.DoubleValue
3.025

@<SCITEGIC>MOL_PROPERTY
Grad RMS
SciTegic.value.DoubleValue
0.000000

@<SCITEGIC>MOL_PROPERTY
U
SciTegic.value.DoubleValue
5.843

@<SCITEGIC>MOL_PROPERTY
W
SciTegic.value.DoubleValue
-2.819

@<SCITEGIC>MOL_PROPERTY
W(PB)
SciTegic.value.DoubleValue
-4.568

@<SCITEGIC>MOL_PROPERTY
W(SA)
SciTegic.value.DoubleValue
1.750

@<SCITEGIC>MOL_PROPERTY
Valence
SciTegic.value.DoubleValue
13.789

@<SCITEGIC>MOL_PROPERTY
Coulomb
SciTegic.value.DoubleValue
-8.574

@<SCITEGIC>MOL_PROPERTY
VdW
SciTegic.value.DoubleValue
0.628

@<SCITEGIC>MOL_PROPERTY
VdW6
SciTegic.value.DoubleValue
-3.284

@<SCITEGIC>MOL_PROPERTY
VdW12
SciTegic.value.DoubleValue
3.913

@<SCITEGIC>MOL_PROPERTY
Bond
SciTegic.value.DoubleValue
0.054

@<SCITEGIC>MOL_PROPERTY
Angle
SciTegic.value.DoubleValue
4.033

@<SCITEGIC>MOL_PROPERTY
Pdih
SciTegic.value.DoubleValue
9.702

@<SCITEGIC>MOL_PROPERTY
Idih
SciTegic.value.DoubleValue
0.000

@<SCITEGIC>MOL_PROPERTY
Tether
SciTegic.value.DoubleValue
0.000

@<TRIPOS>MOLECULE
guest-4_confgen4.mol2 : confsearch ligand conformer 897
          16          16           1
SMALL
USER_CHARGES
 
@<TRIPOS>ATOM
       1    C1      19.629586   17.336950   22.575169 C.3        1 MOL1        -0.1689
       2    H1      19.973556   16.720736   21.733034 H          1 MOL1         0.0830
       3    H2      19.610198   16.698664   23.469155 H          1 MOL1         0.0830
       4    C2      18.234027   17.920327   22.263546 C.3        1 MOL1        -0.1689
       5    H3      17.902133   17.585598   21.271059 H          1 MOL1         0.0830
       6    H4      17.484803   17.588008   22.995138 H          1 MOL1         0.0830
       7    C3      18.386973   19.456099   22.284693 C.3        1 MOL1        -0.1765
       8    H5      18.069122   19.842995   23.261884 H          1 MOL1         0.0830
       9    H6      17.774455   19.946023   21.516056 H          1 MOL1         0.0830
      10    C4      19.884432   19.736764   22.100747 C.3        1 MOL1         0.1214
      11    H7      20.177960   20.688422   22.566763 H          1 MOL1         0.0787
      12    C5      20.573157   18.542124   22.774134 C.3        1 MOL1        -0.1765
      13    H8      21.576352   18.356936   22.367551 H          1 MOL1         0.0830
      14    H9      20.680657   18.750720   23.846773 H          1 MOL1         0.0830
      15    O1      20.193866   19.734678   20.714727 O.3        1 MOL1        -0.5512
      16    H10     19.900476   18.858719   20.389488 H          1 MOL1         0.3776
@<TRIPOS>BOND
    1     1     2    1
    2     1     3    1
    3     1     4    1
    4     4     5    1
    5     4     6    1
    6     4     7    1
    7     7     8    1
    8     7     9    1
    9     7    10    1
   10    10    11    1
   11     1    12    1
   12    10    12    1
   13    12    13    1
   14    12    14    1
   15    10    15    1
   16    15    16    1
@<TRIPOS>SUBSTRUCTURE
       1 MOL1            1 RESIDUE      1      MOL     
@<SCITEGIC>MOL_PROPERTY
VConf Rank
SciTegic.value.IntegerValue
897

@<SCITEGIC>MOL_PROPERTY
Conf_Id
SciTegic.value.IntegerValue
20

@<SCITEGIC>MOL_PROPERTY
Delta U+W
SciTegic.value.DoubleValue
-0.483

@<SCITEGIC>MOL_PROPERTY
U+W
SciTegic.value.DoubleValue
2.527

@<SCITEGIC>MOL_PROPERTY
Grad RMS
SciTegic.value.DoubleValue
0.000000

@<SCITEGIC>MOL_PROPERTY
U
SciTegic.value.DoubleValue
4.508

@<SCITEGIC>MOL_PROPERTY
W
SciTegic.value.DoubleValue
-1.981

@<SCITEGIC>MOL_PROPERTY
W(PB)
SciTegic.value.DoubleValue
-3.712

@<SCITEGIC>MOL_PROPERTY
W(SA)
SciTegic.value.DoubleValue
1.732

@<SCITEGIC>MOL_PROPERTY
Valence
SciTegic.value.DoubleValue
14.705

@<SCITEGIC>MOL_PROPERTY
Coulomb
SciTegic.value.DoubleValue
-10.687

@<SCITEGIC>MOL_PROPERTY
VdW
SciTegic.value.DoubleValue
0.490

@<SCITEGIC>MOL_PROPERTY
VdW6
SciTegic.value.DoubleValue
-3.745

@<SCITEGIC>MOL_PROPERTY
VdW12
SciTegic.value.DoubleValue
4.235

@<SCITEGIC>MOL_PROPERTY
Bond
SciTegic.value.DoubleValue
0.068

@<SCITEGIC>MOL_PROPERTY
Angle
SciTegic.value.DoubleValue
3.901

@<SCITEGIC>MOL_PROPERTY
Pdih
SciTegic.value.DoubleValue
10.737

@<SCITEGIC>MOL_PROPERTY
Idih
SciTegic.value.DoubleValue
0.000

@<SCITEGIC>MOL_PROPERTY
Tether
SciTegic.value.DoubleValue
0.000

@<TRIPOS>MOLECULE
guest-4_confgen4.mol2 : confsearch ligand conformer 898
          16          16           1
SMALL
USER_CHARGES
 
@<TRIPOS>ATOM
       1    C1      19.817312   17.899122   23.528171 C.3        1 MOL1        -0.1689
       2    H1      19.049399   17.145717   23.752597 H          1 MOL1         0.0830
       3    H2      20.621467   17.802461   24.270220 H          1 MOL1         0.0830
       4    C2      19.182789   19.296657   23.530093 C.3        1 MOL1        -0.1689
       5    H3      18.442330   19.418395   24.332377 H          1 MOL1         0.0830
       6    H4      19.964300   20.057271   23.665496 H          1 MOL1         0.0830
       7    C3      18.557744   19.435520   22.129882 C.3        1 MOL1        -0.1765
       8    H5      18.533135   20.483304   21.803708 H          1 MOL1         0.0830
       9    H6      17.523643   19.065696   22.155390 H          1 MOL1         0.0830
      10    C4      19.413136   18.566795   21.183679 C.3        1 MOL1         0.1214
      11    H7      20.037567   19.208552   20.545123 H          1 MOL1         0.0787
      12    C5      20.322156   17.707118   22.086160 C.3        1 MOL1        -0.1765
      13    H8      20.318328   16.648486   21.794088 H          1 MOL1         0.0830
      14    H9      21.354454   18.071738   22.005562 H          1 MOL1         0.0830
      15    O1      18.575887   17.731669   20.392814 O.3        1 MOL1        -0.5512
      16    H10     18.015919   18.327035   19.851051 H          1 MOL1         0.3776
@<TRIPOS>BOND
    1     1     2    1
    2     1     3    1
    3     1     4    1
    4     4     5    1
    5     4     6    1
    6     4     7    1
    7     7     8    1
    8     7     9    1
    9     7    10    1
   10    10    11    1
   11     1    12    1
   12    10    12    1
   13    12    13    1
   14    12    14    1
   15    10    15    1
   16    15    16    1
@<TRIPOS>SUBSTRUCTURE
       1 MOL1            1 RESIDUE      1      MOL     
@<SCITEGIC>MOL_PROPERTY
VConf Rank
SciTegic.value.IntegerValue
898

@<SCITEGIC>MOL_PROPERTY
Conf_Id
SciTegic.value.IntegerValue
59

@<SCITEGIC>MOL_PROPERTY
Delta U+W
SciTegic.value.DoubleValue
0.000

@<SCITEGIC>MOL_PROPERTY
U+W
SciTegic.value.DoubleValue
3.010

@<SCITEGIC>MOL_PROPERTY
Grad RMS
SciTegic.value.DoubleValue
0.000000

@<SCITEGIC>MOL_PROPERTY
U
SciTegic.value.DoubleValue
5.843

@<SCITEGIC>MOL_PROPERTY
W
SciTegic.value.DoubleValue
-2.833

@<SCITEGIC>MOL_PROPERTY
W(PB)
SciTegic.value.DoubleValue
-4.568

@<SCITEGIC>MOL_PROPERTY
W(SA)
SciTegic.value.DoubleValue
1.735

@<SCITEGIC>MOL_PROPERTY
Valence
SciTegic.value.DoubleValue
13.789

@<SCITEGIC>MOL_PROPERTY
Coulomb
SciTegic.value.DoubleValue
-8.574

@<SCITEGIC>MOL_PROPERTY
VdW
SciTegic.value.DoubleValue
0.628

@<SCITEGIC>MOL_PROPERTY
VdW6
SciTegic.value.DoubleValue
-3.284

@<SCITEGIC>MOL_PROPERTY
VdW12
SciTegic.value.DoubleValue
3.912

@<SCITEGIC>MOL_PROPERTY
Bond
SciTegic.value.DoubleValue
0.054

@<SCITEGIC>MOL_PROPERTY
Angle
SciTegic.value.DoubleValue
4.034

@<SCITEGIC>MOL_PROPERTY
Pdih
SciTegic.value.DoubleValue
9.702

@<SCITEGIC>MOL_PROPERTY
Idih
SciTegic.value.DoubleValue
0.000

@<SCITEGIC>MOL_PROPERTY
Tether
SciTegic.value.DoubleValue
0.000

@<TRIPOS>MOLECULE
guest-4_confgen4.mol2 : confsearch ligand conformer 899
          16          16           1
SMALL
USER_CHARGES
 
@<TRIPOS>ATOM
       1    C1      18.582858   19.701410   21.947725 C.3        1 MOL1        -0.1689
       2    H1      17.532929   19.874851   21.675095 H          1 MOL1         0.0830
       3    H2      19.064737   20.677630   22.097414 H          1 MOL1         0.0830
       4    C2      19.342017   18.910202   20.873764 C.3        1 MOL1        -0.1689
       5    H3      18.691697   18.122814   20.467827 H          1 MOL1         0.0830
       6    H4      19.674366   19.545181   20.041305 H          1 MOL1         0.0830
       7    C3      20.519868   18.267562   21.629248 C.3        1 MOL1        -0.1765
       8    H5      21.384303   18.943857   21.607743 H          1 MOL1         0.0830
       9    H6      20.826553   17.319095   21.168409 H          1 MOL1         0.0830
      10    C4      20.058998   18.086634   23.090296 C.3        1 MOL1         0.1214
      11    H7      20.810308   18.522531   23.764867 H          1 MOL1         0.0787
      12    C5      18.724156   18.849797   23.222637 C.3        1 MOL1        -0.1765
      13    H8      17.885606   18.142617   23.281914 H          1 MOL1         0.0830
      14    H9      18.703771   19.473335   24.125760 H          1 MOL1         0.0830
      15    O1      19.865854   16.706512   23.376401 O.3        1 MOL1        -0.5512
      16    H10     19.564594   16.651884   24.307952 H          1 MOL1         0.3776
@<TRIPOS>BOND
    1     1     2    1
    2     1     3    1
    3     1     4    1
    4     4     5    1
    5     4     6    1
    6     4     7    1
    7     7     8    1
    8     7     9    1
    9     7    10    1
   10    10    11    1
   11     1    12    1
   12    10    12    1
   13    12    13    1
   14    12    14    1
   15    10    15    1
   16    15    16    1
@<TRIPOS>SUBSTRUCTURE
       1 MOL1            1 RESIDUE      1      MOL     
@<SCITEGIC>MOL_PROPERTY
VConf Rank
SciTegic.value.IntegerValue
899

@<SCITEGIC>MOL_PROPERTY
Conf_Id
SciTegic.value.IntegerValue
33

@<SCITEGIC>MOL_PROPERTY
Delta U+W
SciTegic.value.DoubleValue
0.015

@<SCITEGIC>MOL_PROPERTY
U+W
SciTegic.value.DoubleValue
3.025

@<SCITEGIC>MOL_PROPERTY
Grad RMS
SciTegic.value.DoubleValue
0.000000

@<SCITEGIC>MOL_PROPERTY
U
SciTegic.value.DoubleValue
5.843

@<SCITEGIC>MOL_PROPERTY
W
SciTegic.value.DoubleValue
-2.819

@<SCITEGIC>MOL_PROPERTY
W(PB)
SciTegic.value.DoubleValue
-4.568

@<SCITEGIC>MOL_PROPERTY
W(SA)
SciTegic.value.DoubleValue
1.750

@<SCITEGIC>MOL_PROPERTY
Valence
SciTegic.value.DoubleValue
13.789

@<SCITEGIC>MOL_PROPERTY
Coulomb
SciTegic.value.DoubleValue
-8.574

@<SCITEGIC>MOL_PROPERTY
VdW
SciTegic.value.DoubleValue
0.628

@<SCITEGIC>MOL_PROPERTY
VdW6
SciTegic.value.DoubleValue
-3.284

@<SCITEGIC>MOL_PROPERTY
VdW12
SciTegic.value.DoubleValue
3.913

@<SCITEGIC>MOL_PROPERTY
Bond
SciTegic.value.DoubleValue
0.054

@<SCITEGIC>MOL_PROPERTY
Angle
SciTegic.value.DoubleValue
4.033

@<SCITEGIC>MOL_PROPERTY
Pdih
SciTegic.value.DoubleValue
9.702

@<SCITEGIC>MOL_PROPERTY
Idih
SciTegic.value.DoubleValue
0.000

@<SCITEGIC>MOL_PROPERTY
Tether
SciTegic.value.DoubleValue
0.000

@<TRIPOS>MOLECULE
guest-4_confgen4.mol2 : confsearch ligand conformer 900
          16          16           1
SMALL
USER_CHARGES
 
@<TRIPOS>ATOM
       1    C1      20.066279   17.628126   22.847194 C.3        1 MOL1        -0.1689
       2    H1      19.475818   17.017304   23.543957 H          1 MOL1         0.0830
       3    H2      21.086507   17.220930   22.829219 H          1 MOL1         0.0830
       4    C2      20.051915   19.104272   23.300855 C.3        1 MOL1        -0.1689
       5    H3      19.455392   19.207690   24.217747 H          1 MOL1         0.0830
       6    H4      21.064771   19.469564   23.519221 H          1 MOL1         0.0830
       7    C3      19.407637   19.908954   22.152016 C.3        1 MOL1        -0.1765
       8    H5      20.194924   20.354895   21.529975 H          1 MOL1         0.0830
       9    H6      18.771188   20.724370   22.520845 H          1 MOL1         0.0830
      10    C4      18.622498   18.894043   21.310288 C.3        1 MOL1         0.1214
      11    H7      18.539756   19.215596   20.262080 H          1 MOL1         0.0787
      12    C5      19.431262   17.596415   21.440742 C.3        1 MOL1        -0.1765
      13    H8      18.812409   16.702943   21.283475 H          1 MOL1         0.0830
      14    H9      20.223521   17.592126   20.680526 H          1 MOL1         0.0830
      15    O1      17.337751   18.704176   21.884903 O.3        1 MOL1        -0.5512
      16    H10     17.510124   18.422358   22.806873 H          1 MOL1         0.3776
@<TRIPOS>BOND
    1     1     2    1
    2     1     3    1
    3     1     4    1
    4     4     5    1
    5     4     6    1
    6     4     7    1
    7     7     8    1
    8     7     9    1
    9     7    10    1
   10    10    11    1
   11     1    12    1
   12    10    12    1
   13    12    13    1
   14    12    14    1
   15    10    15    1
   16    15    16    1
@<TRIPOS>SUBSTRUCTURE
       1 MOL1            1 RESIDUE      1      MOL     
@<SCITEGIC>MOL_PROPERTY
VConf Rank
SciTegic.value.IntegerValue
900

@<SCITEGIC>MOL_PROPERTY
Conf_Id
SciTegic.value.IntegerValue
20

@<SCITEGIC>MOL_PROPERTY
Delta U+W
SciTegic.value.DoubleValue
-0.483

@<SCITEGIC>MOL_PROPERTY
U+W
SciTegic.value.DoubleValue
2.527

@<SCITEGIC>MOL_PROPERTY
Grad RMS
SciTegic.value.DoubleValue
0.000000

@<SCITEGIC>MOL_PROPERTY
U
SciTegic.value.DoubleValue
4.508

@<SCITEGIC>MOL_PROPERTY
W
SciTegic.value.DoubleValue
-1.981

@<SCITEGIC>MOL_PROPERTY
W(PB)
SciTegic.value.DoubleValue
-3.712

@<SCITEGIC>MOL_PROPERTY
W(SA)
SciTegic.value.DoubleValue
1.732

@<SCITEGIC>MOL_PROPERTY
Valence
SciTegic.value.DoubleValue
14.705

@<SCITEGIC>MOL_PROPERTY
Coulomb
SciTegic.value.DoubleValue
-10.687

@<SCITEGIC>MOL_PROPERTY
VdW
SciTegic.value.DoubleValue
0.490

@<SCITEGIC>MOL_PROPERTY
VdW6
SciTegic.value.DoubleValue
-3.745

@<SCITEGIC>MOL_PROPERTY
VdW12
SciTegic.value.DoubleValue
4.235

@<SCITEGIC>MOL_PROPERTY
Bond
SciTegic.value.DoubleValue
0.068

@<SCITEGIC>MOL_PROPERTY
Angle
SciTegic.value.DoubleValue
3.901

@<SCITEGIC>MOL_PROPERTY
Pdih
SciTegic.value.DoubleValue
10.737

@<SCITEGIC>MOL_PROPERTY
Idih
SciTegic.value.DoubleValue
0.000

@<SCITEGIC>MOL_PROPERTY
Tether
SciTegic.value.DoubleValue
0.000

@<TRIPOS>MOLECULE
guest-4_confgen4.mol2 : confsearch ligand conformer 901
          16          16           1
SMALL
USER_CHARGES
 
@<TRIPOS>ATOM
       1    C1      18.822387   19.755771   22.932784 C.3        1 MOL1        -0.1689
       2    H1      19.359723   20.585975   22.453505 H          1 MOL1         0.0830
       3    H2      18.080406   20.179156   23.623328 H          1 MOL1         0.0830
       4    C2      19.825158   18.835396   23.642071 C.3        1 MOL1        -0.1689
       5    H3      20.626474   19.396563   24.141814 H          1 MOL1         0.0830
       6    H4      19.303223   18.233796   24.399228 H          1 MOL1         0.0830
       7    C3      20.359605   17.918941   22.526260 C.3        1 MOL1        -0.1765
       8    H5      20.656044   16.938249   22.920232 H          1 MOL1         0.0830
       9    H6      21.245563   18.381043   22.069834 H          1 MOL1         0.0830
      10    C4      19.226246   17.793507   21.486336 C.3        1 MOL1         0.1214
      11    H7      18.764148   16.797650   21.551544 H          1 MOL1         0.0787
      12    C5      18.179605   18.865874   21.852948 C.3        1 MOL1        -0.1765
      13    H8      17.861993   19.453505   20.981263 H          1 MOL1         0.0830
      14    H9      17.289861   18.371743   22.264375 H          1 MOL1         0.0830
      15    O1      19.732355   18.029024   20.177797 O.3        1 MOL1        -0.5512
      16    H10     20.396775   17.329342   20.003092 H          1 MOL1         0.3776
@<TRIPOS>BOND
    1     1     2    1
    2     1     3    1
    3     1     4    1
    4     4     5    1
    5     4     6    1
    6     4     7    1
    7     7     8    1
    8     7     9    1
    9     7    10    1
   10    10    11    1
   11     1    12    1
   12    10    12    1
   13    12    13    1
   14    12    14    1
   15    10    15    1
   16    15    16    1
@<TRIPOS>SUBSTRUCTURE
       1 MOL1            1 RESIDUE      1      MOL     
@<SCITEGIC>MOL_PROPERTY
VConf Rank
SciTegic.value.IntegerValue
901

@<SCITEGIC>MOL_PROPERTY
Conf_Id
SciTegic.value.IntegerValue
59

@<SCITEGIC>MOL_PROPERTY
Delta U+W
SciTegic.value.DoubleValue
0.000

@<SCITEGIC>MOL_PROPERTY
U+W
SciTegic.value.DoubleValue
3.010

@<SCITEGIC>MOL_PROPERTY
Grad RMS
SciTegic.value.DoubleValue
0.000000

@<SCITEGIC>MOL_PROPERTY
U
SciTegic.value.DoubleValue
5.843

@<SCITEGIC>MOL_PROPERTY
W
SciTegic.value.DoubleValue
-2.833

@<SCITEGIC>MOL_PROPERTY
W(PB)
SciTegic.value.DoubleValue
-4.568

@<SCITEGIC>MOL_PROPERTY
W(SA)
SciTegic.value.DoubleValue
1.735

@<SCITEGIC>MOL_PROPERTY
Valence
SciTegic.value.DoubleValue
13.789

@<SCITEGIC>MOL_PROPERTY
Coulomb
SciTegic.value.DoubleValue
-8.574

@<SCITEGIC>MOL_PROPERTY
VdW
SciTegic.value.DoubleValue
0.628

@<SCITEGIC>MOL_PROPERTY
VdW6
SciTegic.value.DoubleValue
-3.284

@<SCITEGIC>MOL_PROPERTY
VdW12
SciTegic.value.DoubleValue
3.912

@<SCITEGIC>MOL_PROPERTY
Bond
SciTegic.value.DoubleValue
0.054

@<SCITEGIC>MOL_PROPERTY
Angle
SciTegic.value.DoubleValue
4.034

@<SCITEGIC>MOL_PROPERTY
Pdih
SciTegic.value.DoubleValue
9.702

@<SCITEGIC>MOL_PROPERTY
Idih
SciTegic.value.DoubleValue
0.000

@<SCITEGIC>MOL_PROPERTY
Tether
SciTegic.value.DoubleValue
0.000

@<TRIPOS>MOLECULE
guest-4_confgen4.mol2 : confsearch ligand conformer 902
          16          16           1
SMALL
USER_CHARGES
 
@<TRIPOS>ATOM
       1    C1      20.184092   19.846727   22.265859 C.3        1 MOL1        -0.1689
       2    H1      20.026301   20.913214   22.476728 H          1 MOL1         0.0830
       3    H2      21.256130   19.687329   22.084343 H          1 MOL1         0.0830
       4    C2      19.377805   19.366025   21.051547 C.3        1 MOL1        -0.1689
       5    H3      18.382937   19.832728   21.061886 H          1 MOL1         0.0830
       6    H4      19.864982   19.615308   20.099099 H          1 MOL1         0.0830
       7    C3      19.236876   17.846837   21.259591 C.3        1 MOL1        -0.1765
       8    H5      20.081063   17.330078   20.784836 H          1 MOL1         0.0830
       9    H6      18.312939   17.460956   20.808528 H          1 MOL1         0.0830
      10    C4      19.290739   17.604559   22.782153 C.3        1 MOL1         0.1214
      11    H7      20.041593   16.831253   23.000640 H          1 MOL1         0.0787
      12    C5      19.711610   18.944931   23.420907 C.3        1 MOL1        -0.1765
      13    H8      18.853436   19.414503   23.920728 H          1 MOL1         0.0830
      14    H9      20.502200   18.804532   24.169306 H          1 MOL1         0.0830
      15    O1      18.010110   17.212743   23.262121 O.3        1 MOL1        -0.5512
      16    H10     18.099802   17.084187   24.230087 H          1 MOL1         0.3776
@<TRIPOS>BOND
    1     1     2    1
    2     1     3    1
    3     1     4    1
    4     4     5    1
    5     4     6    1
    6     4     7    1
    7     7     8    1
    8     7     9    1
    9     7    10    1
   10    10    11    1
   11     1    12    1
   12    10    12    1
   13    12    13    1
   14    12    14    1
   15    10    15    1
   16    15    16    1
@<TRIPOS>SUBSTRUCTURE
       1 MOL1            1 RESIDUE      1      MOL     
@<SCITEGIC>MOL_PROPERTY
VConf Rank
SciTegic.value.IntegerValue
902

@<SCITEGIC>MOL_PROPERTY
Conf_Id
SciTegic.value.IntegerValue
33

@<SCITEGIC>MOL_PROPERTY
Delta U+W
SciTegic.value.DoubleValue
0.015

@<SCITEGIC>MOL_PROPERTY
U+W
SciTegic.value.DoubleValue
3.025

@<SCITEGIC>MOL_PROPERTY
Grad RMS
SciTegic.value.DoubleValue
0.000000

@<SCITEGIC>MOL_PROPERTY
U
SciTegic.value.DoubleValue
5.843

@<SCITEGIC>MOL_PROPERTY
W
SciTegic.value.DoubleValue
-2.819

@<SCITEGIC>MOL_PROPERTY
W(PB)
SciTegic.value.DoubleValue
-4.568

@<SCITEGIC>MOL_PROPERTY
W(SA)
SciTegic.value.DoubleValue
1.750

@<SCITEGIC>MOL_PROPERTY
Valence
SciTegic.value.DoubleValue
13.789

@<SCITEGIC>MOL_PROPERTY
Coulomb
SciTegic.value.DoubleValue
-8.574

@<SCITEGIC>MOL_PROPERTY
VdW
SciTegic.value.DoubleValue
0.628

@<SCITEGIC>MOL_PROPERTY
VdW6
SciTegic.value.DoubleValue
-3.284

@<SCITEGIC>MOL_PROPERTY
VdW12
SciTegic.value.DoubleValue
3.913

@<SCITEGIC>MOL_PROPERTY
Bond
SciTegic.value.DoubleValue
0.054

@<SCITEGIC>MOL_PROPERTY
Angle
SciTegic.value.DoubleValue
4.033

@<SCITEGIC>MOL_PROPERTY
Pdih
SciTegic.value.DoubleValue
9.702

@<SCITEGIC>MOL_PROPERTY
Idih
SciTegic.value.DoubleValue
0.000

@<SCITEGIC>MOL_PROPERTY
Tether
SciTegic.value.DoubleValue
0.000

@<TRIPOS>MOLECULE
guest-4_confgen4.mol2 : confsearch ligand conformer 903
          16          16           1
SMALL
USER_CHARGES
 
@<TRIPOS>ATOM
       1    C1      18.706610   17.809298   21.426031 C.3        1 MOL1        -0.1689
       2    H1      18.658112   16.760221   21.749003 H          1 MOL1         0.0830
       3    H2      18.149813   17.893698   20.482711 H          1 MOL1         0.0830
       4    C2      20.180225   18.238931   21.256043 C.3        1 MOL1        -0.1689
       5    H3      20.844875   17.397490   21.495717 H          1 MOL1         0.0830
       6    H4      20.394030   18.549051   20.224000 H          1 MOL1         0.0830
       7    C3      20.414006   19.401297   22.244318 C.3        1 MOL1        -0.1765
       8    H5      20.321370   20.358148   21.713776 H          1 MOL1         0.0830
       9    H6      21.413111   19.366633   22.698843 H          1 MOL1         0.0830
      10    C4      19.295712   19.301277   23.290457 C.3        1 MOL1         0.1214
      11    H7      19.059912   20.283041   23.725796 H          1 MOL1         0.0787
      12    C5      18.104924   18.729000   22.509766 C.3        1 MOL1        -0.1765
      13    H8      17.397424   18.197957   23.160490 H          1 MOL1         0.0830
      14    H9      17.562808   19.554826   22.030450 H          1 MOL1         0.0830
      15    O1      19.680270   18.378828   24.299422 O.3        1 MOL1        -0.5512
      16    H10     19.868549   17.544067   23.823093 H          1 MOL1         0.3776
@<TRIPOS>BOND
    1     1     2    1
    2     1     3    1
    3     1     4    1
    4     4     5    1
    5     4     6    1
    6     4     7    1
    7     7     8    1
    8     7     9    1
    9     7    10    1
   10    10    11    1
   11     1    12    1
   12    10    12    1
   13    12    13    1
   14    12    14    1
   15    10    15    1
   16    15    16    1
@<TRIPOS>SUBSTRUCTURE
       1 MOL1            1 RESIDUE      1      MOL     
@<SCITEGIC>MOL_PROPERTY
VConf Rank
SciTegic.value.IntegerValue
903

@<SCITEGIC>MOL_PROPERTY
Conf_Id
SciTegic.value.IntegerValue
20

@<SCITEGIC>MOL_PROPERTY
Delta U+W
SciTegic.value.DoubleValue
-0.483

@<SCITEGIC>MOL_PROPERTY
U+W
SciTegic.value.DoubleValue
2.527

@<SCITEGIC>MOL_PROPERTY
Grad RMS
SciTegic.value.DoubleValue
0.000000

@<SCITEGIC>MOL_PROPERTY
U
SciTegic.value.DoubleValue
4.508

@<SCITEGIC>MOL_PROPERTY
W
SciTegic.value.DoubleValue
-1.981

@<SCITEGIC>MOL_PROPERTY
W(PB)
SciTegic.value.DoubleValue
-3.712

@<SCITEGIC>MOL_PROPERTY
W(SA)
SciTegic.value.DoubleValue
1.732

@<SCITEGIC>MOL_PROPERTY
Valence
SciTegic.value.DoubleValue
14.705

@<SCITEGIC>MOL_PROPERTY
Coulomb
SciTegic.value.DoubleValue
-10.687

@<SCITEGIC>MOL_PROPERTY
VdW
SciTegic.value.DoubleValue
0.490

@<SCITEGIC>MOL_PROPERTY
VdW6
SciTegic.value.DoubleValue
-3.745

@<SCITEGIC>MOL_PROPERTY
VdW12
SciTegic.value.DoubleValue
4.235

@<SCITEGIC>MOL_PROPERTY
Bond
SciTegic.value.DoubleValue
0.068

@<SCITEGIC>MOL_PROPERTY
Angle
SciTegic.value.DoubleValue
3.901

@<SCITEGIC>MOL_PROPERTY
Pdih
SciTegic.value.DoubleValue
10.737

@<SCITEGIC>MOL_PROPERTY
Idih
SciTegic.value.DoubleValue
0.000

@<SCITEGIC>MOL_PROPERTY
Tether
SciTegic.value.DoubleValue
0.000

@<TRIPOS>MOLECULE
guest-4_confgen4.mol2 : confsearch ligand conformer 904
          16          16           1
SMALL
USER_CHARGES
 
@<TRIPOS>ATOM
       1    C1      20.503150   18.780807   23.180853 C.3        1 MOL1        -0.1689
       2    H1      20.778711   17.784641   23.554213 H          1 MOL1         0.0830
       3    H2      21.231019   19.506812   23.567850 H          1 MOL1         0.0830
       4    C2      19.065171   19.109421   23.605063 C.3        1 MOL1        -0.1689
       5    H3      18.843077   18.771304   24.626391 H          1 MOL1         0.0830
       6    H4      18.905729   20.195798   23.560476 H          1 MOL1         0.0830
       7    C3      18.185891   18.410226   22.552186 C.3        1 MOL1        -0.1765
       8    H5      17.235528   18.940042   22.407438 H          1 MOL1         0.0830
       9    H6      17.955715   17.390668   22.890279 H          1 MOL1         0.0830
      10    C4      19.015511   18.367791   21.251568 C.3        1 MOL1         0.1214
      11    H7      18.622702   19.099478   20.530559 H          1 MOL1         0.0787
      12    C5      20.455619   18.759682   21.641884 C.3        1 MOL1        -0.1765
      13    H8      21.202633   18.071812   21.223762 H          1 MOL1         0.0830
      14    H9      20.671421   19.763229   21.252779 H          1 MOL1         0.0830
      15    O1      18.996316   17.056751   20.699578 O.3        1 MOL1        -0.5512
      16    H10     18.061373   16.857073   20.481534 H          1 MOL1         0.3776
@<TRIPOS>BOND
    1     1     2    1
    2     1     3    1
    3     1     4    1
    4     4     5    1
    5     4     6    1
    6     4     7    1
    7     7     8    1
    8     7     9    1
    9     7    10    1
   10    10    11    1
   11     1    12    1
   12    10    12    1
   13    12    13    1
   14    12    14    1
   15    10    15    1
   16    15    16    1
@<TRIPOS>SUBSTRUCTURE
       1 MOL1            1 RESIDUE      1      MOL     
@<SCITEGIC>MOL_PROPERTY
VConf Rank
SciTegic.value.IntegerValue
904

@<SCITEGIC>MOL_PROPERTY
Conf_Id
SciTegic.value.IntegerValue
59

@<SCITEGIC>MOL_PROPERTY
Delta U+W
SciTegic.value.DoubleValue
0.000

@<SCITEGIC>MOL_PROPERTY
U+W
SciTegic.value.DoubleValue
3.010

@<SCITEGIC>MOL_PROPERTY
Grad RMS
SciTegic.value.DoubleValue
0.000000

@<SCITEGIC>MOL_PROPERTY
U
SciTegic.value.DoubleValue
5.843

@<SCITEGIC>MOL_PROPERTY
W
SciTegic.value.DoubleValue
-2.833

@<SCITEGIC>MOL_PROPERTY
W(PB)
SciTegic.value.DoubleValue
-4.568

@<SCITEGIC>MOL_PROPERTY
W(SA)
SciTegic.value.DoubleValue
1.735

@<SCITEGIC>MOL_PROPERTY
Valence
SciTegic.value.DoubleValue
13.789

@<SCITEGIC>MOL_PROPERTY
Coulomb
SciTegic.value.DoubleValue
-8.574

@<SCITEGIC>MOL_PROPERTY
VdW
SciTegic.value.DoubleValue
0.628

@<SCITEGIC>MOL_PROPERTY
VdW6
SciTegic.value.DoubleValue
-3.284

@<SCITEGIC>MOL_PROPERTY
VdW12
SciTegic.value.DoubleValue
3.912

@<SCITEGIC>MOL_PROPERTY
Bond
SciTegic.value.DoubleValue
0.054

@<SCITEGIC>MOL_PROPERTY
Angle
SciTegic.value.DoubleValue
4.034

@<SCITEGIC>MOL_PROPERTY
Pdih
SciTegic.value.DoubleValue
9.702

@<SCITEGIC>MOL_PROPERTY
Idih
SciTegic.value.DoubleValue
0.000

@<SCITEGIC>MOL_PROPERTY
Tether
SciTegic.value.DoubleValue
0.000

@<TRIPOS>MOLECULE
guest-4_confgen4.mol2 : confsearch ligand conformer 905
          16          16           1
SMALL
USER_CHARGES
 
@<TRIPOS>ATOM
       1    C1      19.080266   17.294501   21.861244 C.3        1 MOL1        -0.1689
       2    H1      18.593323   16.394186   22.260090 H          1 MOL1         0.0830
       3    H2      19.219553   17.159219   20.779616 H          1 MOL1         0.0830
       4    C2      20.436263   17.568182   22.526148 C.3        1 MOL1        -0.1689
       5    H3      20.369776   17.350829   23.601330 H          1 MOL1         0.0830
       6    H4      21.243272   16.956368   22.100633 H          1 MOL1         0.0830
       7    C3      20.669885   19.075936   22.318365 C.3        1 MOL1        -0.1765
       8    H5      21.206165   19.239032   21.374497 H          1 MOL1         0.0830
       9    H6      21.277184   19.506059   23.125955 H          1 MOL1         0.0830
      10    C4      19.275101   19.728161   22.223599 C.3        1 MOL1         0.1214
      11    H7      19.225662   20.350149   21.317947 H          1 MOL1         0.0787
      12    C5      18.259611   18.570214   22.125241 C.3        1 MOL1        -0.1765
      13    H8      17.713476   18.461378   23.072169 H          1 MOL1         0.0830
      14    H9      17.523720   18.745463   21.329880 H          1 MOL1         0.0830
      15    O1      19.018626   20.508671   23.385030 O.3        1 MOL1        -0.5512
      16    H10     18.120731   20.887564   23.276614 H          1 MOL1         0.3776
@<TRIPOS>BOND
    1     1     2    1
    2     1     3    1
    3     1     4    1
    4     4     5    1
    5     4     6    1
    6     4     7    1
    7     7     8    1
    8     7     9    1
    9     7    10    1
   10    10    11    1
   11     1    12    1
   12    10    12    1
   13    12    13    1
   14    12    14    1
   15    10    15    1
   16    15    16    1
@<TRIPOS>SUBSTRUCTURE
       1 MOL1            1 RESIDUE      1      MOL     
@<SCITEGIC>MOL_PROPERTY
VConf Rank
SciTegic.value.IntegerValue
905

@<SCITEGIC>MOL_PROPERTY
Conf_Id
SciTegic.value.IntegerValue
33

@<SCITEGIC>MOL_PROPERTY
Delta U+W
SciTegic.value.DoubleValue
0.015

@<SCITEGIC>MOL_PROPERTY
U+W
SciTegic.value.DoubleValue
3.025

@<SCITEGIC>MOL_PROPERTY
Grad RMS
SciTegic.value.DoubleValue
0.000000

@<SCITEGIC>MOL_PROPERTY
U
SciTegic.value.DoubleValue
5.843

@<SCITEGIC>MOL_PROPERTY
W
SciTegic.value.DoubleValue
-2.819

@<SCITEGIC>MOL_PROPERTY
W(PB)
SciTegic.value.DoubleValue
-4.568

@<SCITEGIC>MOL_PROPERTY
W(SA)
SciTegic.value.DoubleValue
1.750

@<SCITEGIC>MOL_PROPERTY
Valence
SciTegic.value.DoubleValue
13.789

@<SCITEGIC>MOL_PROPERTY
Coulomb
SciTegic.value.DoubleValue
-8.574

@<SCITEGIC>MOL_PROPERTY
VdW
SciTegic.value.DoubleValue
0.628

@<SCITEGIC>MOL_PROPERTY
VdW6
SciTegic.value.DoubleValue
-3.284

@<SCITEGIC>MOL_PROPERTY
VdW12
SciTegic.value.DoubleValue
3.913

@<SCITEGIC>MOL_PROPERTY
Bond
SciTegic.value.DoubleValue
0.054

@<SCITEGIC>MOL_PROPERTY
Angle
SciTegic.value.DoubleValue
4.033

@<SCITEGIC>MOL_PROPERTY
Pdih
SciTegic.value.DoubleValue
9.702

@<SCITEGIC>MOL_PROPERTY
Idih
SciTegic.value.DoubleValue
0.000

@<SCITEGIC>MOL_PROPERTY
Tether
SciTegic.value.DoubleValue
0.000

@<TRIPOS>MOLECULE
guest-4_confgen4.mol2 : confsearch ligand conformer 906
          16          16           1
SMALL
USER_CHARGES
 
@<TRIPOS>ATOM
       1    C1      18.763384   19.515627   21.491845 C.3        1 MOL1        -0.1689
       2    H1      18.321866   20.353901   22.048249 H          1 MOL1         0.0830
       3    H2      18.573924   19.688095   20.423502 H          1 MOL1         0.0830
       4    C2      18.145079   18.183850   21.970479 C.3        1 MOL1        -0.1689
       5    H3      17.403569   18.377665   22.757769 H          1 MOL1         0.0830
       6    H4      17.633037   17.659156   21.152245 H          1 MOL1         0.0830
       7    C3      19.308189   17.337503   22.530218 C.3        1 MOL1        -0.1765
       8    H5      19.649087   16.629661   21.763166 H          1 MOL1         0.0830
       9    H6      19.012332   16.756030   23.413599 H          1 MOL1         0.0830
      10    C4      20.442690   18.324274   22.837110 C.3        1 MOL1         0.1214
      11    H7      21.428295   17.841740   22.768364 H          1 MOL1         0.0787
      12    C5      20.277089   19.423532   21.779204 C.3        1 MOL1        -0.1765
      13    H8      20.697649   20.383446   22.107378 H          1 MOL1         0.0830
      14    H9      20.806238   19.121797   20.865651 H          1 MOL1         0.0830
      15    O1      20.240785   18.882526   24.127225 O.3        1 MOL1        -0.5512
      16    H10     19.348541   19.284961   24.093911 H          1 MOL1         0.3776
@<TRIPOS>BOND
    1     1     2    1
    2     1     3    1
    3     1     4    1
    4     4     5    1
    5     4     6    1
    6     4     7    1
    7     7     8    1
    8     7     9    1
    9     7    10    1
   10    10    11    1
   11     1    12    1
   12    10    12    1
   13    12    13    1
   14    12    14    1
   15    10    15    1
   16    15    16    1
@<TRIPOS>SUBSTRUCTURE
       1 MOL1            1 RESIDUE      1      MOL     
@<SCITEGIC>MOL_PROPERTY
VConf Rank
SciTegic.value.IntegerValue
906

@<SCITEGIC>MOL_PROPERTY
Conf_Id
SciTegic.value.IntegerValue
20

@<SCITEGIC>MOL_PROPERTY
Delta U+W
SciTegic.value.DoubleValue
-0.483

@<SCITEGIC>MOL_PROPERTY
U+W
SciTegic.value.DoubleValue
2.527

@<SCITEGIC>MOL_PROPERTY
Grad RMS
SciTegic.value.DoubleValue
0.000000

@<SCITEGIC>MOL_PROPERTY
U
SciTegic.value.DoubleValue
4.508

@<SCITEGIC>MOL_PROPERTY
W
SciTegic.value.DoubleValue
-1.981

@<SCITEGIC>MOL_PROPERTY
W(PB)
SciTegic.value.DoubleValue
-3.712

@<SCITEGIC>MOL_PROPERTY
W(SA)
SciTegic.value.DoubleValue
1.732

@<SCITEGIC>MOL_PROPERTY
Valence
SciTegic.value.DoubleValue
14.705

@<SCITEGIC>MOL_PROPERTY
Coulomb
SciTegic.value.DoubleValue
-10.687

@<SCITEGIC>MOL_PROPERTY
VdW
SciTegic.value.DoubleValue
0.490

@<SCITEGIC>MOL_PROPERTY
VdW6
SciTegic.value.DoubleValue
-3.745

@<SCITEGIC>MOL_PROPERTY
VdW12
SciTegic.value.DoubleValue
4.235

@<SCITEGIC>MOL_PROPERTY
Bond
SciTegic.value.DoubleValue
0.068

@<SCITEGIC>MOL_PROPERTY
Angle
SciTegic.value.DoubleValue
3.901

@<SCITEGIC>MOL_PROPERTY
Pdih
SciTegic.value.DoubleValue
10.737

@<SCITEGIC>MOL_PROPERTY
Idih
SciTegic.value.DoubleValue
0.000

@<SCITEGIC>MOL_PROPERTY
Tether
SciTegic.value.DoubleValue
0.000

@<TRIPOS>MOLECULE
guest-4_confgen4.mol2 : confsearch ligand conformer 907
          16          16           1
SMALL
USER_CHARGES
 
@<TRIPOS>ATOM
       1    C1      19.002511   19.932910   22.607655 C.3        1 MOL1        -0.1689
       2    H1      18.544497   19.901987   23.606126 H          1 MOL1         0.0830
       3    H2      19.049312   20.981221   22.282850 H          1 MOL1         0.0830
       4    C2      18.192651   19.055912   21.642912 C.3        1 MOL1        -0.1689
       5    H3      17.109999   19.143742   21.806952 H          1 MOL1         0.0830
       6    H4      18.408108   19.350324   20.606319 H          1 MOL1         0.0830
       7    C3      18.709853   17.628179   21.897153 C.3        1 MOL1        -0.1765
       8    H5      18.629952   17.006237   20.996237 H          1 MOL1         0.0830
       9    H6      18.106702   17.158433   22.686033 H          1 MOL1         0.0830
      10    C4      20.175379   17.772294   22.358830 C.3        1 MOL1         0.1214
      11    H7      20.856122   17.460178   21.553417 H          1 MOL1         0.0787
      12    C5      20.391667   19.270372   22.656851 C.3        1 MOL1        -0.1765
      13    H8      20.884522   19.436007   23.624157 H          1 MOL1         0.0830
      14    H9      21.033272   19.701407   21.877343 H          1 MOL1         0.0830
      15    O1      20.398143   17.001226   23.533444 O.3        1 MOL1        -0.5512
      16    H10     20.236875   16.065105   23.290131 H          1 MOL1         0.3776
@<TRIPOS>BOND
    1     1     2    1
    2     1     3    1
    3     1     4    1
    4     4     5    1
    5     4     6    1
    6     4     7    1
    7     7     8    1
    8     7     9    1
    9     7    10    1
   10    10    11    1
   11     1    12    1
   12    10    12    1
   13    12    13    1
   14    12    14    1
   15    10    15    1
   16    15    16    1
@<TRIPOS>SUBSTRUCTURE
       1 MOL1            1 RESIDUE      1      MOL     
@<SCITEGIC>MOL_PROPERTY
VConf Rank
SciTegic.value.IntegerValue
907

@<SCITEGIC>MOL_PROPERTY
Conf_Id
SciTegic.value.IntegerValue
59

@<SCITEGIC>MOL_PROPERTY
Delta U+W
SciTegic.value.DoubleValue
0.000

@<SCITEGIC>MOL_PROPERTY
U+W
SciTegic.value.DoubleValue
3.010

@<SCITEGIC>MOL_PROPERTY
Grad RMS
SciTegic.value.DoubleValue
0.000000

@<SCITEGIC>MOL_PROPERTY
U
SciTegic.value.DoubleValue
5.843

@<SCITEGIC>MOL_PROPERTY
W
SciTegic.value.DoubleValue
-2.833

@<SCITEGIC>MOL_PROPERTY
W(PB)
SciTegic.value.DoubleValue
-4.568

@<SCITEGIC>MOL_PROPERTY
W(SA)
SciTegic.value.DoubleValue
1.735

@<SCITEGIC>MOL_PROPERTY
Valence
SciTegic.value.DoubleValue
13.789

@<SCITEGIC>MOL_PROPERTY
Coulomb
SciTegic.value.DoubleValue
-8.574

@<SCITEGIC>MOL_PROPERTY
VdW
SciTegic.value.DoubleValue
0.628

@<SCITEGIC>MOL_PROPERTY
VdW6
SciTegic.value.DoubleValue
-3.284

@<SCITEGIC>MOL_PROPERTY
VdW12
SciTegic.value.DoubleValue
3.912

@<SCITEGIC>MOL_PROPERTY
Bond
SciTegic.value.DoubleValue
0.054

@<SCITEGIC>MOL_PROPERTY
Angle
SciTegic.value.DoubleValue
4.034

@<SCITEGIC>MOL_PROPERTY
Pdih
SciTegic.value.DoubleValue
9.702

@<SCITEGIC>MOL_PROPERTY
Idih
SciTegic.value.DoubleValue
0.000

@<SCITEGIC>MOL_PROPERTY
Tether
SciTegic.value.DoubleValue
0.000

@<TRIPOS>MOLECULE
guest-4_confgen4.mol2 : confsearch ligand conformer 908
          16          16           1
SMALL
USER_CHARGES
 
@<TRIPOS>ATOM
       1    C1      19.519633   17.821299   21.096408 C.3        1 MOL1        -0.1689
       2    H1      18.865589   17.196293   20.473228 H          1 MOL1         0.0830
       3    H2      20.475912   17.949077   20.570268 H          1 MOL1         0.0830
       4    C2      19.769878   17.206136   22.480127 C.3        1 MOL1        -0.1689
       5    H3      18.841629   16.752767   22.854947 H          1 MOL1         0.0830
       6    H4      20.547860   16.430902   22.460147 H          1 MOL1         0.0830
       7    C3      20.155172   18.402541   23.369645 C.3        1 MOL1        -0.1765
       8    H5      21.242984   18.547310   23.341522 H          1 MOL1         0.0830
       9    H6      19.867382   18.237287   24.416491 H          1 MOL1         0.0830
      10    C4      19.466887   19.642153   22.761841 C.3        1 MOL1         0.1214
      11    H7      20.211922   20.438706   22.620616 H          1 MOL1         0.0787
      12    C5      18.901606   19.199351   21.395781 C.3        1 MOL1        -0.1765
      13    H8      17.808565   19.103444   21.449117 H          1 MOL1         0.0830
      14    H9      19.138247   19.924962   20.606898 H          1 MOL1         0.0830
      15    O1      18.412958   20.083097   23.609603 O.3        1 MOL1        -0.5512
      16    H10     18.006391   20.860586   23.171718 H          1 MOL1         0.3776
@<TRIPOS>BOND
    1     1     2    1
    2     1     3    1
    3     1     4    1
    4     4     5    1
    5     4     6    1
    6     4     7    1
    7     7     8    1
    8     7     9    1
    9     7    10    1
   10    10    11    1
   11     1    12    1
   12    10    12    1
   13    12    13    1
   14    12    14    1
   15    10    15    1
   16    15    16    1
@<TRIPOS>SUBSTRUCTURE
       1 MOL1            1 RESIDUE      1      MOL     
@<SCITEGIC>MOL_PROPERTY
VConf Rank
SciTegic.value.IntegerValue
908

@<SCITEGIC>MOL_PROPERTY
Conf_Id
SciTegic.value.IntegerValue
33

@<SCITEGIC>MOL_PROPERTY
Delta U+W
SciTegic.value.DoubleValue
0.015

@<SCITEGIC>MOL_PROPERTY
U+W
SciTegic.value.DoubleValue
3.025

@<SCITEGIC>MOL_PROPERTY
Grad RMS
SciTegic.value.DoubleValue
0.000000

@<SCITEGIC>MOL_PROPERTY
U
SciTegic.value.DoubleValue
5.843

@<SCITEGIC>MOL_PROPERTY
W
SciTegic.value.DoubleValue
-2.819

@<SCITEGIC>MOL_PROPERTY
W(PB)
SciTegic.value.DoubleValue
-4.568

@<SCITEGIC>MOL_PROPERTY
W(SA)
SciTegic.value.DoubleValue
1.750

@<SCITEGIC>MOL_PROPERTY
Valence
SciTegic.value.DoubleValue
13.789

@<SCITEGIC>MOL_PROPERTY
Coulomb
SciTegic.value.DoubleValue
-8.574

@<SCITEGIC>MOL_PROPERTY
VdW
SciTegic.value.DoubleValue
0.628

@<SCITEGIC>MOL_PROPERTY
VdW6
SciTegic.value.DoubleValue
-3.284

@<SCITEGIC>MOL_PROPERTY
VdW12
SciTegic.value.DoubleValue
3.913

@<SCITEGIC>MOL_PROPERTY
Bond
SciTegic.value.DoubleValue
0.054

@<SCITEGIC>MOL_PROPERTY
Angle
SciTegic.value.DoubleValue
4.033

@<SCITEGIC>MOL_PROPERTY
Pdih
SciTegic.value.DoubleValue
9.702

@<SCITEGIC>MOL_PROPERTY
Idih
SciTegic.value.DoubleValue
0.000

@<SCITEGIC>MOL_PROPERTY
Tether
SciTegic.value.DoubleValue
0.000

@<TRIPOS>MOLECULE
guest-4_confgen4.mol2 : confsearch ligand conformer 909
          16          16           1
SMALL
USER_CHARGES
 
@<TRIPOS>ATOM
       1    C1      19.312466   19.847194   22.758680 C.3        1 MOL1        -0.1689
       2    H1      20.286843   20.342951   22.868412 H          1 MOL1         0.0830
       3    H2      18.539753   20.553443   23.092033 H          1 MOL1         0.0830
       4    C2      19.288813   18.545694   23.589680 C.3        1 MOL1        -0.1689
       5    H3      20.251348   18.412109   24.102425 H          1 MOL1         0.0830
       6    H4      18.503032   18.570717   24.357092 H          1 MOL1         0.0830
       7    C3      19.052280   17.392933   22.590866 C.3        1 MOL1        -0.1765
       8    H5      17.986977   17.127059   22.583090 H          1 MOL1         0.0830
       9    H6      19.619934   16.490596   22.854614 H          1 MOL1         0.0830
      10    C4      19.439325   17.940351   21.210459 C.3        1 MOL1         0.1214
      11    H7      18.885520   17.436163   20.405427 H          1 MOL1         0.0787
      12    C5      19.088108   19.432136   21.289071 C.3        1 MOL1        -0.1765
      13    H8      19.681863   20.036663   20.590497 H          1 MOL1         0.0830
      14    H9      18.029636   19.563449   21.028272 H          1 MOL1         0.0830
      15    O1      20.840463   17.798767   21.027227 O.3        1 MOL1        -0.5512
      16    H10     21.245392   18.273539   21.782069 H          1 MOL1         0.3776
@<TRIPOS>BOND
    1     1     2    1
    2     1     3    1
    3     1     4    1
    4     4     5    1
    5     4     6    1
    6     4     7    1
    7     7     8    1
    8     7     9    1
    9     7    10    1
   10    10    11    1
   11     1    12    1
   12    10    12    1
   13    12    13    1
   14    12    14    1
   15    10    15    1
   16    15    16    1
@<TRIPOS>SUBSTRUCTURE
       1 MOL1            1 RESIDUE      1      MOL     
@<SCITEGIC>MOL_PROPERTY
VConf Rank
SciTegic.value.IntegerValue
909

@<SCITEGIC>MOL_PROPERTY
Conf_Id
SciTegic.value.IntegerValue
20

@<SCITEGIC>MOL_PROPERTY
Delta U+W
SciTegic.value.DoubleValue
-0.483

@<SCITEGIC>MOL_PROPERTY
U+W
SciTegic.value.DoubleValue
2.527

@<SCITEGIC>MOL_PROPERTY
Grad RMS
SciTegic.value.DoubleValue
0.000000

@<SCITEGIC>MOL_PROPERTY
U
SciTegic.value.DoubleValue
4.508

@<SCITEGIC>MOL_PROPERTY
W
SciTegic.value.DoubleValue
-1.981

@<SCITEGIC>MOL_PROPERTY
W(PB)
SciTegic.value.DoubleValue
-3.712

@<SCITEGIC>MOL_PROPERTY
W(SA)
SciTegic.value.DoubleValue
1.732

@<SCITEGIC>MOL_PROPERTY
Valence
SciTegic.value.DoubleValue
14.705

@<SCITEGIC>MOL_PROPERTY
Coulomb
SciTegic.value.DoubleValue
-10.687

@<SCITEGIC>MOL_PROPERTY
VdW
SciTegic.value.DoubleValue
0.490

@<SCITEGIC>MOL_PROPERTY
VdW6
SciTegic.value.DoubleValue
-3.745

@<SCITEGIC>MOL_PROPERTY
VdW12
SciTegic.value.DoubleValue
4.235

@<SCITEGIC>MOL_PROPERTY
Bond
SciTegic.value.DoubleValue
0.068

@<SCITEGIC>MOL_PROPERTY
Angle
SciTegic.value.DoubleValue
3.901

@<SCITEGIC>MOL_PROPERTY
Pdih
SciTegic.value.DoubleValue
10.737

@<SCITEGIC>MOL_PROPERTY
Idih
SciTegic.value.DoubleValue
0.000

@<SCITEGIC>MOL_PROPERTY
Tether
SciTegic.value.DoubleValue
0.000

@<TRIPOS>MOLECULE
guest-4_confgen4.mol2 : confsearch ligand conformer 910
          16          16           1
SMALL
USER_CHARGES
 
@<TRIPOS>ATOM
       1    C1      18.588510   19.632734   21.715828 C.3        1 MOL1        -0.1689
       2    H1      18.865965   19.624027   20.652522 H          1 MOL1         0.0830
       3    H2      17.818100   20.401573   21.864151 H          1 MOL1         0.0830
       4    C2      19.838080   19.882282   22.571413 C.3        1 MOL1        -0.1689
       5    H3      20.509974   20.626643   22.122809 H          1 MOL1         0.0830
       6    H4      19.539430   20.243753   23.565281 H          1 MOL1         0.0830
       7    C3      20.498763   18.497323   22.697672 C.3        1 MOL1        -0.1765
       8    H5      21.057637   18.403702   23.637747 H          1 MOL1         0.0830
       9    H6      21.205963   18.355322   21.869126 H          1 MOL1         0.0830
      10    C4      19.357935   17.461671   22.610402 C.3        1 MOL1         0.1214
      11    H7      19.163488   17.031337   23.603640 H          1 MOL1         0.0787
      12    C5      18.108202   18.231010   22.134884 C.3        1 MOL1        -0.1765
      13    H8      17.590902   17.718427   21.312886 H          1 MOL1         0.0830
      14    H9      17.401949   18.318143   22.970764 H          1 MOL1         0.0830
      15    O1      19.691158   16.441771   21.676241 O.3        1 MOL1        -0.5512
      16    H10     20.493510   15.995817   22.021044 H          1 MOL1         0.3776
@<TRIPOS>BOND
    1     1     2    1
    2     1     3    1
    3     1     4    1
    4     4     5    1
    5     4     6    1
    6     4     7    1
    7     7     8    1
    8     7     9    1
    9     7    10    1
   10    10    11    1
   11     1    12    1
   12    10    12    1
   13    12    13    1
   14    12    14    1
   15    10    15    1
   16    15    16    1
@<TRIPOS>SUBSTRUCTURE
       1 MOL1            1 RESIDUE      1      MOL     
@<SCITEGIC>MOL_PROPERTY
VConf Rank
SciTegic.value.IntegerValue
910

@<SCITEGIC>MOL_PROPERTY
Conf_Id
SciTegic.value.IntegerValue
59

@<SCITEGIC>MOL_PROPERTY
Delta U+W
SciTegic.value.DoubleValue
0.000

@<SCITEGIC>MOL_PROPERTY
U+W
SciTegic.value.DoubleValue
3.010

@<SCITEGIC>MOL_PROPERTY
Grad RMS
SciTegic.value.DoubleValue
0.000000

@<SCITEGIC>MOL_PROPERTY
U
SciTegic.value.DoubleValue
5.843

@<SCITEGIC>MOL_PROPERTY
W
SciTegic.value.DoubleValue
-2.833

@<SCITEGIC>MOL_PROPERTY
W(PB)
SciTegic.value.DoubleValue
-4.568

@<SCITEGIC>MOL_PROPERTY
W(SA)
SciTegic.value.DoubleValue
1.735

@<SCITEGIC>MOL_PROPERTY
Valence
SciTegic.value.DoubleValue
13.789

@<SCITEGIC>MOL_PROPERTY
Coulomb
SciTegic.value.DoubleValue
-8.574

@<SCITEGIC>MOL_PROPERTY
VdW
SciTegic.value.DoubleValue
0.628

@<SCITEGIC>MOL_PROPERTY
VdW6
SciTegic.value.DoubleValue
-3.284

@<SCITEGIC>MOL_PROPERTY
VdW12
SciTegic.value.DoubleValue
3.912

@<SCITEGIC>MOL_PROPERTY
Bond
SciTegic.value.DoubleValue
0.054

@<SCITEGIC>MOL_PROPERTY
Angle
SciTegic.value.DoubleValue
4.034

@<SCITEGIC>MOL_PROPERTY
Pdih
SciTegic.value.DoubleValue
9.702

@<SCITEGIC>MOL_PROPERTY
Idih
SciTegic.value.DoubleValue
0.000

@<SCITEGIC>MOL_PROPERTY
Tether
SciTegic.value.DoubleValue
0.000

@<TRIPOS>MOLECULE
guest-4_confgen4.mol2 : confsearch ligand conformer 911
          16          16           1
SMALL
USER_CHARGES
 
@<TRIPOS>ATOM
       1    C1      19.498110   20.022742   22.554940 C.3        1 MOL1        -0.1689
       2    H1      20.209103   20.780852   22.910633 H          1 MOL1         0.0830
       3    H2      18.594279   20.538339   22.201567 H          1 MOL1         0.0830
       4    C2      19.122740   19.014854   23.649922 C.3        1 MOL1        -0.1689
       5    H3      20.013738   18.767175   24.243604 H          1 MOL1         0.0830
       6    H4      18.352477   19.402267   24.330545 H          1 MOL1         0.0830
       7    C3      18.652809   17.766834   22.880060 C.3        1 MOL1        -0.1765
       8    H5      17.571817   17.830488   22.699814 H          1 MOL1         0.0830
       9    H6      18.842907   16.846188   23.447768 H          1 MOL1         0.0830
      10    C4      19.390417   17.782182   21.525255 C.3        1 MOL1         0.1214
      11    H7      18.659088   17.666206   20.712096 H          1 MOL1         0.0787
      12    C5      20.081264   19.158344   21.422086 C.3        1 MOL1        -0.1765
      13    H8      21.164968   19.052097   21.567273 H          1 MOL1         0.0830
      14    H9      19.916374   19.619902   20.439935 H          1 MOL1         0.0830
      15    O1      20.359832   16.741835   21.482703 O.3        1 MOL1        -0.5512
      16    H10     20.802693   16.805607   20.610157 H          1 MOL1         0.3776
@<TRIPOS>BOND
    1     1     2    1
    2     1     3    1
    3     1     4    1
    4     4     5    1
    5     4     6    1
    6     4     7    1
    7     7     8    1
    8     7     9    1
    9     7    10    1
   10    10    11    1
   11     1    12    1
   12    10    12    1
   13    12    13    1
   14    12    14    1
   15    10    15    1
   16    15    16    1
@<TRIPOS>SUBSTRUCTURE
       1 MOL1            1 RESIDUE      1      MOL     
@<SCITEGIC>MOL_PROPERTY
VConf Rank
SciTegic.value.IntegerValue
911

@<SCITEGIC>MOL_PROPERTY
Conf_Id
SciTegic.value.IntegerValue
33

@<SCITEGIC>MOL_PROPERTY
Delta U+W
SciTegic.value.DoubleValue
0.015

@<SCITEGIC>MOL_PROPERTY
U+W
SciTegic.value.DoubleValue
3.025

@<SCITEGIC>MOL_PROPERTY
Grad RMS
SciTegic.value.DoubleValue
0.000000

@<SCITEGIC>MOL_PROPERTY
U
SciTegic.value.DoubleValue
5.843

@<SCITEGIC>MOL_PROPERTY
W
SciTegic.value.DoubleValue
-2.819

@<SCITEGIC>MOL_PROPERTY
W(PB)
SciTegic.value.DoubleValue
-4.568

@<SCITEGIC>MOL_PROPERTY
W(SA)
SciTegic.value.DoubleValue
1.750

@<SCITEGIC>MOL_PROPERTY
Valence
SciTegic.value.DoubleValue
13.789

@<SCITEGIC>MOL_PROPERTY
Coulomb
SciTegic.value.DoubleValue
-8.574

@<SCITEGIC>MOL_PROPERTY
VdW
SciTegic.value.DoubleValue
0.628

@<SCITEGIC>MOL_PROPERTY
VdW6
SciTegic.value.DoubleValue
-3.284

@<SCITEGIC>MOL_PROPERTY
VdW12
SciTegic.value.DoubleValue
3.913

@<SCITEGIC>MOL_PROPERTY
Bond
SciTegic.value.DoubleValue
0.054

@<SCITEGIC>MOL_PROPERTY
Angle
SciTegic.value.DoubleValue
4.033

@<SCITEGIC>MOL_PROPERTY
Pdih
SciTegic.value.DoubleValue
9.702

@<SCITEGIC>MOL_PROPERTY
Idih
SciTegic.value.DoubleValue
0.000

@<SCITEGIC>MOL_PROPERTY
Tether
SciTegic.value.DoubleValue
0.000

@<TRIPOS>MOLECULE
guest-4_confgen4.mol2 : confsearch ligand conformer 912
          16          16           1
SMALL
USER_CHARGES
 
@<TRIPOS>ATOM
       1    C1      18.528292   18.489902   21.234367 C.3        1 MOL1        -0.1689
       2    H1      19.013018   18.349456   20.258384 H          1 MOL1         0.0830
       3    H2      17.441788   18.471861   21.072562 H          1 MOL1         0.0830
       4    C2      18.986970   19.824621   21.861392 C.3        1 MOL1        -0.1689
       5    H3      19.692853   20.330637   21.188410 H          1 MOL1         0.0830
       6    H4      18.140235   20.504403   22.028530 H          1 MOL1         0.0830
       7    C3      19.682272   19.466895   23.192190 C.3        1 MOL1        -0.1765
       8    H5      18.974200   19.593814   24.021737 H          1 MOL1         0.0830
       9    H6      20.550993   20.107871   23.393382 H          1 MOL1         0.0830
      10    C4      20.065566   17.984692   23.086577 C.3        1 MOL1         0.1214
      11    H7      20.107092   17.506041   24.075592 H          1 MOL1         0.0787
      12    C5      18.962563   17.375856   22.210415 C.3        1 MOL1        -0.1765
      13    H8      19.299256   16.471345   21.686487 H          1 MOL1         0.0830
      14    H9      18.114051   17.095970   22.848625 H          1 MOL1         0.0830
      15    O1      21.312086   17.870604   22.415772 O.3        1 MOL1        -0.5512
      16    H10     21.180518   18.319796   21.555493 H          1 MOL1         0.3776
@<TRIPOS>BOND
    1     1     2    1
    2     1     3    1
    3     1     4    1
    4     4     5    1
    5     4     6    1
    6     4     7    1
    7     7     8    1
    8     7     9    1
    9     7    10    1
   10    10    11    1
   11     1    12    1
   12    10    12    1
   13    12    13    1
   14    12    14    1
   15    10    15    1
   16    15    16    1
@<TRIPOS>SUBSTRUCTURE
       1 MOL1            1 RESIDUE      1      MOL     
@<SCITEGIC>MOL_PROPERTY
VConf Rank
SciTegic.value.IntegerValue
912

@<SCITEGIC>MOL_PROPERTY
Conf_Id
SciTegic.value.IntegerValue
20

@<SCITEGIC>MOL_PROPERTY
Delta U+W
SciTegic.value.DoubleValue
-0.483

@<SCITEGIC>MOL_PROPERTY
U+W
SciTegic.value.DoubleValue
2.527

@<SCITEGIC>MOL_PROPERTY
Grad RMS
SciTegic.value.DoubleValue
0.000000

@<SCITEGIC>MOL_PROPERTY
U
SciTegic.value.DoubleValue
4.508

@<SCITEGIC>MOL_PROPERTY
W
SciTegic.value.DoubleValue
-1.981

@<SCITEGIC>MOL_PROPERTY
W(PB)
SciTegic.value.DoubleValue
-3.712

@<SCITEGIC>MOL_PROPERTY
W(SA)
SciTegic.value.DoubleValue
1.732

@<SCITEGIC>MOL_PROPERTY
Valence
SciTegic.value.DoubleValue
14.705

@<SCITEGIC>MOL_PROPERTY
Coulomb
SciTegic.value.DoubleValue
-10.687

@<SCITEGIC>MOL_PROPERTY
VdW
SciTegic.value.DoubleValue
0.490

@<SCITEGIC>MOL_PROPERTY
VdW6
SciTegic.value.DoubleValue
-3.745

@<SCITEGIC>MOL_PROPERTY
VdW12
SciTegic.value.DoubleValue
4.235

@<SCITEGIC>MOL_PROPERTY
Bond
SciTegic.value.DoubleValue
0.068

@<SCITEGIC>MOL_PROPERTY
Angle
SciTegic.value.DoubleValue
3.901

@<SCITEGIC>MOL_PROPERTY
Pdih
SciTegic.value.DoubleValue
10.737

@<SCITEGIC>MOL_PROPERTY
Idih
SciTegic.value.DoubleValue
0.000

@<SCITEGIC>MOL_PROPERTY
Tether
SciTegic.value.DoubleValue
0.000

@<TRIPOS>MOLECULE
guest-4_confgen4.mol2 : confsearch ligand conformer 913
          16          16           1
SMALL
USER_CHARGES
 
@<TRIPOS>ATOM
       1    C1      18.251664   19.115003   21.555927 C.3        1 MOL1        -0.1689
       2    H1      18.718896   19.598191   20.686501 H          1 MOL1         0.0830
       3    H2      17.161660   19.208772   21.457222 H          1 MOL1         0.0830
       4    C2      18.780671   19.755729   22.846411 C.3        1 MOL1        -0.1689
       5    H3      18.893384   20.844762   22.756613 H          1 MOL1         0.0830
       6    H4      18.086747   19.549124   23.673097 H          1 MOL1         0.0830
       7    C3      20.123081   19.046981   23.103640 C.3        1 MOL1        -0.1765
       8    H5      20.355515   19.004883   24.175577 H          1 MOL1         0.0830
       9    H6      20.928799   19.603056   22.605259 H          1 MOL1         0.0830
      10    C4      19.992686   17.634562   22.495571 C.3        1 MOL1         0.1214
      11    H7      19.886912   16.888302   23.296462 H          1 MOL1         0.0787
      12    C5      18.710148   17.647310   21.638385 C.3        1 MOL1        -0.1765
      13    H8      18.871291   17.217464   20.640744 H          1 MOL1         0.0830
      14    H9      17.938847   17.047944   22.139321 H          1 MOL1         0.0830
      15    O1      21.123321   17.343789   21.682550 O.3        1 MOL1        -0.5512
      16    H10     21.905942   17.359662   22.273130 H          1 MOL1         0.3776
@<TRIPOS>BOND
    1     1     2    1
    2     1     3    1
    3     1     4    1
    4     4     5    1
    5     4     6    1
    6     4     7    1
    7     7     8    1
    8     7     9    1
    9     7    10    1
   10    10    11    1
   11     1    12    1
   12    10    12    1
   13    12    13    1
   14    12    14    1
   15    10    15    1
   16    15    16    1
@<TRIPOS>SUBSTRUCTURE
       1 MOL1            1 RESIDUE      1      MOL     
@<SCITEGIC>MOL_PROPERTY
VConf Rank
SciTegic.value.IntegerValue
913

@<SCITEGIC>MOL_PROPERTY
Conf_Id
SciTegic.value.IntegerValue
59

@<SCITEGIC>MOL_PROPERTY
Delta U+W
SciTegic.value.DoubleValue
0.000

@<SCITEGIC>MOL_PROPERTY
U+W
SciTegic.value.DoubleValue
3.010

@<SCITEGIC>MOL_PROPERTY
Grad RMS
SciTegic.value.DoubleValue
0.000000

@<SCITEGIC>MOL_PROPERTY
U
SciTegic.value.DoubleValue
5.843

@<SCITEGIC>MOL_PROPERTY
W
SciTegic.value.DoubleValue
-2.833

@<SCITEGIC>MOL_PROPERTY
W(PB)
SciTegic.value.DoubleValue
-4.568

@<SCITEGIC>MOL_PROPERTY
W(SA)
SciTegic.value.DoubleValue
1.735

@<SCITEGIC>MOL_PROPERTY
Valence
SciTegic.value.DoubleValue
13.789

@<SCITEGIC>MOL_PROPERTY
Coulomb
SciTegic.value.DoubleValue
-8.574

@<SCITEGIC>MOL_PROPERTY
VdW
SciTegic.value.DoubleValue
0.628

@<SCITEGIC>MOL_PROPERTY
VdW6
SciTegic.value.DoubleValue
-3.284

@<SCITEGIC>MOL_PROPERTY
VdW12
SciTegic.value.DoubleValue
3.912

@<SCITEGIC>MOL_PROPERTY
Bond
SciTegic.value.DoubleValue
0.054

@<SCITEGIC>MOL_PROPERTY
Angle
SciTegic.value.DoubleValue
4.034

@<SCITEGIC>MOL_PROPERTY
Pdih
SciTegic.value.DoubleValue
9.702

@<SCITEGIC>MOL_PROPERTY
Idih
SciTegic.value.DoubleValue
0.000

@<SCITEGIC>MOL_PROPERTY
Tether
SciTegic.value.DoubleValue
0.000

@<TRIPOS>MOLECULE
guest-4_confgen4.mol2 : confsearch ligand conformer 914
          16          16           1
SMALL
USER_CHARGES
 
@<TRIPOS>ATOM
       1    C1      19.147171   18.937817   20.927988 C.3        1 MOL1        -0.1689
       2    H1      18.516521   18.573213   20.105733 H          1 MOL1         0.0830
       3    H2      19.584221   19.899590   20.625331 H          1 MOL1         0.0830
       4    C2      20.267362   17.951650   21.286282 C.3        1 MOL1        -0.1689
       5    H3      19.882072   16.923557   21.238773 H          1 MOL1         0.0830
       6    H4      21.127232   18.028640   20.607063 H          1 MOL1         0.0830
       7    C3      20.634741   18.297915   22.741002 C.3        1 MOL1        -0.1765
       8    H5      21.428321   19.056357   22.750039 H          1 MOL1         0.0830
       9    H6      21.006814   17.419003   23.284227 H          1 MOL1         0.0830
      10    C4      19.365014   18.890745   23.386095 C.3        1 MOL1         0.1214
      11    H7      19.613259   19.851206   23.860866 H          1 MOL1         0.0787
      12    C5      18.357840   19.113625   22.238201 C.3        1 MOL1        -0.1765
      13    H8      17.556988   18.363039   22.283348 H          1 MOL1         0.0830
      14    H9      17.893116   20.106348   22.296328 H          1 MOL1         0.0830
      15    O1      18.828986   17.981352   24.339812 O.3        1 MOL1        -0.5512
      16    H10     18.022959   18.401857   24.707270 H          1 MOL1         0.3776
@<TRIPOS>BOND
    1     1     2    1
    2     1     3    1
    3     1     4    1
    4     4     5    1
    5     4     6    1
    6     4     7    1
    7     7     8    1
    8     7     9    1
    9     7    10    1
   10    10    11    1
   11     1    12    1
   12    10    12    1
   13    12    13    1
   14    12    14    1
   15    10    15    1
   16    15    16    1
@<TRIPOS>SUBSTRUCTURE
       1 MOL1            1 RESIDUE      1      MOL     
@<SCITEGIC>MOL_PROPERTY
VConf Rank
SciTegic.value.IntegerValue
914

@<SCITEGIC>MOL_PROPERTY
Conf_Id
SciTegic.value.IntegerValue
33

@<SCITEGIC>MOL_PROPERTY
Delta U+W
SciTegic.value.DoubleValue
0.015

@<SCITEGIC>MOL_PROPERTY
U+W
SciTegic.value.DoubleValue
3.025

@<SCITEGIC>MOL_PROPERTY
Grad RMS
SciTegic.value.DoubleValue
0.000000

@<SCITEGIC>MOL_PROPERTY
U
SciTegic.value.DoubleValue
5.843

@<SCITEGIC>MOL_PROPERTY
W
SciTegic.value.DoubleValue
-2.819

@<SCITEGIC>MOL_PROPERTY
W(PB)
SciTegic.value.DoubleValue
-4.568

@<SCITEGIC>MOL_PROPERTY
W(SA)
SciTegic.value.DoubleValue
1.750

@<SCITEGIC>MOL_PROPERTY
Valence
SciTegic.value.DoubleValue
13.789

@<SCITEGIC>MOL_PROPERTY
Coulomb
SciTegic.value.DoubleValue
-8.574

@<SCITEGIC>MOL_PROPERTY
VdW
SciTegic.value.DoubleValue
0.628

@<SCITEGIC>MOL_PROPERTY
VdW6
SciTegic.value.DoubleValue
-3.284

@<SCITEGIC>MOL_PROPERTY
VdW12
SciTegic.value.DoubleValue
3.913

@<SCITEGIC>MOL_PROPERTY
Bond
SciTegic.value.DoubleValue
0.054

@<SCITEGIC>MOL_PROPERTY
Angle
SciTegic.value.DoubleValue
4.033

@<SCITEGIC>MOL_PROPERTY
Pdih
SciTegic.value.DoubleValue
9.702

@<SCITEGIC>MOL_PROPERTY
Idih
SciTegic.value.DoubleValue
0.000

@<SCITEGIC>MOL_PROPERTY
Tether
SciTegic.value.DoubleValue
0.000

@<TRIPOS>MOLECULE
guest-4_confgen4.mol2 : confsearch ligand conformer 915
          16          16           1
SMALL
USER_CHARGES
 
@<TRIPOS>ATOM
       1    C1      18.101138   18.959083   22.437791 C.3        1 MOL1        -0.1689
       2    H1      17.948788   20.027918   22.641772 H          1 MOL1         0.0830
       3    H2      17.113474   18.478087   22.425193 H          1 MOL1         0.0830
       4    C2      19.018620   18.343961   23.517083 C.3        1 MOL1        -0.1689
       5    H3      19.309443   19.114840   24.243991 H          1 MOL1         0.0830
       6    H4      18.511215   17.540476   24.068402 H          1 MOL1         0.0830
       7    C3      20.264688   17.809486   22.779459 C.3        1 MOL1        -0.1765
       8    H5      20.150902   16.732206   22.600182 H          1 MOL1         0.0830
       9    H6      21.186113   17.956331   23.358611 H          1 MOL1         0.0830
      10    C4      20.304469   18.537853   21.429313 C.3        1 MOL1         0.1214
      11    H7      20.806807   17.935087   20.659046 H          1 MOL1         0.0787
      12    C5      18.826690   18.772109   21.088357 C.3        1 MOL1        -0.1765
      13    H8      18.685494   19.629983   20.417446 H          1 MOL1         0.0830
      14    H9      18.432615   17.882125   20.580170 H          1 MOL1         0.0830
      15    O1      20.951090   19.791588   21.593125 O.3        1 MOL1        -0.5512
      16    H10     20.440207   20.252631   22.289975 H          1 MOL1         0.3776
@<TRIPOS>BOND
    1     1     2    1
    2     1     3    1
    3     1     4    1
    4     4     5    1
    5     4     6    1
    6     4     7    1
    7     7     8    1
    8     7     9    1
    9     7    10    1
   10    10    11    1
   11     1    12    1
   12    10    12    1
   13    12    13    1
   14    12    14    1
   15    10    15    1
   16    15    16    1
@<TRIPOS>SUBSTRUCTURE
       1 MOL1            1 RESIDUE      1      MOL     
@<SCITEGIC>MOL_PROPERTY
VConf Rank
SciTegic.value.IntegerValue
915

@<SCITEGIC>MOL_PROPERTY
Conf_Id
SciTegic.value.IntegerValue
20

@<SCITEGIC>MOL_PROPERTY
Delta U+W
SciTegic.value.DoubleValue
-0.483

@<SCITEGIC>MOL_PROPERTY
U+W
SciTegic.value.DoubleValue
2.527

@<SCITEGIC>MOL_PROPERTY
Grad RMS
SciTegic.value.DoubleValue
0.000000

@<SCITEGIC>MOL_PROPERTY
U
SciTegic.value.DoubleValue
4.508

@<SCITEGIC>MOL_PROPERTY
W
SciTegic.value.DoubleValue
-1.981

@<SCITEGIC>MOL_PROPERTY
W(PB)
SciTegic.value.DoubleValue
-3.712

@<SCITEGIC>MOL_PROPERTY
W(SA)
SciTegic.value.DoubleValue
1.732

@<SCITEGIC>MOL_PROPERTY
Valence
SciTegic.value.DoubleValue
14.705

@<SCITEGIC>MOL_PROPERTY
Coulomb
SciTegic.value.DoubleValue
-10.687

@<SCITEGIC>MOL_PROPERTY
VdW
SciTegic.value.DoubleValue
0.490

@<SCITEGIC>MOL_PROPERTY
VdW6
SciTegic.value.DoubleValue
-3.745

@<SCITEGIC>MOL_PROPERTY
VdW12
SciTegic.value.DoubleValue
4.235

@<SCITEGIC>MOL_PROPERTY
Bond
SciTegic.value.DoubleValue
0.068

@<SCITEGIC>MOL_PROPERTY
Angle
SciTegic.value.DoubleValue
3.901

@<SCITEGIC>MOL_PROPERTY
Pdih
SciTegic.value.DoubleValue
10.737

@<SCITEGIC>MOL_PROPERTY
Idih
SciTegic.value.DoubleValue
0.000

@<SCITEGIC>MOL_PROPERTY
Tether
SciTegic.value.DoubleValue
0.000

@<TRIPOS>MOLECULE
guest-4_confgen4.mol2 : confsearch ligand conformer 916
          16          16           1
SMALL
USER_CHARGES
 
@<TRIPOS>ATOM
       1    C1      19.900551   19.529491   23.245850 C.3        1 MOL1        -0.1689
       2    H1      20.374397   18.933061   24.037948 H          1 MOL1         0.0830
       3    H2      20.083006   20.591532   23.458977 H          1 MOL1         0.0830
       4    C2      18.404406   19.194439   23.175010 C.3        1 MOL1        -0.1689
       5    H3      17.958584   19.060179   24.169985 H          1 MOL1         0.0830
       6    H4      17.867568   20.006205   22.664650 H          1 MOL1         0.0830
       7    C3      18.338839   17.911907   22.325676 C.3        1 MOL1        -0.1765
       8    H5      17.391541   17.843171   21.775451 H          1 MOL1         0.0830
       9    H6      18.410682   17.035828   22.984546 H          1 MOL1         0.0830
      10    C4      19.548442   17.961807   21.368571 C.3        1 MOL1         0.1214
      11    H7      19.211226   18.192864   20.347583 H          1 MOL1         0.0787
      12    C5      20.456669   19.101187   21.875297 C.3        1 MOL1        -0.1765
      13    H8      21.509387   18.796003   21.943625 H          1 MOL1         0.0830
      14    H9      20.398437   19.943993   21.174321 H          1 MOL1         0.0830
      15    O1      20.250071   16.724606   21.399204 O.3        1 MOL1        -0.5512
      16    H10     19.625762   16.039261   21.079718 H          1 MOL1         0.3776
@<TRIPOS>BOND
    1     1     2    1
    2     1     3    1
    3     1     4    1
    4     4     5    1
    5     4     6    1
    6     4     7    1
    7     7     8    1
    8     7     9    1
    9     7    10    1
   10    10    11    1
   11     1    12    1
   12    10    12    1
   13    12    13    1
   14    12    14    1
   15    10    15    1
   16    15    16    1
@<TRIPOS>SUBSTRUCTURE
       1 MOL1            1 RESIDUE      1      MOL     
@<SCITEGIC>MOL_PROPERTY
VConf Rank
SciTegic.value.IntegerValue
916

@<SCITEGIC>MOL_PROPERTY
Conf_Id
SciTegic.value.IntegerValue
59

@<SCITEGIC>MOL_PROPERTY
Delta U+W
SciTegic.value.DoubleValue
0.000

@<SCITEGIC>MOL_PROPERTY
U+W
SciTegic.value.DoubleValue
3.010

@<SCITEGIC>MOL_PROPERTY
Grad RMS
SciTegic.value.DoubleValue
0.000000

@<SCITEGIC>MOL_PROPERTY
U
SciTegic.value.DoubleValue
5.843

@<SCITEGIC>MOL_PROPERTY
W
SciTegic.value.DoubleValue
-2.833

@<SCITEGIC>MOL_PROPERTY
W(PB)
SciTegic.value.DoubleValue
-4.568

@<SCITEGIC>MOL_PROPERTY
W(SA)
SciTegic.value.DoubleValue
1.735

@<SCITEGIC>MOL_PROPERTY
Valence
SciTegic.value.DoubleValue
13.789

@<SCITEGIC>MOL_PROPERTY
Coulomb
SciTegic.value.DoubleValue
-8.574

@<SCITEGIC>MOL_PROPERTY
VdW
SciTegic.value.DoubleValue
0.628

@<SCITEGIC>MOL_PROPERTY
VdW6
SciTegic.value.DoubleValue
-3.284

@<SCITEGIC>MOL_PROPERTY
VdW12
SciTegic.value.DoubleValue
3.912

@<SCITEGIC>MOL_PROPERTY
Bond
SciTegic.value.DoubleValue
0.054

@<SCITEGIC>MOL_PROPERTY
Angle
SciTegic.value.DoubleValue
4.034

@<SCITEGIC>MOL_PROPERTY
Pdih
SciTegic.value.DoubleValue
9.702

@<SCITEGIC>MOL_PROPERTY
Idih
SciTegic.value.DoubleValue
0.000

@<SCITEGIC>MOL_PROPERTY
Tether
SciTegic.value.DoubleValue
0.000

@<TRIPOS>MOLECULE
guest-4_confgen4.mol2 : confsearch ligand conformer 917
          16          16           1
SMALL
USER_CHARGES
 
@<TRIPOS>ATOM
       1    C1      20.468735   19.434886   21.700669 C.3        1 MOL1        -0.1689
       2    H1      20.694880   20.499041   21.548380 H          1 MOL1         0.0830
       3    H2      21.347012   18.849728   21.394335 H          1 MOL1         0.0830
       4    C2      19.240211   18.978791   20.901650 C.3        1 MOL1        -0.1689
       5    H3      18.471208   19.763380   20.928735 H          1 MOL1         0.0830
       6    H4      19.478473   18.766592   19.850534 H          1 MOL1         0.0830
       7    C3      18.733063   17.733579   21.652199 C.3        1 MOL1        -0.1765
       8    H5      19.214669   16.835637   21.243739 H          1 MOL1         0.0830
       9    H6      17.647471   17.609431   21.542211 H          1 MOL1         0.0830
      10    C4      19.156480   17.905367   23.125632 C.3        1 MOL1         0.1214
      11    H7      19.681130   16.998817   23.460935 H          1 MOL1         0.0787
      12    C5      20.114280   19.114852   23.164414 C.3        1 MOL1        -0.1765
      13    H8      19.613591   19.982632   23.615025 H          1 MOL1         0.0830
      14    H9      21.012872   18.899016   23.756693 H          1 MOL1         0.0830
      15    O1      18.015718   18.156339   23.937773 O.3        1 MOL1        -0.5512
      16    H10     18.342824   18.267822   24.855434 H          1 MOL1         0.3776
@<TRIPOS>BOND
    1     1     2    1
    2     1     3    1
    3     1     4    1
    4     4     5    1
    5     4     6    1
    6     4     7    1
    7     7     8    1
    8     7     9    1
    9     7    10    1
   10    10    11    1
   11     1    12    1
   12    10    12    1
   13    12    13    1
   14    12    14    1
   15    10    15    1
   16    15    16    1
@<TRIPOS>SUBSTRUCTURE
       1 MOL1            1 RESIDUE      1      MOL     
@<SCITEGIC>MOL_PROPERTY
VConf Rank
SciTegic.value.IntegerValue
917

@<SCITEGIC>MOL_PROPERTY
Conf_Id
SciTegic.value.IntegerValue
33

@<SCITEGIC>MOL_PROPERTY
Delta U+W
SciTegic.value.DoubleValue
0.015

@<SCITEGIC>MOL_PROPERTY
U+W
SciTegic.value.DoubleValue
3.025

@<SCITEGIC>MOL_PROPERTY
Grad RMS
SciTegic.value.DoubleValue
0.000000

@<SCITEGIC>MOL_PROPERTY
U
SciTegic.value.DoubleValue
5.843

@<SCITEGIC>MOL_PROPERTY
W
SciTegic.value.DoubleValue
-2.819

@<SCITEGIC>MOL_PROPERTY
W(PB)
SciTegic.value.DoubleValue
-4.568

@<SCITEGIC>MOL_PROPERTY
W(SA)
SciTegic.value.DoubleValue
1.750

@<SCITEGIC>MOL_PROPERTY
Valence
SciTegic.value.DoubleValue
13.789

@<SCITEGIC>MOL_PROPERTY
Coulomb
SciTegic.value.DoubleValue
-8.574

@<SCITEGIC>MOL_PROPERTY
VdW
SciTegic.value.DoubleValue
0.628

@<SCITEGIC>MOL_PROPERTY
VdW6
SciTegic.value.DoubleValue
-3.284

@<SCITEGIC>MOL_PROPERTY
VdW12
SciTegic.value.DoubleValue
3.913

@<SCITEGIC>MOL_PROPERTY
Bond
SciTegic.value.DoubleValue
0.054

@<SCITEGIC>MOL_PROPERTY
Angle
SciTegic.value.DoubleValue
4.033

@<SCITEGIC>MOL_PROPERTY
Pdih
SciTegic.value.DoubleValue
9.702

@<SCITEGIC>MOL_PROPERTY
Idih
SciTegic.value.DoubleValue
0.000

@<SCITEGIC>MOL_PROPERTY
Tether
SciTegic.value.DoubleValue
0.000

@<TRIPOS>MOLECULE
guest-4_confgen4.mol2 : confsearch ligand conformer 918
          16          16           1
SMALL
USER_CHARGES
 
@<TRIPOS>ATOM
       1    C1      18.152228   18.889763   21.806762 C.3        1 MOL1        -0.1689
       2    H1      18.111786   19.727670   21.097181 H          1 MOL1         0.0830
       3    H2      17.130395   18.504147   21.925733 H          1 MOL1         0.0830
       4    C2      18.738596   19.369107   23.152653 C.3        1 MOL1        -0.1689
       5    H3      18.980950   20.439221   23.094792 H          1 MOL1         0.0830
       6    H4      18.023840   19.233289   23.975864 H          1 MOL1         0.0830
       7    C3      20.021311   18.543997   23.389869 C.3        1 MOL1        -0.1765
       8    H5      19.797567   17.702064   24.058231 H          1 MOL1         0.0830
       9    H6      20.818217   19.138350   23.856445 H          1 MOL1         0.0830
      10    C4      20.433422   17.994834   22.017434 C.3        1 MOL1         0.1214
      11    H7      20.992164   17.052369   22.109904 H          1 MOL1         0.0787
      12    C5      19.101973   17.792133   21.281832 C.3        1 MOL1        -0.1765
      13    H8      19.219563   17.830378   20.190633 H          1 MOL1         0.0830
      14    H9      18.698843   16.803973   21.539995 H          1 MOL1         0.0830
      15    O1      21.201397   18.974072   21.333246 O.3        1 MOL1        -0.5512
      16    H10     20.629503   19.768396   21.299341 H          1 MOL1         0.3776
@<TRIPOS>BOND
    1     1     2    1
    2     1     3    1
    3     1     4    1
    4     4     5    1
    5     4     6    1
    6     4     7    1
    7     7     8    1
    8     7     9    1
    9     7    10    1
   10    10    11    1
   11     1    12    1
   12    10    12    1
   13    12    13    1
   14    12    14    1
   15    10    15    1
   16    15    16    1
@<TRIPOS>SUBSTRUCTURE
       1 MOL1            1 RESIDUE      1      MOL     
@<SCITEGIC>MOL_PROPERTY
VConf Rank
SciTegic.value.IntegerValue
918

@<SCITEGIC>MOL_PROPERTY
Conf_Id
SciTegic.value.IntegerValue
20

@<SCITEGIC>MOL_PROPERTY
Delta U+W
SciTegic.value.DoubleValue
-0.483

@<SCITEGIC>MOL_PROPERTY
U+W
SciTegic.value.DoubleValue
2.527

@<SCITEGIC>MOL_PROPERTY
Grad RMS
SciTegic.value.DoubleValue
0.000000

@<SCITEGIC>MOL_PROPERTY
U
SciTegic.value.DoubleValue
4.508

@<SCITEGIC>MOL_PROPERTY
W
SciTegic.value.DoubleValue
-1.981

@<SCITEGIC>MOL_PROPERTY
W(PB)
SciTegic.value.DoubleValue
-3.712

@<SCITEGIC>MOL_PROPERTY
W(SA)
SciTegic.value.DoubleValue
1.732

@<SCITEGIC>MOL_PROPERTY
Valence
SciTegic.value.DoubleValue
14.705

@<SCITEGIC>MOL_PROPERTY
Coulomb
SciTegic.value.DoubleValue
-10.687

@<SCITEGIC>MOL_PROPERTY
VdW
SciTegic.value.DoubleValue
0.490

@<SCITEGIC>MOL_PROPERTY
VdW6
SciTegic.value.DoubleValue
-3.745

@<SCITEGIC>MOL_PROPERTY
VdW12
SciTegic.value.DoubleValue
4.235

@<SCITEGIC>MOL_PROPERTY
Bond
SciTegic.value.DoubleValue
0.068

@<SCITEGIC>MOL_PROPERTY
Angle
SciTegic.value.DoubleValue
3.901

@<SCITEGIC>MOL_PROPERTY
Pdih
SciTegic.value.DoubleValue
10.737

@<SCITEGIC>MOL_PROPERTY
Idih
SciTegic.value.DoubleValue
0.000

@<SCITEGIC>MOL_PROPERTY
Tether
SciTegic.value.DoubleValue
0.000

@<TRIPOS>MOLECULE
guest-4_confgen4.mol2 : confsearch ligand conformer 919
          16          16           1
SMALL
USER_CHARGES
 
@<TRIPOS>ATOM
       1    C1      19.259058   17.431661   21.395431 C.3        1 MOL1        -0.1689
       2    H1      18.799380   17.846966   20.487745 H          1 MOL1         0.0830
       3    H2      19.497621   16.375883   21.208173 H          1 MOL1         0.0830
       4    C2      18.306328   17.615350   22.584671 C.3        1 MOL1        -0.1689
       5    H3      17.257290   17.438086   22.311072 H          1 MOL1         0.0830
       6    H4      18.575759   16.913313   23.386031 H          1 MOL1         0.0830
       7    C3      18.553299   19.060897   23.053665 C.3        1 MOL1        -0.1765
       8    H5      18.364577   19.171393   24.129314 H          1 MOL1         0.0830
       9    H6      17.871609   19.737327   22.520256 H          1 MOL1         0.0830
      10    C4      20.018782   19.389055   22.698205 C.3        1 MOL1         0.1214
      11    H7      20.634116   19.398382   23.609685 H          1 MOL1         0.0787
      12    C5      20.503758   18.258314   21.767583 C.3        1 MOL1        -0.1765
      13    H8      21.014962   18.643385   20.875163 H          1 MOL1         0.0830
      14    H9      21.216156   17.626220   22.313502 H          1 MOL1         0.0830
      15    O1      20.092694   20.641737   22.027970 O.3        1 MOL1        -0.5512
      16    H10     19.764180   21.317566   22.657943 H          1 MOL1         0.3776
@<TRIPOS>BOND
    1     1     2    1
    2     1     3    1
    3     1     4    1
    4     4     5    1
    5     4     6    1
    6     4     7    1
    7     7     8    1
    8     7     9    1
    9     7    10    1
   10    10    11    1
   11     1    12    1
   12    10    12    1
   13    12    13    1
   14    12    14    1
   15    10    15    1
   16    15    16    1
@<TRIPOS>SUBSTRUCTURE
       1 MOL1            1 RESIDUE      1      MOL     
@<SCITEGIC>MOL_PROPERTY
VConf Rank
SciTegic.value.IntegerValue
919

@<SCITEGIC>MOL_PROPERTY
Conf_Id
SciTegic.value.IntegerValue
59

@<SCITEGIC>MOL_PROPERTY
Delta U+W
SciTegic.value.DoubleValue
0.000

@<SCITEGIC>MOL_PROPERTY
U+W
SciTegic.value.DoubleValue
3.010

@<SCITEGIC>MOL_PROPERTY
Grad RMS
SciTegic.value.DoubleValue
0.000000

@<SCITEGIC>MOL_PROPERTY
U
SciTegic.value.DoubleValue
5.843

@<SCITEGIC>MOL_PROPERTY
W
SciTegic.value.DoubleValue
-2.833

@<SCITEGIC>MOL_PROPERTY
W(PB)
SciTegic.value.DoubleValue
-4.568

@<SCITEGIC>MOL_PROPERTY
W(SA)
SciTegic.value.DoubleValue
1.735

@<SCITEGIC>MOL_PROPERTY
Valence
SciTegic.value.DoubleValue
13.789

@<SCITEGIC>MOL_PROPERTY
Coulomb
SciTegic.value.DoubleValue
-8.574

@<SCITEGIC>MOL_PROPERTY
VdW
SciTegic.value.DoubleValue
0.628

@<SCITEGIC>MOL_PROPERTY
VdW6
SciTegic.value.DoubleValue
-3.284

@<SCITEGIC>MOL_PROPERTY
VdW12
SciTegic.value.DoubleValue
3.912

@<SCITEGIC>MOL_PROPERTY
Bond
SciTegic.value.DoubleValue
0.054

@<SCITEGIC>MOL_PROPERTY
Angle
SciTegic.value.DoubleValue
4.034

@<SCITEGIC>MOL_PROPERTY
Pdih
SciTegic.value.DoubleValue
9.702

@<SCITEGIC>MOL_PROPERTY
Idih
SciTegic.value.DoubleValue
0.000

@<SCITEGIC>MOL_PROPERTY
Tether
SciTegic.value.DoubleValue
0.000

@<TRIPOS>MOLECULE
guest-4_confgen4.mol2 : confsearch ligand conformer 920
          16          16           1
SMALL
USER_CHARGES
 
@<TRIPOS>ATOM
       1    C1      19.390083   18.270229   23.685143 C.3        1 MOL1        -0.1689
       2    H1      18.660143   18.249046   24.505812 H          1 MOL1         0.0830
       3    H2      20.310630   17.779975   24.031359 H          1 MOL1         0.0830
       4    C2      19.708334   19.698951   23.223411 C.3        1 MOL1        -0.1689
       5    H3      18.787477   20.298694   23.220277 H          1 MOL1         0.0830
       6    H4      20.440876   20.196532   23.873363 H          1 MOL1         0.0830
       7    C3      20.220211   19.532532   21.780718 C.3        1 MOL1        -0.1765
       8    H5      21.309145   19.393882   21.789840 H          1 MOL1         0.0830
       9    H6      20.001613   20.418289   21.169434 H          1 MOL1         0.0830
      10    C4      19.555434   18.257268   21.222533 C.3        1 MOL1         0.1214
      11    H7      20.329005   17.599287   20.800433 H          1 MOL1         0.0787
      12    C5      18.869045   17.565525   22.419236 C.3        1 MOL1        -0.1765
      13    H8      17.779323   17.689600   22.356845 H          1 MOL1         0.0830
      14    H9      19.085099   16.489573   22.441470 H          1 MOL1         0.0830
      15    O1      18.591138   18.599212   20.234047 O.3        1 MOL1        -0.5512
      16    H10     18.195060   17.757314   19.924436 H          1 MOL1         0.3776
@<TRIPOS>BOND
    1     1     2    1
    2     1     3    1
    3     1     4    1
    4     4     5    1
    5     4     6    1
    6     4     7    1
    7     7     8    1
    8     7     9    1
    9     7    10    1
   10    10    11    1
   11     1    12    1
   12    10    12    1
   13    12    13    1
   14    12    14    1
   15    10    15    1
   16    15    16    1
@<TRIPOS>SUBSTRUCTURE
       1 MOL1            1 RESIDUE      1      MOL     
@<SCITEGIC>MOL_PROPERTY
VConf Rank
SciTegic.value.IntegerValue
920

@<SCITEGIC>MOL_PROPERTY
Conf_Id
SciTegic.value.IntegerValue
33

@<SCITEGIC>MOL_PROPERTY
Delta U+W
SciTegic.value.DoubleValue
0.015

@<SCITEGIC>MOL_PROPERTY
U+W
SciTegic.value.DoubleValue
3.025

@<SCITEGIC>MOL_PROPERTY
Grad RMS
SciTegic.value.DoubleValue
0.000000

@<SCITEGIC>MOL_PROPERTY
U
SciTegic.value.DoubleValue
5.843

@<SCITEGIC>MOL_PROPERTY
W
SciTegic.value.DoubleValue
-2.819

@<SCITEGIC>MOL_PROPERTY
W(PB)
SciTegic.value.DoubleValue
-4.568

@<SCITEGIC>MOL_PROPERTY
W(SA)
SciTegic.value.DoubleValue
1.750

@<SCITEGIC>MOL_PROPERTY
Valence
SciTegic.value.DoubleValue
13.789

@<SCITEGIC>MOL_PROPERTY
Coulomb
SciTegic.value.DoubleValue
-8.574

@<SCITEGIC>MOL_PROPERTY
VdW
SciTegic.value.DoubleValue
0.628

@<SCITEGIC>MOL_PROPERTY
VdW6
SciTegic.value.DoubleValue
-3.284

@<SCITEGIC>MOL_PROPERTY
VdW12
SciTegic.value.DoubleValue
3.913

@<SCITEGIC>MOL_PROPERTY
Bond
SciTegic.value.DoubleValue
0.054

@<SCITEGIC>MOL_PROPERTY
Angle
SciTegic.value.DoubleValue
4.033

@<SCITEGIC>MOL_PROPERTY
Pdih
SciTegic.value.DoubleValue
9.702

@<SCITEGIC>MOL_PROPERTY
Idih
SciTegic.value.DoubleValue
0.000

@<SCITEGIC>MOL_PROPERTY
Tether
SciTegic.value.DoubleValue
0.000

@<TRIPOS>MOLECULE
guest-4_confgen4.mol2 : confsearch ligand conformer 921
          16          16           1
SMALL
USER_CHARGES
 
@<TRIPOS>ATOM
       1    C1      20.414089   18.202559   22.996874 C.3        1 MOL1        -0.1689
       2    H1      20.824360   18.972847   23.664379 H          1 MOL1         0.0830
       3    H2      20.992419   17.281970   23.155137 H          1 MOL1         0.0830
       4    C2      20.496689   18.680070   21.530524 C.3        1 MOL1        -0.1689
       5    H3      20.947898   19.680996   21.488267 H          1 MOL1         0.0830
       6    H4      21.117421   18.008680   20.921486 H          1 MOL1         0.0830
       7    C3      19.046885   18.726079   21.002899 C.3        1 MOL1        -0.1765
       8    H5      18.831057   17.806776   20.442613 H          1 MOL1         0.0830
       9    H6      18.876014   19.576069   20.328862 H          1 MOL1         0.0830
      10    C4      18.144554   18.777200   22.243132 C.3        1 MOL1         0.1214
      11    H7      17.157293   18.336158   22.043679 H          1 MOL1         0.0787
      12    C5      18.917572   17.976772   23.299880 C.3        1 MOL1        -0.1765
      13    H8      18.650799   18.272675   24.323246 H          1 MOL1         0.0830
      14    H9      18.677009   16.911438   23.186681 H          1 MOL1         0.0830
      15    O1      18.019729   20.124152   22.675504 O.3        1 MOL1        -0.5512
      16    H10     18.937964   20.429323   22.826755 H          1 MOL1         0.3776
@<TRIPOS>BOND
    1     1     2    1
    2     1     3    1
    3     1     4    1
    4     4     5    1
    5     4     6    1
    6     4     7    1
    7     7     8    1
    8     7     9    1
    9     7    10    1
   10    10    11    1
   11     1    12    1
   12    10    12    1
   13    12    13    1
   14    12    14    1
   15    10    15    1
   16    15    16    1
@<TRIPOS>SUBSTRUCTURE
       1 MOL1            1 RESIDUE      1      MOL     
@<SCITEGIC>MOL_PROPERTY
VConf Rank
SciTegic.value.IntegerValue
921

@<SCITEGIC>MOL_PROPERTY
Conf_Id
SciTegic.value.IntegerValue
20

@<SCITEGIC>MOL_PROPERTY
Delta U+W
SciTegic.value.DoubleValue
-0.483

@<SCITEGIC>MOL_PROPERTY
U+W
SciTegic.value.DoubleValue
2.527

@<SCITEGIC>MOL_PROPERTY
Grad RMS
SciTegic.value.DoubleValue
0.000000

@<SCITEGIC>MOL_PROPERTY
U
SciTegic.value.DoubleValue
4.508

@<SCITEGIC>MOL_PROPERTY
W
SciTegic.value.DoubleValue
-1.981

@<SCITEGIC>MOL_PROPERTY
W(PB)
SciTegic.value.DoubleValue
-3.712

@<SCITEGIC>MOL_PROPERTY
W(SA)
SciTegic.value.DoubleValue
1.732

@<SCITEGIC>MOL_PROPERTY
Valence
SciTegic.value.DoubleValue
14.705

@<SCITEGIC>MOL_PROPERTY
Coulomb
SciTegic.value.DoubleValue
-10.687

@<SCITEGIC>MOL_PROPERTY
VdW
SciTegic.value.DoubleValue
0.490

@<SCITEGIC>MOL_PROPERTY
VdW6
SciTegic.value.DoubleValue
-3.745

@<SCITEGIC>MOL_PROPERTY
VdW12
SciTegic.value.DoubleValue
4.235

@<SCITEGIC>MOL_PROPERTY
Bond
SciTegic.value.DoubleValue
0.068

@<SCITEGIC>MOL_PROPERTY
Angle
SciTegic.value.DoubleValue
3.901

@<SCITEGIC>MOL_PROPERTY
Pdih
SciTegic.value.DoubleValue
10.737

@<SCITEGIC>MOL_PROPERTY
Idih
SciTegic.value.DoubleValue
0.000

@<SCITEGIC>MOL_PROPERTY
Tether
SciTegic.value.DoubleValue
0.000

@<TRIPOS>MOLECULE
guest-4_confgen4.mol2 : confsearch ligand conformer 922
          16          16           1
SMALL
USER_CHARGES
 
@<TRIPOS>ATOM
       1    C1      18.170639   17.950544   22.896716 C.3        1 MOL1        -0.1689
       2    H1      17.567644   17.623469   22.038173 H          1 MOL1         0.0830
       3    H2      17.657776   17.638000   23.816461 H          1 MOL1         0.0830
       4    C2      18.379824   19.469572   22.829447 C.3        1 MOL1        -0.1689
       5    H3      17.478660   20.001164   22.494675 H          1 MOL1         0.0830
       6    H4      18.653400   19.849427   23.823677 H          1 MOL1         0.0830
       7    C3      19.561484   19.650957   21.859223 C.3        1 MOL1        -0.1765
       8    H5      20.137102   20.555887   22.092915 H          1 MOL1         0.0830
       9    H6      19.178205   19.750108   20.834503 H          1 MOL1         0.0830
      10    C4      20.427124   18.379597   21.985682 C.3        1 MOL1         0.1214
      11    H7      21.349491   18.605923   22.540240 H          1 MOL1         0.0787
      12    C5      19.588777   17.360966   22.785306 C.3        1 MOL1        -0.1765
      13    H8      19.578283   16.368833   22.314579 H          1 MOL1         0.0830
      14    H9      20.021471   17.249934   23.788067 H          1 MOL1         0.0830
      15    O1      20.729482   17.861240   20.695809 O.3        1 MOL1        -0.5512
      16    H10     21.250205   18.549915   20.230937 H          1 MOL1         0.3776
@<TRIPOS>BOND
    1     1     2    1
    2     1     3    1
    3     1     4    1
    4     4     5    1
    5     4     6    1
    6     4     7    1
    7     7     8    1
    8     7     9    1
    9     7    10    1
   10    10    11    1
   11     1    12    1
   12    10    12    1
   13    12    13    1
   14    12    14    1
   15    10    15    1
   16    15    16    1
@<TRIPOS>SUBSTRUCTURE
       1 MOL1            1 RESIDUE      1      MOL     
@<SCITEGIC>MOL_PROPERTY
VConf Rank
SciTegic.value.IntegerValue
922

@<SCITEGIC>MOL_PROPERTY
Conf_Id
SciTegic.value.IntegerValue
59

@<SCITEGIC>MOL_PROPERTY
Delta U+W
SciTegic.value.DoubleValue
0.000

@<SCITEGIC>MOL_PROPERTY
U+W
SciTegic.value.DoubleValue
3.010

@<SCITEGIC>MOL_PROPERTY
Grad RMS
SciTegic.value.DoubleValue
0.000000

@<SCITEGIC>MOL_PROPERTY
U
SciTegic.value.DoubleValue
5.843

@<SCITEGIC>MOL_PROPERTY
W
SciTegic.value.DoubleValue
-2.833

@<SCITEGIC>MOL_PROPERTY
W(PB)
SciTegic.value.DoubleValue
-4.568

@<SCITEGIC>MOL_PROPERTY
W(SA)
SciTegic.value.DoubleValue
1.735

@<SCITEGIC>MOL_PROPERTY
Valence
SciTegic.value.DoubleValue
13.789

@<SCITEGIC>MOL_PROPERTY
Coulomb
SciTegic.value.DoubleValue
-8.574

@<SCITEGIC>MOL_PROPERTY
VdW
SciTegic.value.DoubleValue
0.628

@<SCITEGIC>MOL_PROPERTY
VdW6
SciTegic.value.DoubleValue
-3.284

@<SCITEGIC>MOL_PROPERTY
VdW12
SciTegic.value.DoubleValue
3.912

@<SCITEGIC>MOL_PROPERTY
Bond
SciTegic.value.DoubleValue
0.054

@<SCITEGIC>MOL_PROPERTY
Angle
SciTegic.value.DoubleValue
4.034

@<SCITEGIC>MOL_PROPERTY
Pdih
SciTegic.value.DoubleValue
9.702

@<SCITEGIC>MOL_PROPERTY
Idih
SciTegic.value.DoubleValue
0.000

@<SCITEGIC>MOL_PROPERTY
Tether
SciTegic.value.DoubleValue
0.000

@<TRIPOS>MOLECULE
guest-4_confgen4.mol2 : confsearch ligand conformer 923
          16          16           1
SMALL
USER_CHARGES
 
@<TRIPOS>ATOM
       1    C1      20.723325   18.851430   21.670163 C.3        1 MOL1        -0.1689
       2    H1      21.144721   18.998365   20.666373 H          1 MOL1         0.0830
       3    H2      21.511502   19.058596   22.407375 H          1 MOL1         0.0830
       4    C2      20.185689   17.428541   21.875254 C.3        1 MOL1        -0.1689
       5    H3      19.681292   17.089880   20.959519 H          1 MOL1         0.0830
       6    H4      20.981082   16.710124   22.115815 H          1 MOL1         0.0830
       7    C3      19.154943   17.566150   23.010905 C.3        1 MOL1        -0.1765
       8    H5      19.650978   17.416850   23.978760 H          1 MOL1         0.0830
       9    H6      18.356929   16.816532   22.925666 H          1 MOL1         0.0830
      10    C4      18.613091   19.008806   22.940638 C.3        1 MOL1         0.1214
      11    H7      18.688765   19.474114   23.934258 H          1 MOL1         0.0787
      12    C5      19.509962   19.761438   21.935201 C.3        1 MOL1        -0.1765
      13    H8      18.969063   19.929036   20.993861 H          1 MOL1         0.0830
      14    H9      19.819844   20.739749   22.324724 H          1 MOL1         0.0830
      15    O1      17.264388   19.004735   22.488001 O.3        1 MOL1        -0.5512
      16    H10     16.977039   19.941567   22.451845 H          1 MOL1         0.3776
@<TRIPOS>BOND
    1     1     2    1
    2     1     3    1
    3     1     4    1
    4     4     5    1
    5     4     6    1
    6     4     7    1
    7     7     8    1
    8     7     9    1
    9     7    10    1
   10    10    11    1
   11     1    12    1
   12    10    12    1
   13    12    13    1
   14    12    14    1
   15    10    15    1
   16    15    16    1
@<TRIPOS>SUBSTRUCTURE
       1 MOL1            1 RESIDUE      1      MOL     
@<SCITEGIC>MOL_PROPERTY
VConf Rank
SciTegic.value.IntegerValue
923

@<SCITEGIC>MOL_PROPERTY
Conf_Id
SciTegic.value.IntegerValue
33

@<SCITEGIC>MOL_PROPERTY
Delta U+W
SciTegic.value.DoubleValue
0.015

@<SCITEGIC>MOL_PROPERTY
U+W
SciTegic.value.DoubleValue
3.025

@<SCITEGIC>MOL_PROPERTY
Grad RMS
SciTegic.value.DoubleValue
0.000000

@<SCITEGIC>MOL_PROPERTY
U
SciTegic.value.DoubleValue
5.843

@<SCITEGIC>MOL_PROPERTY
W
SciTegic.value.DoubleValue
-2.819

@<SCITEGIC>MOL_PROPERTY
W(PB)
SciTegic.value.DoubleValue
-4.568

@<SCITEGIC>MOL_PROPERTY
W(SA)
SciTegic.value.DoubleValue
1.750

@<SCITEGIC>MOL_PROPERTY
Valence
SciTegic.value.DoubleValue
13.789

@<SCITEGIC>MOL_PROPERTY
Coulomb
SciTegic.value.DoubleValue
-8.574

@<SCITEGIC>MOL_PROPERTY
VdW
SciTegic.value.DoubleValue
0.628

@<SCITEGIC>MOL_PROPERTY
VdW6
SciTegic.value.DoubleValue
-3.284

@<SCITEGIC>MOL_PROPERTY
VdW12
SciTegic.value.DoubleValue
3.913

@<SCITEGIC>MOL_PROPERTY
Bond
SciTegic.value.DoubleValue
0.054

@<SCITEGIC>MOL_PROPERTY
Angle
SciTegic.value.DoubleValue
4.033

@<SCITEGIC>MOL_PROPERTY
Pdih
SciTegic.value.DoubleValue
9.702

@<SCITEGIC>MOL_PROPERTY
Idih
SciTegic.value.DoubleValue
0.000

@<SCITEGIC>MOL_PROPERTY
Tether
SciTegic.value.DoubleValue
0.000

@<TRIPOS>MOLECULE
guest-4_confgen4.mol2 : confsearch ligand conformer 924
          16          16           1
SMALL
USER_CHARGES
 
@<TRIPOS>ATOM
       1    C1      19.820087   19.505584   21.370387 C.3        1 MOL1        -0.1689
       2    H1      20.908217   19.492792   21.218611 H          1 MOL1         0.0830
       3    H2      19.399831   20.272675   20.705590 H          1 MOL1         0.0830
       4    C2      19.499877   19.800900   22.852034 C.3        1 MOL1        -0.1689
       5    H3      20.432995   19.932079   23.417108 H          1 MOL1         0.0830
       6    H4      18.911228   20.721961   22.962211 H          1 MOL1         0.0830
       7    C3      18.721936   18.578395   23.383753 C.3        1 MOL1        -0.1765
       8    H5      17.644575   18.788401   23.355251 H          1 MOL1         0.0830
       9    H6      18.987575   18.335027   24.421160 H          1 MOL1         0.0830
      10    C4      19.030594   17.425608   22.418971 C.3        1 MOL1         0.1214
      11    H7      18.210855   16.693454   22.387955 H          1 MOL1         0.0787
      12    C5      19.222542   18.116250   21.062090 C.3        1 MOL1        -0.1765
      13    H8      19.857696   17.531163   20.383666 H          1 MOL1         0.0830
      14    H9      18.242642   18.236760   20.581575 H          1 MOL1         0.0830
      15    O1      20.248828   16.806149   22.804954 O.3        1 MOL1        -0.5512
      16    H10     20.912276   17.526565   22.804599 H          1 MOL1         0.3776
@<TRIPOS>BOND
    1     1     2    1
    2     1     3    1
    3     1     4    1
    4     4     5    1
    5     4     6    1
    6     4     7    1
    7     7     8    1
    8     7     9    1
    9     7    10    1
   10    10    11    1
   11     1    12    1
   12    10    12    1
   13    12    13    1
   14    12    14    1
   15    10    15    1
   16    15    16    1
@<TRIPOS>SUBSTRUCTURE
       1 MOL1            1 RESIDUE      1      MOL     
@<SCITEGIC>MOL_PROPERTY
VConf Rank
SciTegic.value.IntegerValue
924

@<SCITEGIC>MOL_PROPERTY
Conf_Id
SciTegic.value.IntegerValue
20

@<SCITEGIC>MOL_PROPERTY
Delta U+W
SciTegic.value.DoubleValue
-0.483

@<SCITEGIC>MOL_PROPERTY
U+W
SciTegic.value.DoubleValue
2.527

@<SCITEGIC>MOL_PROPERTY
Grad RMS
SciTegic.value.DoubleValue
0.000000

@<SCITEGIC>MOL_PROPERTY
U
SciTegic.value.DoubleValue
4.508

@<SCITEGIC>MOL_PROPERTY
W
SciTegic.value.DoubleValue
-1.981

@<SCITEGIC>MOL_PROPERTY
W(PB)
SciTegic.value.DoubleValue
-3.712

@<SCITEGIC>MOL_PROPERTY
W(SA)
SciTegic.value.DoubleValue
1.732

@<SCITEGIC>MOL_PROPERTY
Valence
SciTegic.value.DoubleValue
14.705

@<SCITEGIC>MOL_PROPERTY
Coulomb
SciTegic.value.DoubleValue
-10.687

@<SCITEGIC>MOL_PROPERTY
VdW
SciTegic.value.DoubleValue
0.490

@<SCITEGIC>MOL_PROPERTY
VdW6
SciTegic.value.DoubleValue
-3.745

@<SCITEGIC>MOL_PROPERTY
VdW12
SciTegic.value.DoubleValue
4.235

@<SCITEGIC>MOL_PROPERTY
Bond
SciTegic.value.DoubleValue
0.068

@<SCITEGIC>MOL_PROPERTY
Angle
SciTegic.value.DoubleValue
3.901

@<SCITEGIC>MOL_PROPERTY
Pdih
SciTegic.value.DoubleValue
10.737

@<SCITEGIC>MOL_PROPERTY
Idih
SciTegic.value.DoubleValue
0.000

@<SCITEGIC>MOL_PROPERTY
Tether
SciTegic.value.DoubleValue
0.000

@<TRIPOS>MOLECULE
guest-4_confgen4.mol2 : confsearch ligand conformer 925
          16          16           1
SMALL
USER_CHARGES
 
@<TRIPOS>ATOM
       1    C1      19.527301   18.695840   23.751159 C.3        1 MOL1        -0.1689
       2    H1      19.332186   17.694806   24.160473 H          1 MOL1         0.0830
       3    H2      19.818357   19.355677   24.579740 H          1 MOL1         0.0830
       4    C2      18.281527   19.200227   23.009964 C.3        1 MOL1        -0.1689
       5    H3      17.350561   18.938499   23.531078 H          1 MOL1         0.0830
       6    H4      18.325895   20.294076   22.914298 H          1 MOL1         0.0830
       7    C3      18.375594   18.551243   21.616936 C.3        1 MOL1        -0.1765
       8    H5      17.896153   19.174321   20.850936 H          1 MOL1         0.0830
       9    H6      17.861271   17.580675   21.632883 H          1 MOL1         0.0830
      10    C4      19.879053   18.355039   21.329194 C.3        1 MOL1         0.1214
      11    H7      20.218666   19.089455   20.584335 H          1 MOL1         0.0787
      12    C5      20.612905   18.605305   22.662859 C.3        1 MOL1        -0.1765
      13    H8      21.346953   17.820242   22.888405 H          1 MOL1         0.0830
      14    H9      21.152863   19.559074   22.600806 H          1 MOL1         0.0830
      15    O1      20.123203   17.028732   20.876217 O.3        1 MOL1        -0.5512
      16    H10     19.627079   16.922323   20.037128 H          1 MOL1         0.3776
@<TRIPOS>BOND
    1     1     2    1
    2     1     3    1
    3     1     4    1
    4     4     5    1
    5     4     6    1
    6     4     7    1
    7     7     8    1
    8     7     9    1
    9     7    10    1
   10    10    11    1
   11     1    12    1
   12    10    12    1
   13    12    13    1
   14    12    14    1
   15    10    15    1
   16    15    16    1
@<TRIPOS>SUBSTRUCTURE
       1 MOL1            1 RESIDUE      1      MOL     
@<SCITEGIC>MOL_PROPERTY
VConf Rank
SciTegic.value.IntegerValue
925

@<SCITEGIC>MOL_PROPERTY
Conf_Id
SciTegic.value.IntegerValue
59

@<SCITEGIC>MOL_PROPERTY
Delta U+W
SciTegic.value.DoubleValue
0.000

@<SCITEGIC>MOL_PROPERTY
U+W
SciTegic.value.DoubleValue
3.010

@<SCITEGIC>MOL_PROPERTY
Grad RMS
SciTegic.value.DoubleValue
0.000000

@<SCITEGIC>MOL_PROPERTY
U
SciTegic.value.DoubleValue
5.843

@<SCITEGIC>MOL_PROPERTY
W
SciTegic.value.DoubleValue
-2.833

@<SCITEGIC>MOL_PROPERTY
W(PB)
SciTegic.value.DoubleValue
-4.568

@<SCITEGIC>MOL_PROPERTY
W(SA)
SciTegic.value.DoubleValue
1.735

@<SCITEGIC>MOL_PROPERTY
Valence
SciTegic.value.DoubleValue
13.789

@<SCITEGIC>MOL_PROPERTY
Coulomb
SciTegic.value.DoubleValue
-8.574

@<SCITEGIC>MOL_PROPERTY
VdW
SciTegic.value.DoubleValue
0.628

@<SCITEGIC>MOL_PROPERTY
VdW6
SciTegic.value.DoubleValue
-3.284

@<SCITEGIC>MOL_PROPERTY
VdW12
SciTegic.value.DoubleValue
3.912

@<SCITEGIC>MOL_PROPERTY
Bond
SciTegic.value.DoubleValue
0.054

@<SCITEGIC>MOL_PROPERTY
Angle
SciTegic.value.DoubleValue
4.034

@<SCITEGIC>MOL_PROPERTY
Pdih
SciTegic.value.DoubleValue
9.702

@<SCITEGIC>MOL_PROPERTY
Idih
SciTegic.value.DoubleValue
0.000

@<SCITEGIC>MOL_PROPERTY
Tether
SciTegic.value.DoubleValue
0.000

@<TRIPOS>MOLECULE
guest-4_confgen4.mol2 : confsearch ligand conformer 926
          16          16           1
SMALL
USER_CHARGES
 
@<TRIPOS>ATOM
       1    C1      20.297367   19.488648   21.532207 C.3        1 MOL1        -0.1689
       2    H1      21.239687   19.454911   20.968598 H          1 MOL1         0.0830
       3    H2      19.828600   20.467455   21.359533 H          1 MOL1         0.0830
       4    C2      20.509264   19.276052   23.037408 C.3        1 MOL1        -0.1689
       5    H3      21.273582   18.502543   23.196090 H          1 MOL1         0.0830
       6    H4      20.835274   20.191995   23.548688 H          1 MOL1         0.0830
       7    C3      19.148617   18.769344   23.550208 C.3        1 MOL1        -0.1765
       8    H5      18.528348   19.622651   23.853884 H          1 MOL1         0.0830
       9    H6      19.264387   18.113362   24.423308 H          1 MOL1         0.0830
      10    C4      18.471197   18.051824   22.364432 C.3        1 MOL1         0.1214
      11    H7      17.454307   18.449280   22.232216 H          1 MOL1         0.0787
      12    C5      19.327329   18.366449   21.119528 C.3        1 MOL1        -0.1765
      13    H8      19.903327   17.480353   20.819793 H          1 MOL1         0.0830
      14    H9      18.704610   18.667851   20.267340 H          1 MOL1         0.0830
      15    O1      18.437201   16.648392   22.594906 O.3        1 MOL1        -0.5512
      16    H10     18.009519   16.244802   21.810219 H          1 MOL1         0.3776
@<TRIPOS>BOND
    1     1     2    1
    2     1     3    1
    3     1     4    1
    4     4     5    1
    5     4     6    1
    6     4     7    1
    7     7     8    1
    8     7     9    1
    9     7    10    1
   10    10    11    1
   11     1    12    1
   12    10    12    1
   13    12    13    1
   14    12    14    1
   15    10    15    1
   16    15    16    1
@<TRIPOS>SUBSTRUCTURE
       1 MOL1            1 RESIDUE      1      MOL     
@<SCITEGIC>MOL_PROPERTY
VConf Rank
SciTegic.value.IntegerValue
926

@<SCITEGIC>MOL_PROPERTY
Conf_Id
SciTegic.value.IntegerValue
33

@<SCITEGIC>MOL_PROPERTY
Delta U+W
SciTegic.value.DoubleValue
0.015

@<SCITEGIC>MOL_PROPERTY
U+W
SciTegic.value.DoubleValue
3.025

@<SCITEGIC>MOL_PROPERTY
Grad RMS
SciTegic.value.DoubleValue
0.000000

@<SCITEGIC>MOL_PROPERTY
U
SciTegic.value.DoubleValue
5.843

@<SCITEGIC>MOL_PROPERTY
W
SciTegic.value.DoubleValue
-2.819

@<SCITEGIC>MOL_PROPERTY
W(PB)
SciTegic.value.DoubleValue
-4.568

@<SCITEGIC>MOL_PROPERTY
W(SA)
SciTegic.value.DoubleValue
1.750

@<SCITEGIC>MOL_PROPERTY
Valence
SciTegic.value.DoubleValue
13.789

@<SCITEGIC>MOL_PROPERTY
Coulomb
SciTegic.value.DoubleValue
-8.574

@<SCITEGIC>MOL_PROPERTY
VdW
SciTegic.value.DoubleValue
0.628

@<SCITEGIC>MOL_PROPERTY
VdW6
SciTegic.value.DoubleValue
-3.284

@<SCITEGIC>MOL_PROPERTY
VdW12
SciTegic.value.DoubleValue
3.913

@<SCITEGIC>MOL_PROPERTY
Bond
SciTegic.value.DoubleValue
0.054

@<SCITEGIC>MOL_PROPERTY
Angle
SciTegic.value.DoubleValue
4.033

@<SCITEGIC>MOL_PROPERTY
Pdih
SciTegic.value.DoubleValue
9.702

@<SCITEGIC>MOL_PROPERTY
Idih
SciTegic.value.DoubleValue
0.000

@<SCITEGIC>MOL_PROPERTY
Tether
SciTegic.value.DoubleValue
0.000

@<TRIPOS>MOLECULE
guest-4_confgen4.mol2 : confsearch ligand conformer 927
          16          16           1
SMALL
USER_CHARGES
 
@<TRIPOS>ATOM
       1    C1      18.600460   18.740541   21.179677 C.3        1 MOL1        -0.1689
       2    H1      19.120819   19.122064   20.290355 H          1 MOL1         0.0830
       3    H2      17.554134   18.556069   20.900091 H          1 MOL1         0.0830
       4    C2      18.708619   19.764149   22.331002 C.3        1 MOL1        -0.1689
       5    H3      19.280405   20.641517   21.998569 H          1 MOL1         0.0830
       6    H4      17.718784   20.114375   22.654373 H          1 MOL1         0.0830
       7    C3      19.448248   19.050833   23.482768 C.3        1 MOL1        -0.1765
       8    H5      18.717067   18.669202   24.207580 H          1 MOL1         0.0830
       9    H6      20.130528   19.723712   24.019176 H          1 MOL1         0.0830
      10    C4      20.183868   17.864440   22.845329 C.3        1 MOL1         0.1214
      11    H7      20.324825   17.043083   23.562606 H          1 MOL1         0.0787
      12    C5      19.277706   17.446728   21.679419 C.3        1 MOL1        -0.1765
      13    H8      19.833842   16.933782   20.883426 H          1 MOL1         0.0830
      14    H9      18.512941   16.753069   22.053041 H          1 MOL1         0.0830
      15    O1      21.431342   18.308656   22.332213 O.3        1 MOL1        -0.5512
      16    H10     21.208165   19.031544   21.710291 H          1 MOL1         0.3776
@<TRIPOS>BOND
    1     1     2    1
    2     1     3    1
    3     1     4    1
    4     4     5    1
    5     4     6    1
    6     4     7    1
    7     7     8    1
    8     7     9    1
    9     7    10    1
   10    10    11    1
   11     1    12    1
   12    10    12    1
   13    12    13    1
   14    12    14    1
   15    10    15    1
   16    15    16    1
@<TRIPOS>SUBSTRUCTURE
       1 MOL1            1 RESIDUE      1      MOL     
@<SCITEGIC>MOL_PROPERTY
VConf Rank
SciTegic.value.IntegerValue
927

@<SCITEGIC>MOL_PROPERTY
Conf_Id
SciTegic.value.IntegerValue
20

@<SCITEGIC>MOL_PROPERTY
Delta U+W
SciTegic.value.DoubleValue
-0.483

@<SCITEGIC>MOL_PROPERTY
U+W
SciTegic.value.DoubleValue
2.527

@<SCITEGIC>MOL_PROPERTY
Grad RMS
SciTegic.value.DoubleValue
0.000000

@<SCITEGIC>MOL_PROPERTY
U
SciTegic.value.DoubleValue
4.508

@<SCITEGIC>MOL_PROPERTY
W
SciTegic.value.DoubleValue
-1.981

@<SCITEGIC>MOL_PROPERTY
W(PB)
SciTegic.value.DoubleValue
-3.712

@<SCITEGIC>MOL_PROPERTY
W(SA)
SciTegic.value.DoubleValue
1.732

@<SCITEGIC>MOL_PROPERTY
Valence
SciTegic.value.DoubleValue
14.705

@<SCITEGIC>MOL_PROPERTY
Coulomb
SciTegic.value.DoubleValue
-10.687

@<SCITEGIC>MOL_PROPERTY
VdW
SciTegic.value.DoubleValue
0.490

@<SCITEGIC>MOL_PROPERTY
VdW6
SciTegic.value.DoubleValue
-3.745

@<SCITEGIC>MOL_PROPERTY
VdW12
SciTegic.value.DoubleValue
4.235

@<SCITEGIC>MOL_PROPERTY
Bond
SciTegic.value.DoubleValue
0.068

@<SCITEGIC>MOL_PROPERTY
Angle
SciTegic.value.DoubleValue
3.901

@<SCITEGIC>MOL_PROPERTY
Pdih
SciTegic.value.DoubleValue
10.737

@<SCITEGIC>MOL_PROPERTY
Idih
SciTegic.value.DoubleValue
0.000

@<SCITEGIC>MOL_PROPERTY
Tether
SciTegic.value.DoubleValue
0.000

@<TRIPOS>MOLECULE
guest-4_confgen4.mol2 : confsearch ligand conformer 928
          16          16           1
SMALL
USER_CHARGES
 
@<TRIPOS>ATOM
       1    C1      19.746890   19.948325   22.177473 C.3        1 MOL1        -0.1689
       2    H1      18.817156   20.517596   22.316038 H          1 MOL1         0.0830
       3    H2      20.572326   20.662376   22.053248 H          1 MOL1         0.0830
       4    C2      19.599423   19.007597   20.973723 C.3        1 MOL1        -0.1689
       5    H3      19.055247   19.475318   20.141937 H          1 MOL1         0.0830
       6    H4      20.593963   18.712695   20.611026 H          1 MOL1         0.0830
       7    C3      18.864365   17.777429   21.536690 C.3        1 MOL1        -0.1765
       8    H5      19.131344   16.864870   20.988232 H          1 MOL1         0.0830
       9    H6      17.780316   17.925403   21.438073 H          1 MOL1         0.0830
      10    C4      19.257438   17.679743   23.025861 C.3        1 MOL1         0.1214
      11    H7      19.959710   16.846781   23.175886 H          1 MOL1         0.0787
      12    C5      19.959289   19.007629   23.377935 C.3        1 MOL1        -0.1765
      13    H8      19.576700   19.447299   24.308707 H          1 MOL1         0.0830
      14    H9      21.032366   18.820254   23.513866 H          1 MOL1         0.0830
      15    O1      18.096189   17.510315   23.830027 O.3        1 MOL1        -0.5512
      16    H10     17.686844   16.661904   23.557689 H          1 MOL1         0.3776
@<TRIPOS>BOND
    1     1     2    1
    2     1     3    1
    3     1     4    1
    4     4     5    1
    5     4     6    1
    6     4     7    1
    7     7     8    1
    8     7     9    1
    9     7    10    1
   10    10    11    1
   11     1    12    1
   12    10    12    1
   13    12    13    1
   14    12    14    1
   15    10    15    1
   16    15    16    1
@<TRIPOS>SUBSTRUCTURE
       1 MOL1            1 RESIDUE      1      MOL     
@<SCITEGIC>MOL_PROPERTY
VConf Rank
SciTegic.value.IntegerValue
928

@<SCITEGIC>MOL_PROPERTY
Conf_Id
SciTegic.value.IntegerValue
59

@<SCITEGIC>MOL_PROPERTY
Delta U+W
SciTegic.value.DoubleValue
0.000

@<SCITEGIC>MOL_PROPERTY
U+W
SciTegic.value.DoubleValue
3.010

@<SCITEGIC>MOL_PROPERTY
Grad RMS
SciTegic.value.DoubleValue
0.000000

@<SCITEGIC>MOL_PROPERTY
U
SciTegic.value.DoubleValue
5.843

@<SCITEGIC>MOL_PROPERTY
W
SciTegic.value.DoubleValue
-2.833

@<SCITEGIC>MOL_PROPERTY
W(PB)
SciTegic.value.DoubleValue
-4.568

@<SCITEGIC>MOL_PROPERTY
W(SA)
SciTegic.value.DoubleValue
1.735

@<SCITEGIC>MOL_PROPERTY
Valence
SciTegic.value.DoubleValue
13.789

@<SCITEGIC>MOL_PROPERTY
Coulomb
SciTegic.value.DoubleValue
-8.574

@<SCITEGIC>MOL_PROPERTY
VdW
SciTegic.value.DoubleValue
0.628

@<SCITEGIC>MOL_PROPERTY
VdW6
SciTegic.value.DoubleValue
-3.284

@<SCITEGIC>MOL_PROPERTY
VdW12
SciTegic.value.DoubleValue
3.912

@<SCITEGIC>MOL_PROPERTY
Bond
SciTegic.value.DoubleValue
0.054

@<SCITEGIC>MOL_PROPERTY
Angle
SciTegic.value.DoubleValue
4.034

@<SCITEGIC>MOL_PROPERTY
Pdih
SciTegic.value.DoubleValue
9.702

@<SCITEGIC>MOL_PROPERTY
Idih
SciTegic.value.DoubleValue
0.000

@<SCITEGIC>MOL_PROPERTY
Tether
SciTegic.value.DoubleValue
0.000

@<TRIPOS>MOLECULE
guest-4_confgen4.mol2 : confsearch ligand conformer 929
          16          16           1
SMALL
USER_CHARGES
 
@<TRIPOS>ATOM
       1    C1      20.266906   17.436050   22.406904 C.3        1 MOL1        -0.1689
       2    H1      20.811394   16.871798   23.176262 H          1 MOL1         0.0830
       3    H2      20.276337   16.848175   21.478499 H          1 MOL1         0.0830
       4    C2      20.884112   18.817541   22.149481 C.3        1 MOL1        -0.1689
       5    H3      21.203856   19.261446   23.102577 H          1 MOL1         0.0830
       6    H4      21.755585   18.770019   21.482459 H          1 MOL1         0.0830
       7    C3      19.732907   19.648891   21.553946 C.3        1 MOL1        -0.1765
       8    H5      19.733693   19.549246   20.460714 H          1 MOL1         0.0830
       9    H6      19.839345   20.715679   21.791963 H          1 MOL1         0.0830
      10    C4      18.424641   19.052014   22.112493 C.3        1 MOL1         0.1214
      11    H7      17.736262   18.843347   21.280560 H          1 MOL1         0.0787
      12    C5      18.813986   17.736171   22.818682 C.3        1 MOL1        -0.1765
      13    H8      18.763619   17.859984   23.909056 H          1 MOL1         0.0830
      14    H9      18.140684   16.914881   22.541207 H          1 MOL1         0.0830
      15    O1      17.832736   19.951567   23.042197 O.3        1 MOL1        -0.5512
      16    H10     17.016552   19.519103   23.371358 H          1 MOL1         0.3776
@<TRIPOS>BOND
    1     1     2    1
    2     1     3    1
    3     1     4    1
    4     4     5    1
    5     4     6    1
    6     4     7    1
    7     7     8    1
    8     7     9    1
    9     7    10    1
   10    10    11    1
   11     1    12    1
   12    10    12    1
   13    12    13    1
   14    12    14    1
   15    10    15    1
   16    15    16    1
@<TRIPOS>SUBSTRUCTURE
       1 MOL1            1 RESIDUE      1      MOL     
@<SCITEGIC>MOL_PROPERTY
VConf Rank
SciTegic.value.IntegerValue
929

@<SCITEGIC>MOL_PROPERTY
Conf_Id
SciTegic.value.IntegerValue
33

@<SCITEGIC>MOL_PROPERTY
Delta U+W
SciTegic.value.DoubleValue
0.015

@<SCITEGIC>MOL_PROPERTY
U+W
SciTegic.value.DoubleValue
3.025

@<SCITEGIC>MOL_PROPERTY
Grad RMS
SciTegic.value.DoubleValue
0.000000

@<SCITEGIC>MOL_PROPERTY
U
SciTegic.value.DoubleValue
5.843

@<SCITEGIC>MOL_PROPERTY
W
SciTegic.value.DoubleValue
-2.819

@<SCITEGIC>MOL_PROPERTY
W(PB)
SciTegic.value.DoubleValue
-4.568

@<SCITEGIC>MOL_PROPERTY
W(SA)
SciTegic.value.DoubleValue
1.750

@<SCITEGIC>MOL_PROPERTY
Valence
SciTegic.value.DoubleValue
13.789

@<SCITEGIC>MOL_PROPERTY
Coulomb
SciTegic.value.DoubleValue
-8.574

@<SCITEGIC>MOL_PROPERTY
VdW
SciTegic.value.DoubleValue
0.628

@<SCITEGIC>MOL_PROPERTY
VdW6
SciTegic.value.DoubleValue
-3.284

@<SCITEGIC>MOL_PROPERTY
VdW12
SciTegic.value.DoubleValue
3.913

@<SCITEGIC>MOL_PROPERTY
Bond
SciTegic.value.DoubleValue
0.054

@<SCITEGIC>MOL_PROPERTY
Angle
SciTegic.value.DoubleValue
4.033

@<SCITEGIC>MOL_PROPERTY
Pdih
SciTegic.value.DoubleValue
9.702

@<SCITEGIC>MOL_PROPERTY
Idih
SciTegic.value.DoubleValue
0.000

@<SCITEGIC>MOL_PROPERTY
Tether
SciTegic.value.DoubleValue
0.000

@<TRIPOS>MOLECULE
guest-4_confgen4.mol2 : confsearch ligand conformer 930
          16          16           1
SMALL
USER_CHARGES
 
@<TRIPOS>ATOM
       1    C1      18.649729   18.270753   23.325352 C.3        1 MOL1        -0.1689
       2    H1      19.225724   17.803245   24.135841 H          1 MOL1         0.0830
       3    H2      17.603994   18.337849   23.655401 H          1 MOL1         0.0830
       4    C2      18.785206   17.434020   22.034404 C.3        1 MOL1        -0.1689
       5    H3      19.425893   16.561004   22.220386 H          1 MOL1         0.0830
       6    H4      17.810177   17.064258   21.688580 H          1 MOL1         0.0830
       7    C3      19.434041   18.356767   20.980845 C.3        1 MOL1        -0.1765
       8    H5      18.653666   18.785633   20.338419 H          1 MOL1         0.0830
       9    H6      20.140350   17.818619   20.334680 H          1 MOL1         0.0830
      10    C4      20.110764   19.488432   21.765940 C.3        1 MOL1         0.1214
      11    H7      20.170850   20.412487   21.173070 H          1 MOL1         0.0787
      12    C5      19.220660   19.668074   23.003034 C.3        1 MOL1        -0.1765
      13    H8      19.769132   20.099398   23.851056 H          1 MOL1         0.0830
      14    H9      18.398385   20.351926   22.754372 H          1 MOL1         0.0830
      15    O1      21.402616   19.065151   22.176742 O.3        1 MOL1        -0.5512
      16    H10     21.250568   18.246148   22.691794 H          1 MOL1         0.3776
@<TRIPOS>BOND
    1     1     2    1
    2     1     3    1
    3     1     4    1
    4     4     5    1
    5     4     6    1
    6     4     7    1
    7     7     8    1
    8     7     9    1
    9     7    10    1
   10    10    11    1
   11     1    12    1
   12    10    12    1
   13    12    13    1
   14    12    14    1
   15    10    15    1
   16    15    16    1
@<TRIPOS>SUBSTRUCTURE
       1 MOL1            1 RESIDUE      1      MOL     
@<SCITEGIC>MOL_PROPERTY
VConf Rank
SciTegic.value.IntegerValue
930

@<SCITEGIC>MOL_PROPERTY
Conf_Id
SciTegic.value.IntegerValue
20

@<SCITEGIC>MOL_PROPERTY
Delta U+W
SciTegic.value.DoubleValue
-0.483

@<SCITEGIC>MOL_PROPERTY
U+W
SciTegic.value.DoubleValue
2.527

@<SCITEGIC>MOL_PROPERTY
Grad RMS
SciTegic.value.DoubleValue
0.000000

@<SCITEGIC>MOL_PROPERTY
U
SciTegic.value.DoubleValue
4.508

@<SCITEGIC>MOL_PROPERTY
W
SciTegic.value.DoubleValue
-1.981

@<SCITEGIC>MOL_PROPERTY
W(PB)
SciTegic.value.DoubleValue
-3.712

@<SCITEGIC>MOL_PROPERTY
W(SA)
SciTegic.value.DoubleValue
1.732

@<SCITEGIC>MOL_PROPERTY
Valence
SciTegic.value.DoubleValue
14.705

@<SCITEGIC>MOL_PROPERTY
Coulomb
SciTegic.value.DoubleValue
-10.687

@<SCITEGIC>MOL_PROPERTY
VdW
SciTegic.value.DoubleValue
0.490

@<SCITEGIC>MOL_PROPERTY
VdW6
SciTegic.value.DoubleValue
-3.745

@<SCITEGIC>MOL_PROPERTY
VdW12
SciTegic.value.DoubleValue
4.235

@<SCITEGIC>MOL_PROPERTY
Bond
SciTegic.value.DoubleValue
0.068

@<SCITEGIC>MOL_PROPERTY
Angle
SciTegic.value.DoubleValue
3.901

@<SCITEGIC>MOL_PROPERTY
Pdih
SciTegic.value.DoubleValue
10.737

@<SCITEGIC>MOL_PROPERTY
Idih
SciTegic.value.DoubleValue
0.000

@<SCITEGIC>MOL_PROPERTY
Tether
SciTegic.value.DoubleValue
0.000

@<TRIPOS>MOLECULE
guest-4_confgen4.mol2 : confsearch ligand conformer 931
          16          16           1
SMALL
USER_CHARGES
 
@<TRIPOS>ATOM
       1    C1      19.073326   18.056695   20.978032 C.3        1 MOL1        -0.1689
       2    H1      17.976696   18.024664   20.914370 H          1 MOL1         0.0830
       3    H2      19.483437   17.759050   20.003424 H          1 MOL1         0.0830
       4    C2      19.549227   17.145052   22.117397 C.3        1 MOL1        -0.1689
       5    H3      18.974235   16.210679   22.172988 H          1 MOL1         0.0830
       6    H4      20.607452   16.888942   21.968425 H          1 MOL1         0.0830
       7    C3      19.394775   18.004395   23.385558 C.3        1 MOL1        -0.1765
       8    H5      20.127836   17.722965   24.152542 H          1 MOL1         0.0830
       9    H6      18.391319   17.853732   23.806462 H          1 MOL1         0.0830
      10    C4      19.573517   19.471460   22.941203 C.3        1 MOL1         0.1214
      11    H7      20.552110   19.848476   23.272463 H          1 MOL1         0.0787
      12    C5      19.524377   19.467439   21.399320 C.3        1 MOL1        -0.1765
      13    H8      18.854646   20.241592   21.001616 H          1 MOL1         0.0830
      14    H9      20.531166   19.664398   21.008596 H          1 MOL1         0.0830
      15    O1      18.521569   20.274258   23.463515 O.3        1 MOL1        -0.5512
      16    H10     18.593878   20.231737   24.440498 H          1 MOL1         0.3776
@<TRIPOS>BOND
    1     1     2    1
    2     1     3    1
    3     1     4    1
    4     4     5    1
    5     4     6    1
    6     4     7    1
    7     7     8    1
    8     7     9    1
    9     7    10    1
   10    10    11    1
   11     1    12    1
   12    10    12    1
   13    12    13    1
   14    12    14    1
   15    10    15    1
   16    15    16    1
@<TRIPOS>SUBSTRUCTURE
       1 MOL1            1 RESIDUE      1      MOL     
@<SCITEGIC>MOL_PROPERTY
VConf Rank
SciTegic.value.IntegerValue
931

@<SCITEGIC>MOL_PROPERTY
Conf_Id
SciTegic.value.IntegerValue
59

@<SCITEGIC>MOL_PROPERTY
Delta U+W
SciTegic.value.DoubleValue
0.000

@<SCITEGIC>MOL_PROPERTY
U+W
SciTegic.value.DoubleValue
3.010

@<SCITEGIC>MOL_PROPERTY
Grad RMS
SciTegic.value.DoubleValue
0.000000

@<SCITEGIC>MOL_PROPERTY
U
SciTegic.value.DoubleValue
5.843

@<SCITEGIC>MOL_PROPERTY
W
SciTegic.value.DoubleValue
-2.833

@<SCITEGIC>MOL_PROPERTY
W(PB)
SciTegic.value.DoubleValue
-4.568

@<SCITEGIC>MOL_PROPERTY
W(SA)
SciTegic.value.DoubleValue
1.735

@<SCITEGIC>MOL_PROPERTY
Valence
SciTegic.value.DoubleValue
13.789

@<SCITEGIC>MOL_PROPERTY
Coulomb
SciTegic.value.DoubleValue
-8.574

@<SCITEGIC>MOL_PROPERTY
VdW
SciTegic.value.DoubleValue
0.628

@<SCITEGIC>MOL_PROPERTY
VdW6
SciTegic.value.DoubleValue
-3.284

@<SCITEGIC>MOL_PROPERTY
VdW12
SciTegic.value.DoubleValue
3.912

@<SCITEGIC>MOL_PROPERTY
Bond
SciTegic.value.DoubleValue
0.054

@<SCITEGIC>MOL_PROPERTY
Angle
SciTegic.value.DoubleValue
4.034

@<SCITEGIC>MOL_PROPERTY
Pdih
SciTegic.value.DoubleValue
9.702

@<SCITEGIC>MOL_PROPERTY
Idih
SciTegic.value.DoubleValue
0.000

@<SCITEGIC>MOL_PROPERTY
Tether
SciTegic.value.DoubleValue
0.000

@<TRIPOS>MOLECULE
guest-4_confgen4.mol2 : confsearch ligand conformer 932
          16          16           1
SMALL
USER_CHARGES
 
@<TRIPOS>ATOM
       1    C1      19.593744   19.911134   22.886839 C.3        1 MOL1        -0.1689
       2    H1      19.537320   20.969630   22.598464 H          1 MOL1         0.0830
       3    H2      19.681046   19.857296   23.980960 H          1 MOL1         0.0830
       4    C2      20.784181   19.191757   22.237927 C.3        1 MOL1        -0.1689
       5    H3      20.901864   19.536120   21.200987 H          1 MOL1         0.0830
       6    H4      21.726909   19.375987   22.770811 H          1 MOL1         0.0830
       7    C3      20.385998   17.704319   22.245232 C.3        1 MOL1        -0.1765
       8    H5      20.730922   17.235151   23.175820 H          1 MOL1         0.0830
       9    H6      20.842029   17.159560   21.407800 H          1 MOL1         0.0830
      10    C4      18.844552   17.661443   22.201594 C.3        1 MOL1         0.1214
      11    H7      18.476023   17.014843   23.011294 H          1 MOL1         0.0787
      12    C5      18.363019   19.110951   22.422475 C.3        1 MOL1        -0.1765
      13    H8      17.987966   19.535106   21.481088 H          1 MOL1         0.0830
      14    H9      17.551878   19.158548   23.160467 H          1 MOL1         0.0830
      15    O1      18.402713   17.184861   20.936073 O.3        1 MOL1        -0.5512
      16    H10     17.422451   17.189207   20.960527 H          1 MOL1         0.3776
@<TRIPOS>BOND
    1     1     2    1
    2     1     3    1
    3     1     4    1
    4     4     5    1
    5     4     6    1
    6     4     7    1
    7     7     8    1
    8     7     9    1
    9     7    10    1
   10    10    11    1
   11     1    12    1
   12    10    12    1
   13    12    13    1
   14    12    14    1
   15    10    15    1
   16    15    16    1
@<TRIPOS>SUBSTRUCTURE
       1 MOL1            1 RESIDUE      1      MOL     
@<SCITEGIC>MOL_PROPERTY
VConf Rank
SciTegic.value.IntegerValue
932

@<SCITEGIC>MOL_PROPERTY
Conf_Id
SciTegic.value.IntegerValue
33

@<SCITEGIC>MOL_PROPERTY
Delta U+W
SciTegic.value.DoubleValue
0.015

@<SCITEGIC>MOL_PROPERTY
U+W
SciTegic.value.DoubleValue
3.025

@<SCITEGIC>MOL_PROPERTY
Grad RMS
SciTegic.value.DoubleValue
0.000000

@<SCITEGIC>MOL_PROPERTY
U
SciTegic.value.DoubleValue
5.843

@<SCITEGIC>MOL_PROPERTY
W
SciTegic.value.DoubleValue
-2.819

@<SCITEGIC>MOL_PROPERTY
W(PB)
SciTegic.value.DoubleValue
-4.568

@<SCITEGIC>MOL_PROPERTY
W(SA)
SciTegic.value.DoubleValue
1.750

@<SCITEGIC>MOL_PROPERTY
Valence
SciTegic.value.DoubleValue
13.789

@<SCITEGIC>MOL_PROPERTY
Coulomb
SciTegic.value.DoubleValue
-8.574

@<SCITEGIC>MOL_PROPERTY
VdW
SciTegic.value.DoubleValue
0.628

@<SCITEGIC>MOL_PROPERTY
VdW6
SciTegic.value.DoubleValue
-3.284

@<SCITEGIC>MOL_PROPERTY
VdW12
SciTegic.value.DoubleValue
3.913

@<SCITEGIC>MOL_PROPERTY
Bond
SciTegic.value.DoubleValue
0.054

@<SCITEGIC>MOL_PROPERTY
Angle
SciTegic.value.DoubleValue
4.033

@<SCITEGIC>MOL_PROPERTY
Pdih
SciTegic.value.DoubleValue
9.702

@<SCITEGIC>MOL_PROPERTY
Idih
SciTegic.value.DoubleValue
0.000

@<SCITEGIC>MOL_PROPERTY
Tether
SciTegic.value.DoubleValue
0.000

@<TRIPOS>MOLECULE
guest-4_confgen4.mol2 : confsearch ligand conformer 933
          16          16           1
SMALL
USER_CHARGES
 
@<TRIPOS>ATOM
       1    C1      18.367889   18.509876   23.126499 C.3        1 MOL1        -0.1689
       2    H1      18.601308   17.923601   24.025957 H          1 MOL1         0.0830
       3    H2      17.333745   18.868392   23.221415 H          1 MOL1         0.0830
       4    C2      18.552423   17.635404   21.867028 C.3        1 MOL1        -0.1689
       5    H3      18.874120   16.625623   22.156993 H          1 MOL1         0.0830
       6    H4      17.615013   17.537317   21.302546 H          1 MOL1         0.0830
       7    C3      19.643687   18.318764   21.015794 C.3        1 MOL1        -0.1765
       8    H5      19.171213   18.927971   20.233965 H          1 MOL1         0.0830
       9    H6      20.301664   17.591923   20.521049 H          1 MOL1         0.0830
      10    C4      20.411799   19.242173   21.970946 C.3        1 MOL1         0.1214
      11    H7      20.850220   20.099300   21.439812 H          1 MOL1         0.0787
      12    C5      19.353703   19.689482   22.988444 C.3        1 MOL1        -0.1765
      13    H8      19.797401   19.976037   23.951264 H          1 MOL1         0.0830
      14    H9      18.824338   20.565353   22.590643 H          1 MOL1         0.0830
      15    O1      21.416022   18.492757   22.639315 O.3        1 MOL1        -0.5512
      16    H10     20.937209   17.759790   23.078245 H          1 MOL1         0.3776
@<TRIPOS>BOND
    1     1     2    1
    2     1     3    1
    3     1     4    1
    4     4     5    1
    5     4     6    1
    6     4     7    1
    7     7     8    1
    8     7     9    1
    9     7    10    1
   10    10    11    1
   11     1    12    1
   12    10    12    1
   13    12    13    1
   14    12    14    1
   15    10    15    1
   16    15    16    1
@<TRIPOS>SUBSTRUCTURE
       1 MOL1            1 RESIDUE      1      MOL     
@<SCITEGIC>MOL_PROPERTY
VConf Rank
SciTegic.value.IntegerValue
933

@<SCITEGIC>MOL_PROPERTY
Conf_Id
SciTegic.value.IntegerValue
20

@<SCITEGIC>MOL_PROPERTY
Delta U+W
SciTegic.value.DoubleValue
-0.483

@<SCITEGIC>MOL_PROPERTY
U+W
SciTegic.value.DoubleValue
2.527

@<SCITEGIC>MOL_PROPERTY
Grad RMS
SciTegic.value.DoubleValue
0.000000

@<SCITEGIC>MOL_PROPERTY
U
SciTegic.value.DoubleValue
4.508

@<SCITEGIC>MOL_PROPERTY
W
SciTegic.value.DoubleValue
-1.981

@<SCITEGIC>MOL_PROPERTY
W(PB)
SciTegic.value.DoubleValue
-3.712

@<SCITEGIC>MOL_PROPERTY
W(SA)
SciTegic.value.DoubleValue
1.732

@<SCITEGIC>MOL_PROPERTY
Valence
SciTegic.value.DoubleValue
14.705

@<SCITEGIC>MOL_PROPERTY
Coulomb
SciTegic.value.DoubleValue
-10.687

@<SCITEGIC>MOL_PROPERTY
VdW
SciTegic.value.DoubleValue
0.490

@<SCITEGIC>MOL_PROPERTY
VdW6
SciTegic.value.DoubleValue
-3.745

@<SCITEGIC>MOL_PROPERTY
VdW12
SciTegic.value.DoubleValue
4.235

@<SCITEGIC>MOL_PROPERTY
Bond
SciTegic.value.DoubleValue
0.068

@<SCITEGIC>MOL_PROPERTY
Angle
SciTegic.value.DoubleValue
3.901

@<SCITEGIC>MOL_PROPERTY
Pdih
SciTegic.value.DoubleValue
10.737

@<SCITEGIC>MOL_PROPERTY
Idih
SciTegic.value.DoubleValue
0.000

@<SCITEGIC>MOL_PROPERTY
Tether
SciTegic.value.DoubleValue
0.000

@<TRIPOS>MOLECULE
guest-4_confgen4.mol2 : confsearch ligand conformer 934
          16          16           1
SMALL
USER_CHARGES
 
@<TRIPOS>ATOM
       1    C1      19.205771   18.515838   20.868797 C.3        1 MOL1        -0.1689
       2    H1      20.144569   18.927774   20.473014 H          1 MOL1         0.0830
       3    H2      18.582946   18.201891   20.020168 H          1 MOL1         0.0830
       4    C2      18.513003   19.566581   21.747285 C.3        1 MOL1        -0.1689
       5    H3      18.591999   20.579157   21.328705 H          1 MOL1         0.0830
       6    H4      17.447175   19.318940   21.848816 H          1 MOL1         0.0830
       7    C3      19.209334   19.441921   23.114816 C.3        1 MOL1        -0.1765
       8    H5      18.534802   19.719194   23.935165 H          1 MOL1         0.0830
       9    H6      20.073840   20.119035   23.145320 H          1 MOL1         0.0830
      10    C4      19.674411   17.975227   23.233941 C.3        1 MOL1         0.1214
      11    H7      19.033233   17.433626   23.944629 H          1 MOL1         0.0787
      12    C5      19.517304   17.354299   21.830517 C.3        1 MOL1        -0.1765
      13    H8      20.411844   16.799328   21.517744 H          1 MOL1         0.0830
      14    H9      18.675185   16.650194   21.842854 H          1 MOL1         0.0830
      15    O1      21.035786   17.923627   23.643680 O.3        1 MOL1        -0.5512
      16    H10     21.078364   18.338903   24.530960 H          1 MOL1         0.3776
@<TRIPOS>BOND
    1     1     2    1
    2     1     3    1
    3     1     4    1
    4     4     5    1
    5     4     6    1
    6     4     7    1
    7     7     8    1
    8     7     9    1
    9     7    10    1
   10    10    11    1
   11     1    12    1
   12    10    12    1
   13    12    13    1
   14    12    14    1
   15    10    15    1
   16    15    16    1
@<TRIPOS>SUBSTRUCTURE
       1 MOL1            1 RESIDUE      1      MOL     
@<SCITEGIC>MOL_PROPERTY
VConf Rank
SciTegic.value.IntegerValue
934

@<SCITEGIC>MOL_PROPERTY
Conf_Id
SciTegic.value.IntegerValue
59

@<SCITEGIC>MOL_PROPERTY
Delta U+W
SciTegic.value.DoubleValue
0.000

@<SCITEGIC>MOL_PROPERTY
U+W
SciTegic.value.DoubleValue
3.010

@<SCITEGIC>MOL_PROPERTY
Grad RMS
SciTegic.value.DoubleValue
0.000000

@<SCITEGIC>MOL_PROPERTY
U
SciTegic.value.DoubleValue
5.843

@<SCITEGIC>MOL_PROPERTY
W
SciTegic.value.DoubleValue
-2.833

@<SCITEGIC>MOL_PROPERTY
W(PB)
SciTegic.value.DoubleValue
-4.568

@<SCITEGIC>MOL_PROPERTY
W(SA)
SciTegic.value.DoubleValue
1.735

@<SCITEGIC>MOL_PROPERTY
Valence
SciTegic.value.DoubleValue
13.789

@<SCITEGIC>MOL_PROPERTY
Coulomb
SciTegic.value.DoubleValue
-8.574

@<SCITEGIC>MOL_PROPERTY
VdW
SciTegic.value.DoubleValue
0.628

@<SCITEGIC>MOL_PROPERTY
VdW6
SciTegic.value.DoubleValue
-3.284

@<SCITEGIC>MOL_PROPERTY
VdW12
SciTegic.value.DoubleValue
3.912

@<SCITEGIC>MOL_PROPERTY
Bond
SciTegic.value.DoubleValue
0.054

@<SCITEGIC>MOL_PROPERTY
Angle
SciTegic.value.DoubleValue
4.034

@<SCITEGIC>MOL_PROPERTY
Pdih
SciTegic.value.DoubleValue
9.702

@<SCITEGIC>MOL_PROPERTY
Idih
SciTegic.value.DoubleValue
0.000

@<SCITEGIC>MOL_PROPERTY
Tether
SciTegic.value.DoubleValue
0.000

@<TRIPOS>MOLECULE
guest-4_confgen4.mol2 : confsearch ligand conformer 935
          16          16           1
SMALL
USER_CHARGES
 
@<TRIPOS>ATOM
       1    C1      19.532842   20.034003   22.473032 C.3        1 MOL1        -0.1689
       2    H1      19.015361   20.945885   22.145246 H          1 MOL1         0.0830
       3    H2      20.256152   20.310814   23.252660 H          1 MOL1         0.0830
       4    C2      20.260822   19.329230   21.320180 C.3        1 MOL1        -0.1689
       5    H3      19.642276   19.372442   20.412869 H          1 MOL1         0.0830
       6    H4      21.233549   19.787538   21.095683 H          1 MOL1         0.0830
       7    C3      20.393303   17.867148   21.784769 C.3        1 MOL1        -0.1765
       8    H5      21.335581   17.738761   22.333143 H          1 MOL1         0.0830
       9    H6      20.404547   17.172170   20.934535 H          1 MOL1         0.0830
      10    C4      19.213634   17.601440   22.742672 C.3        1 MOL1         0.1214
      11    H7      19.596357   17.171702   23.679885 H          1 MOL1         0.0787
      12    C5      18.560230   18.972174   23.018152 C.3        1 MOL1        -0.1765
      13    H8      17.601817   19.050642   22.487051 H          1 MOL1         0.0830
      14    H9      18.365503   19.118455   24.088446 H          1 MOL1         0.0830
      15    O1      18.274674   16.723731   22.132855 O.3        1 MOL1        -0.5512
      16    H10     17.545969   16.599777   22.777180 H          1 MOL1         0.3776
@<TRIPOS>BOND
    1     1     2    1
    2     1     3    1
    3     1     4    1
    4     4     5    1
    5     4     6    1
    6     4     7    1
    7     7     8    1
    8     7     9    1
    9     7    10    1
   10    10    11    1
   11     1    12    1
   12    10    12    1
   13    12    13    1
   14    12    14    1
   15    10    15    1
   16    15    16    1
@<TRIPOS>SUBSTRUCTURE
       1 MOL1            1 RESIDUE      1      MOL     
@<SCITEGIC>MOL_PROPERTY
VConf Rank
SciTegic.value.IntegerValue
935

@<SCITEGIC>MOL_PROPERTY
Conf_Id
SciTegic.value.IntegerValue
33

@<SCITEGIC>MOL_PROPERTY
Delta U+W
SciTegic.value.DoubleValue
0.015

@<SCITEGIC>MOL_PROPERTY
U+W
SciTegic.value.DoubleValue
3.025

@<SCITEGIC>MOL_PROPERTY
Grad RMS
SciTegic.value.DoubleValue
0.000000

@<SCITEGIC>MOL_PROPERTY
U
SciTegic.value.DoubleValue
5.843

@<SCITEGIC>MOL_PROPERTY
W
SciTegic.value.DoubleValue
-2.819

@<SCITEGIC>MOL_PROPERTY
W(PB)
SciTegic.value.DoubleValue
-4.568

@<SCITEGIC>MOL_PROPERTY
W(SA)
SciTegic.value.DoubleValue
1.750

@<SCITEGIC>MOL_PROPERTY
Valence
SciTegic.value.DoubleValue
13.789

@<SCITEGIC>MOL_PROPERTY
Coulomb
SciTegic.value.DoubleValue
-8.574

@<SCITEGIC>MOL_PROPERTY
VdW
SciTegic.value.DoubleValue
0.628

@<SCITEGIC>MOL_PROPERTY
VdW6
SciTegic.value.DoubleValue
-3.284

@<SCITEGIC>MOL_PROPERTY
VdW12
SciTegic.value.DoubleValue
3.913

@<SCITEGIC>MOL_PROPERTY
Bond
SciTegic.value.DoubleValue
0.054

@<SCITEGIC>MOL_PROPERTY
Angle
SciTegic.value.DoubleValue
4.033

@<SCITEGIC>MOL_PROPERTY
Pdih
SciTegic.value.DoubleValue
9.702

@<SCITEGIC>MOL_PROPERTY
Idih
SciTegic.value.DoubleValue
0.000

@<SCITEGIC>MOL_PROPERTY
Tether
SciTegic.value.DoubleValue
0.000

@<TRIPOS>MOLECULE
guest-4_confgen4.mol2 : confsearch ligand conformer 936
          16          16           1
SMALL
USER_CHARGES
 
@<TRIPOS>ATOM
       1    C1      20.297826   18.149859   23.110972 C.3        1 MOL1        -0.1689
       2    H1      19.885113   17.740875   24.043510 H          1 MOL1         0.0830
       3    H2      21.389961   18.038026   23.152575 H          1 MOL1         0.0830
       4    C2      19.883942   19.629836   22.958039 C.3        1 MOL1        -0.1689
       5    H3      19.271818   19.937416   23.817065 H          1 MOL1         0.0830
       6    H4      20.759637   20.292108   22.918618 H          1 MOL1         0.0830
       7    C3      19.059960   19.721564   21.656089 C.3        1 MOL1        -0.1765
       8    H5      19.705655   20.063930   20.836648 H          1 MOL1         0.0830
       9    H6      18.224548   20.429272   21.741195 H          1 MOL1         0.0830
      10    C4      18.584200   18.294479   21.352649 C.3        1 MOL1         0.1214
      11    H7      18.429507   18.140080   20.275053 H          1 MOL1         0.0787
      12    C5      19.709440   17.403077   21.895046 C.3        1 MOL1        -0.1765
      13    H8      19.354109   16.397341   22.156272 H          1 MOL1         0.0830
      14    H9      20.481939   17.294269   21.122369 H          1 MOL1         0.0830
      15    O1      17.391176   18.035034   22.078037 O.3        1 MOL1        -0.5512
      16    H10     17.622922   18.196596   23.015776 H          1 MOL1         0.3776
@<TRIPOS>BOND
    1     1     2    1
    2     1     3    1
    3     1     4    1
    4     4     5    1
    5     4     6    1
    6     4     7    1
    7     7     8    1
    8     7     9    1
    9     7    10    1
   10    10    11    1
   11     1    12    1
   12    10    12    1
   13    12    13    1
   14    12    14    1
   15    10    15    1
   16    15    16    1
@<TRIPOS>SUBSTRUCTURE
       1 MOL1            1 RESIDUE      1      MOL     
@<SCITEGIC>MOL_PROPERTY
VConf Rank
SciTegic.value.IntegerValue
936

@<SCITEGIC>MOL_PROPERTY
Conf_Id
SciTegic.value.IntegerValue
20

@<SCITEGIC>MOL_PROPERTY
Delta U+W
SciTegic.value.DoubleValue
-0.483

@<SCITEGIC>MOL_PROPERTY
U+W
SciTegic.value.DoubleValue
2.527

@<SCITEGIC>MOL_PROPERTY
Grad RMS
SciTegic.value.DoubleValue
0.000000

@<SCITEGIC>MOL_PROPERTY
U
SciTegic.value.DoubleValue
4.508

@<SCITEGIC>MOL_PROPERTY
W
SciTegic.value.DoubleValue
-1.981

@<SCITEGIC>MOL_PROPERTY
W(PB)
SciTegic.value.DoubleValue
-3.712

@<SCITEGIC>MOL_PROPERTY
W(SA)
SciTegic.value.DoubleValue
1.732

@<SCITEGIC>MOL_PROPERTY
Valence
SciTegic.value.DoubleValue
14.705

@<SCITEGIC>MOL_PROPERTY
Coulomb
SciTegic.value.DoubleValue
-10.687

@<SCITEGIC>MOL_PROPERTY
VdW
SciTegic.value.DoubleValue
0.490

@<SCITEGIC>MOL_PROPERTY
VdW6
SciTegic.value.DoubleValue
-3.745

@<SCITEGIC>MOL_PROPERTY
VdW12
SciTegic.value.DoubleValue
4.235

@<SCITEGIC>MOL_PROPERTY
Bond
SciTegic.value.DoubleValue
0.068

@<SCITEGIC>MOL_PROPERTY
Angle
SciTegic.value.DoubleValue
3.901

@<SCITEGIC>MOL_PROPERTY
Pdih
SciTegic.value.DoubleValue
10.737

@<SCITEGIC>MOL_PROPERTY
Idih
SciTegic.value.DoubleValue
0.000

@<SCITEGIC>MOL_PROPERTY
Tether
SciTegic.value.DoubleValue
0.000

@<TRIPOS>MOLECULE
guest-4_confgen4.mol2 : confsearch ligand conformer 937
          16          16           1
SMALL
USER_CHARGES
 
@<TRIPOS>ATOM
       1    C1      19.957285   18.200481   23.590727 C.3        1 MOL1        -0.1689
       2    H1      19.107731   17.982181   24.252755 H          1 MOL1         0.0830
       3    H2      20.885000   18.007593   24.146408 H          1 MOL1         0.0830
       4    C2      19.862512   19.649305   23.093079 C.3        1 MOL1        -0.1689
       5    H3      19.523271   20.339370   23.877608 H          1 MOL1         0.0830
       6    H4      20.848538   19.985136   22.742941 H          1 MOL1         0.0830
       7    C3      18.883103   19.583641   21.906907 C.3        1 MOL1        -0.1765
       8    H5      19.098003   20.364108   21.165602 H          1 MOL1         0.0830
       9    H6      17.858836   19.738430   22.272559 H          1 MOL1         0.0830
      10    C4      19.027118   18.171324   21.301681 C.3        1 MOL1         0.1214
      11    H7      19.572816   18.224267   20.348303 H          1 MOL1         0.0787
      12    C5      19.848718   17.346598   22.313923 C.3        1 MOL1        -0.1765
      13    H8      19.395378   16.367713   22.519569 H          1 MOL1         0.0830
      14    H9      20.850978   17.170264   21.902265 H          1 MOL1         0.0830
      15    O1      17.744889   17.583720   21.115943 O.3        1 MOL1        -0.5512
      16    H10     17.265389   18.151406   20.476142 H          1 MOL1         0.3776
@<TRIPOS>BOND
    1     1     2    1
    2     1     3    1
    3     1     4    1
    4     4     5    1
    5     4     6    1
    6     4     7    1
    7     7     8    1
    8     7     9    1
    9     7    10    1
   10    10    11    1
   11     1    12    1
   12    10    12    1
   13    12    13    1
   14    12    14    1
   15    10    15    1
   16    15    16    1
@<TRIPOS>SUBSTRUCTURE
       1 MOL1            1 RESIDUE      1      MOL     
@<SCITEGIC>MOL_PROPERTY
VConf Rank
SciTegic.value.IntegerValue
937

@<SCITEGIC>MOL_PROPERTY
Conf_Id
SciTegic.value.IntegerValue
59

@<SCITEGIC>MOL_PROPERTY
Delta U+W
SciTegic.value.DoubleValue
0.000

@<SCITEGIC>MOL_PROPERTY
U+W
SciTegic.value.DoubleValue
3.010

@<SCITEGIC>MOL_PROPERTY
Grad RMS
SciTegic.value.DoubleValue
0.000000

@<SCITEGIC>MOL_PROPERTY
U
SciTegic.value.DoubleValue
5.843

@<SCITEGIC>MOL_PROPERTY
W
SciTegic.value.DoubleValue
-2.833

@<SCITEGIC>MOL_PROPERTY
W(PB)
SciTegic.value.DoubleValue
-4.568

@<SCITEGIC>MOL_PROPERTY
W(SA)
SciTegic.value.DoubleValue
1.735

@<SCITEGIC>MOL_PROPERTY
Valence
SciTegic.value.DoubleValue
13.789

@<SCITEGIC>MOL_PROPERTY
Coulomb
SciTegic.value.DoubleValue
-8.574

@<SCITEGIC>MOL_PROPERTY
VdW
SciTegic.value.DoubleValue
0.628

@<SCITEGIC>MOL_PROPERTY
VdW6
SciTegic.value.DoubleValue
-3.284

@<SCITEGIC>MOL_PROPERTY
VdW12
SciTegic.value.DoubleValue
3.912

@<SCITEGIC>MOL_PROPERTY
Bond
SciTegic.value.DoubleValue
0.054

@<SCITEGIC>MOL_PROPERTY
Angle
SciTegic.value.DoubleValue
4.034

@<SCITEGIC>MOL_PROPERTY
Pdih
SciTegic.value.DoubleValue
9.702

@<SCITEGIC>MOL_PROPERTY
Idih
SciTegic.value.DoubleValue
0.000

@<SCITEGIC>MOL_PROPERTY
Tether
SciTegic.value.DoubleValue
0.000

@<TRIPOS>MOLECULE
guest-4_confgen4.mol2 : confsearch ligand conformer 938
          16          16           1
SMALL
USER_CHARGES
 
@<TRIPOS>ATOM
       1    C1      19.433227   20.004138   21.941921 C.3        1 MOL1        -0.1689
       2    H1      18.714272   20.776139   21.635528 H          1 MOL1         0.0830
       3    H2      20.400009   20.490905   22.131687 H          1 MOL1         0.0830
       4    C2      19.605447   18.911335   20.878037 C.3        1 MOL1        -0.1689
       5    H3      18.629723   18.675957   20.430555 H          1 MOL1         0.0830
       6    H4      20.289284   19.213397   20.073196 H          1 MOL1         0.0830
       7    C3      20.121988   17.689880   21.660539 C.3        1 MOL1        -0.1765
       8    H5      21.219336   17.705886   21.686148 H          1 MOL1         0.0830
       9    H6      19.812818   16.747427   21.189141 H          1 MOL1         0.0830
      10    C4      19.583188   17.829298   23.099308 C.3        1 MOL1         0.1214
      11    H7      20.415382   17.724546   23.810644 H          1 MOL1         0.0787
      12    C5      18.976396   19.244647   23.200924 C.3        1 MOL1        -0.1765
      13    H8      17.879364   19.188518   23.213270 H          1 MOL1         0.0830
      14    H9      19.298078   19.756675   24.117000 H          1 MOL1         0.0830
      15    O1      18.583424   16.847707   23.345983 O.3        1 MOL1        -0.5512
      16    H10     18.270681   16.989456   24.264475 H          1 MOL1         0.3776
@<TRIPOS>BOND
    1     1     2    1
    2     1     3    1
    3     1     4    1
    4     4     5    1
    5     4     6    1
    6     4     7    1
    7     7     8    1
    8     7     9    1
    9     7    10    1
   10    10    11    1
   11     1    12    1
   12    10    12    1
   13    12    13    1
   14    12    14    1
   15    10    15    1
   16    15    16    1
@<TRIPOS>SUBSTRUCTURE
       1 MOL1            1 RESIDUE      1      MOL     
@<SCITEGIC>MOL_PROPERTY
VConf Rank
SciTegic.value.IntegerValue
938

@<SCITEGIC>MOL_PROPERTY
Conf_Id
SciTegic.value.IntegerValue
33

@<SCITEGIC>MOL_PROPERTY
Delta U+W
SciTegic.value.DoubleValue
0.015

@<SCITEGIC>MOL_PROPERTY
U+W
SciTegic.value.DoubleValue
3.025

@<SCITEGIC>MOL_PROPERTY
Grad RMS
SciTegic.value.DoubleValue
0.000000

@<SCITEGIC>MOL_PROPERTY
U
SciTegic.value.DoubleValue
5.843

@<SCITEGIC>MOL_PROPERTY
W
SciTegic.value.DoubleValue
-2.819

@<SCITEGIC>MOL_PROPERTY
W(PB)
SciTegic.value.DoubleValue
-4.568

@<SCITEGIC>MOL_PROPERTY
W(SA)
SciTegic.value.DoubleValue
1.750

@<SCITEGIC>MOL_PROPERTY
Valence
SciTegic.value.DoubleValue
13.789

@<SCITEGIC>MOL_PROPERTY
Coulomb
SciTegic.value.DoubleValue
-8.574

@<SCITEGIC>MOL_PROPERTY
VdW
SciTegic.value.DoubleValue
0.628

@<SCITEGIC>MOL_PROPERTY
VdW6
SciTegic.value.DoubleValue
-3.284

@<SCITEGIC>MOL_PROPERTY
VdW12
SciTegic.value.DoubleValue
3.913

@<SCITEGIC>MOL_PROPERTY
Bond
SciTegic.value.DoubleValue
0.054

@<SCITEGIC>MOL_PROPERTY
Angle
SciTegic.value.DoubleValue
4.033

@<SCITEGIC>MOL_PROPERTY
Pdih
SciTegic.value.DoubleValue
9.702

@<SCITEGIC>MOL_PROPERTY
Idih
SciTegic.value.DoubleValue
0.000

@<SCITEGIC>MOL_PROPERTY
Tether
SciTegic.value.DoubleValue
0.000

@<TRIPOS>MOLECULE
guest-4_confgen4.mol2 : confsearch ligand conformer 939
          16          16           1
SMALL
USER_CHARGES
 
@<TRIPOS>ATOM
       1    C1      20.038391   18.336215   23.386862 C.3        1 MOL1        -0.1689
       2    H1      19.578826   17.548424   23.999570 H          1 MOL1         0.0830
       3    H2      20.952531   18.666226   23.899148 H          1 MOL1         0.0830
       4    C2      19.042536   19.501010   23.195691 C.3        1 MOL1        -0.1689
       5    H3      18.101403   19.277422   23.716751 H          1 MOL1         0.0830
       6    H4      19.436189   20.440581   23.607084 H          1 MOL1         0.0830
       7    C3      18.795575   19.620852   21.676782 C.3        1 MOL1        -0.1765
       8    H5      19.434292   20.412112   21.262573 H          1 MOL1         0.0830
       9    H6      17.753335   19.876353   21.443414 H          1 MOL1         0.0830
      10    C4      19.213721   18.274507   21.070563 C.3        1 MOL1         0.1214
      11    H7      19.543297   18.385356   20.027455 H          1 MOL1         0.0787
      12    C5      20.356753   17.796741   21.976198 C.3        1 MOL1        -0.1765
      13    H8      20.468519   16.704333   21.963724 H          1 MOL1         0.0830
      14    H9      21.299512   18.233123   21.620675 H          1 MOL1         0.0830
      15    O1      18.129550   17.362123   21.165099 O.3        1 MOL1        -0.5512
      16    H10     17.907322   17.328386   22.118325 H          1 MOL1         0.3776
@<TRIPOS>BOND
    1     1     2    1
    2     1     3    1
    3     1     4    1
    4     4     5    1
    5     4     6    1
    6     4     7    1
    7     7     8    1
    8     7     9    1
    9     7    10    1
   10    10    11    1
   11     1    12    1
   12    10    12    1
   13    12    13    1
   14    12    14    1
   15    10    15    1
   16    15    16    1
@<TRIPOS>SUBSTRUCTURE
       1 MOL1            1 RESIDUE      1      MOL     
@<SCITEGIC>MOL_PROPERTY
VConf Rank
SciTegic.value.IntegerValue
939

@<SCITEGIC>MOL_PROPERTY
Conf_Id
SciTegic.value.IntegerValue
20

@<SCITEGIC>MOL_PROPERTY
Delta U+W
SciTegic.value.DoubleValue
-0.483

@<SCITEGIC>MOL_PROPERTY
U+W
SciTegic.value.DoubleValue
2.527

@<SCITEGIC>MOL_PROPERTY
Grad RMS
SciTegic.value.DoubleValue
0.000000

@<SCITEGIC>MOL_PROPERTY
U
SciTegic.value.DoubleValue
4.508

@<SCITEGIC>MOL_PROPERTY
W
SciTegic.value.DoubleValue
-1.981

@<SCITEGIC>MOL_PROPERTY
W(PB)
SciTegic.value.DoubleValue
-3.712

@<SCITEGIC>MOL_PROPERTY
W(SA)
SciTegic.value.DoubleValue
1.732

@<SCITEGIC>MOL_PROPERTY
Valence
SciTegic.value.DoubleValue
14.705

@<SCITEGIC>MOL_PROPERTY
Coulomb
SciTegic.value.DoubleValue
-10.687

@<SCITEGIC>MOL_PROPERTY
VdW
SciTegic.value.DoubleValue
0.490

@<SCITEGIC>MOL_PROPERTY
VdW6
SciTegic.value.DoubleValue
-3.745

@<SCITEGIC>MOL_PROPERTY
VdW12
SciTegic.value.DoubleValue
4.235

@<SCITEGIC>MOL_PROPERTY
Bond
SciTegic.value.DoubleValue
0.068

@<SCITEGIC>MOL_PROPERTY
Angle
SciTegic.value.DoubleValue
3.901

@<SCITEGIC>MOL_PROPERTY
Pdih
SciTegic.value.DoubleValue
10.737

@<SCITEGIC>MOL_PROPERTY
Idih
SciTegic.value.DoubleValue
0.000

@<SCITEGIC>MOL_PROPERTY
Tether
SciTegic.value.DoubleValue
0.000

@<TRIPOS>MOLECULE
guest-4_confgen4.mol2 : confsearch ligand conformer 940
          16          16           1
SMALL
USER_CHARGES
 
@<TRIPOS>ATOM
       1    C1      19.214296   17.162756   21.917653 C.3        1 MOL1        -0.1689
       2    H1      18.308659   16.812642   22.432356 H          1 MOL1         0.0830
       3    H2      19.589706   16.345183   21.287348 H          1 MOL1         0.0830
       4    C2      20.247772   17.626434   22.953345 C.3        1 MOL1        -0.1689
       5    H3      20.276610   16.973496   23.836295 H          1 MOL1         0.0830
       6    H4      21.248382   17.634439   22.499098 H          1 MOL1         0.0830
       7    C3      19.822331   19.064547   23.301752 C.3        1 MOL1        -0.1765
       8    H5      20.684005   19.677679   23.595747 H          1 MOL1         0.0830
       9    H6      19.120807   19.041191   24.146798 H          1 MOL1         0.0830
      10    C4      19.126945   19.628920   22.044930 C.3        1 MOL1         0.1214
      11    H7      19.783770   20.356391   21.546046 H          1 MOL1         0.0787
      12    C5      18.888365   18.429311   21.104795 C.3        1 MOL1        -0.1765
      13    H8      17.863067   18.404944   20.712124 H          1 MOL1         0.0830
      14    H9      19.571747   18.503842   20.248924 H          1 MOL1         0.0830
      15    O1      17.886711   20.229729   22.398111 O.3        1 MOL1        -0.5512
      16    H10     18.096393   20.974030   23.001089 H          1 MOL1         0.3776
@<TRIPOS>BOND
    1     1     2    1
    2     1     3    1
    3     1     4    1
    4     4     5    1
    5     4     6    1
    6     4     7    1
    7     7     8    1
    8     7     9    1
    9     7    10    1
   10    10    11    1
   11     1    12    1
   12    10    12    1
   13    12    13    1
   14    12    14    1
   15    10    15    1
   16    15    16    1
@<TRIPOS>SUBSTRUCTURE
       1 MOL1            1 RESIDUE      1      MOL     
@<SCITEGIC>MOL_PROPERTY
VConf Rank
SciTegic.value.IntegerValue
940

@<SCITEGIC>MOL_PROPERTY
Conf_Id
SciTegic.value.IntegerValue
59

@<SCITEGIC>MOL_PROPERTY
Delta U+W
SciTegic.value.DoubleValue
0.000

@<SCITEGIC>MOL_PROPERTY
U+W
SciTegic.value.DoubleValue
3.010

@<SCITEGIC>MOL_PROPERTY
Grad RMS
SciTegic.value.DoubleValue
0.000000

@<SCITEGIC>MOL_PROPERTY
U
SciTegic.value.DoubleValue
5.843

@<SCITEGIC>MOL_PROPERTY
W
SciTegic.value.DoubleValue
-2.833

@<SCITEGIC>MOL_PROPERTY
W(PB)
SciTegic.value.DoubleValue
-4.568

@<SCITEGIC>MOL_PROPERTY
W(SA)
SciTegic.value.DoubleValue
1.735

@<SCITEGIC>MOL_PROPERTY
Valence
SciTegic.value.DoubleValue
13.789

@<SCITEGIC>MOL_PROPERTY
Coulomb
SciTegic.value.DoubleValue
-8.574

@<SCITEGIC>MOL_PROPERTY
VdW
SciTegic.value.DoubleValue
0.628

@<SCITEGIC>MOL_PROPERTY
VdW6
SciTegic.value.DoubleValue
-3.284

@<SCITEGIC>MOL_PROPERTY
VdW12
SciTegic.value.DoubleValue
3.912

@<SCITEGIC>MOL_PROPERTY
Bond
SciTegic.value.DoubleValue
0.054

@<SCITEGIC>MOL_PROPERTY
Angle
SciTegic.value.DoubleValue
4.034

@<SCITEGIC>MOL_PROPERTY
Pdih
SciTegic.value.DoubleValue
9.702

@<SCITEGIC>MOL_PROPERTY
Idih
SciTegic.value.DoubleValue
0.000

@<SCITEGIC>MOL_PROPERTY
Tether
SciTegic.value.DoubleValue
0.000

@<TRIPOS>MOLECULE
guest-4_confgen4.mol2 : confsearch ligand conformer 941
          16          16           1
SMALL
USER_CHARGES
 
@<TRIPOS>ATOM
       1    C1      18.725564   19.058891   21.137713 C.3        1 MOL1        -0.1689
       2    H1      18.895683   19.250479   20.069484 H          1 MOL1         0.0830
       3    H2      17.647189   19.138616   21.333600 H          1 MOL1         0.0830
       4    C2      19.487585   20.042779   22.036054 C.3        1 MOL1        -0.1689
       5    H3      20.484501   20.230884   21.613615 H          1 MOL1         0.0830
       6    H4      18.969421   21.006044   22.137397 H          1 MOL1         0.0830
       7    C3      19.628083   19.306699   23.381238 C.3        1 MOL1        -0.1765
       8    H5      18.765666   19.538252   24.019756 H          1 MOL1         0.0830
       9    H6      20.534189   19.616398   23.918898 H          1 MOL1         0.0830
      10    C4      19.625014   17.797979   23.059444 C.3        1 MOL1         0.1214
      11    H7      18.878272   17.293553   23.689880 H          1 MOL1         0.0787
      12    C5      19.232756   17.671596   21.572199 C.3        1 MOL1        -0.1765
      13    H8      20.109775   17.400117   20.968942 H          1 MOL1         0.0830
      14    H9      18.467483   16.899356   21.421041 H          1 MOL1         0.0830
      15    O1      20.919338   17.247972   23.274190 O.3        1 MOL1        -0.5512
      16    H10     20.862096   16.296298   23.044908 H          1 MOL1         0.3776
@<TRIPOS>BOND
    1     1     2    1
    2     1     3    1
    3     1     4    1
    4     4     5    1
    5     4     6    1
    6     4     7    1
    7     7     8    1
    8     7     9    1
    9     7    10    1
   10    10    11    1
   11     1    12    1
   12    10    12    1
   13    12    13    1
   14    12    14    1
   15    10    15    1
   16    15    16    1
@<TRIPOS>SUBSTRUCTURE
       1 MOL1            1 RESIDUE      1      MOL     
@<SCITEGIC>MOL_PROPERTY
VConf Rank
SciTegic.value.IntegerValue
941

@<SCITEGIC>MOL_PROPERTY
Conf_Id
SciTegic.value.IntegerValue
33

@<SCITEGIC>MOL_PROPERTY
Delta U+W
SciTegic.value.DoubleValue
0.015

@<SCITEGIC>MOL_PROPERTY
U+W
SciTegic.value.DoubleValue
3.025

@<SCITEGIC>MOL_PROPERTY
Grad RMS
SciTegic.value.DoubleValue
0.000000

@<SCITEGIC>MOL_PROPERTY
U
SciTegic.value.DoubleValue
5.843

@<SCITEGIC>MOL_PROPERTY
W
SciTegic.value.DoubleValue
-2.819

@<SCITEGIC>MOL_PROPERTY
W(PB)
SciTegic.value.DoubleValue
-4.568

@<SCITEGIC>MOL_PROPERTY
W(SA)
SciTegic.value.DoubleValue
1.750

@<SCITEGIC>MOL_PROPERTY
Valence
SciTegic.value.DoubleValue
13.789

@<SCITEGIC>MOL_PROPERTY
Coulomb
SciTegic.value.DoubleValue
-8.574

@<SCITEGIC>MOL_PROPERTY
VdW
SciTegic.value.DoubleValue
0.628

@<SCITEGIC>MOL_PROPERTY
VdW6
SciTegic.value.DoubleValue
-3.284

@<SCITEGIC>MOL_PROPERTY
VdW12
SciTegic.value.DoubleValue
3.913

@<SCITEGIC>MOL_PROPERTY
Bond
SciTegic.value.DoubleValue
0.054

@<SCITEGIC>MOL_PROPERTY
Angle
SciTegic.value.DoubleValue
4.033

@<SCITEGIC>MOL_PROPERTY
Pdih
SciTegic.value.DoubleValue
9.702

@<SCITEGIC>MOL_PROPERTY
Idih
SciTegic.value.DoubleValue
0.000

@<SCITEGIC>MOL_PROPERTY
Tether
SciTegic.value.DoubleValue
0.000

@<TRIPOS>MOLECULE
guest-4_confgen4.mol2 : confsearch ligand conformer 942
          16          16           1
SMALL
USER_CHARGES
 
@<TRIPOS>ATOM
       1    C1      18.802982   17.929916   23.253711 C.3        1 MOL1        -0.1689
       2    H1      18.016033   18.483626   23.784130 H          1 MOL1         0.0830
       3    H2      18.873579   16.932618   23.709135 H          1 MOL1         0.0830
       4    C2      20.140867   18.695055   23.351925 C.3        1 MOL1        -0.1689
       5    H3      20.001659   19.618522   23.930765 H          1 MOL1         0.0830
       6    H4      20.911634   18.097586   23.857840 H          1 MOL1         0.0830
       7    C3      20.560222   19.030897   21.904933 C.3        1 MOL1        -0.1765
       8    H5      21.284920   18.285928   21.550736 H          1 MOL1         0.0830
       9    H6      21.032164   20.019443   21.827137 H          1 MOL1         0.0830
      10    C4      19.284817   18.927398   21.057807 C.3        1 MOL1         0.1214
      11    H7      19.512151   18.664200   20.014721 H          1 MOL1         0.0787
      12    C5      18.464750   17.831062   21.750985 C.3        1 MOL1        -0.1765
      13    H8      17.388256   17.932648   21.559038 H          1 MOL1         0.0830
      14    H9      18.781647   16.852323   21.367230 H          1 MOL1         0.0830
      15    O1      18.576152   20.156122   21.127373 O.3        1 MOL1        -0.5512
      16    H10     18.419921   20.306419   22.082447 H          1 MOL1         0.3776
@<TRIPOS>BOND
    1     1     2    1
    2     1     3    1
    3     1     4    1
    4     4     5    1
    5     4     6    1
    6     4     7    1
    7     7     8    1
    8     7     9    1
    9     7    10    1
   10    10    11    1
   11     1    12    1
   12    10    12    1
   13    12    13    1
   14    12    14    1
   15    10    15    1
   16    15    16    1
@<TRIPOS>SUBSTRUCTURE
       1 MOL1            1 RESIDUE      1      MOL     
@<SCITEGIC>MOL_PROPERTY
VConf Rank
SciTegic.value.IntegerValue
942

@<SCITEGIC>MOL_PROPERTY
Conf_Id
SciTegic.value.IntegerValue
20

@<SCITEGIC>MOL_PROPERTY
Delta U+W
SciTegic.value.DoubleValue
-0.483

@<SCITEGIC>MOL_PROPERTY
U+W
SciTegic.value.DoubleValue
2.527

@<SCITEGIC>MOL_PROPERTY
Grad RMS
SciTegic.value.DoubleValue
0.000000

@<SCITEGIC>MOL_PROPERTY
U
SciTegic.value.DoubleValue
4.508

@<SCITEGIC>MOL_PROPERTY
W
SciTegic.value.DoubleValue
-1.981

@<SCITEGIC>MOL_PROPERTY
W(PB)
SciTegic.value.DoubleValue
-3.712

@<SCITEGIC>MOL_PROPERTY
W(SA)
SciTegic.value.DoubleValue
1.732

@<SCITEGIC>MOL_PROPERTY
Valence
SciTegic.value.DoubleValue
14.705

@<SCITEGIC>MOL_PROPERTY
Coulomb
SciTegic.value.DoubleValue
-10.687

@<SCITEGIC>MOL_PROPERTY
VdW
SciTegic.value.DoubleValue
0.490

@<SCITEGIC>MOL_PROPERTY
VdW6
SciTegic.value.DoubleValue
-3.745

@<SCITEGIC>MOL_PROPERTY
VdW12
SciTegic.value.DoubleValue
4.235

@<SCITEGIC>MOL_PROPERTY
Bond
SciTegic.value.DoubleValue
0.068

@<SCITEGIC>MOL_PROPERTY
Angle
SciTegic.value.DoubleValue
3.901

@<SCITEGIC>MOL_PROPERTY
Pdih
SciTegic.value.DoubleValue
10.737

@<SCITEGIC>MOL_PROPERTY
Idih
SciTegic.value.DoubleValue
0.000

@<SCITEGIC>MOL_PROPERTY
Tether
SciTegic.value.DoubleValue
0.000

@<TRIPOS>MOLECULE
guest-4_confgen4.mol2 : confsearch ligand conformer 943
          16          16           1
SMALL
USER_CHARGES
 
@<TRIPOS>ATOM
       1    C1      19.617082   19.882966   21.784295 C.3        1 MOL1        -0.1689
       2    H1      18.691027   20.167620   21.265574 H          1 MOL1         0.0830
       3    H2      20.314435   20.730160   21.733266 H          1 MOL1         0.0830
       4    C2      20.192900   18.610592   21.147720 C.3        1 MOL1        -0.1689
       5    H3      20.096314   18.610164   20.053448 H          1 MOL1         0.0830
       6    H4      21.259105   18.521697   21.398578 H          1 MOL1         0.0830
       7    C3      19.405451   17.462843   21.805864 C.3        1 MOL1        -0.1765
       8    H5      20.004327   16.544508   21.859284 H          1 MOL1         0.0830
       9    H6      18.509636   17.247162   21.207715 H          1 MOL1         0.0830
      10    C4      19.003590   17.960507   23.210328 C.3        1 MOL1         0.1214
      11    H7      19.616394   17.462373   23.975738 H          1 MOL1         0.0787
      12    C5      19.292139   19.475777   23.233343 C.3        1 MOL1        -0.1765
      13    H8      18.450355   20.054303   23.636737 H          1 MOL1         0.0830
      14    H9      20.163818   19.664478   23.873381 H          1 MOL1         0.0830
      15    O1      17.619988   17.721013   23.438749 O.3        1 MOL1        -0.5512
      16    H10     17.493007   16.749372   23.402392 H          1 MOL1         0.3776
@<TRIPOS>BOND
    1     1     2    1
    2     1     3    1
    3     1     4    1
    4     4     5    1
    5     4     6    1
    6     4     7    1
    7     7     8    1
    8     7     9    1
    9     7    10    1
   10    10    11    1
   11     1    12    1
   12    10    12    1
   13    12    13    1
   14    12    14    1
   15    10    15    1
   16    15    16    1
@<TRIPOS>SUBSTRUCTURE
       1 MOL1            1 RESIDUE      1      MOL     
@<SCITEGIC>MOL_PROPERTY
VConf Rank
SciTegic.value.IntegerValue
943

@<SCITEGIC>MOL_PROPERTY
Conf_Id
SciTegic.value.IntegerValue
59

@<SCITEGIC>MOL_PROPERTY
Delta U+W
SciTegic.value.DoubleValue
0.000

@<SCITEGIC>MOL_PROPERTY
U+W
SciTegic.value.DoubleValue
3.010

@<SCITEGIC>MOL_PROPERTY
Grad RMS
SciTegic.value.DoubleValue
0.000000

@<SCITEGIC>MOL_PROPERTY
U
SciTegic.value.DoubleValue
5.843

@<SCITEGIC>MOL_PROPERTY
W
SciTegic.value.DoubleValue
-2.833

@<SCITEGIC>MOL_PROPERTY
W(PB)
SciTegic.value.DoubleValue
-4.568

@<SCITEGIC>MOL_PROPERTY
W(SA)
SciTegic.value.DoubleValue
1.735

@<SCITEGIC>MOL_PROPERTY
Valence
SciTegic.value.DoubleValue
13.789

@<SCITEGIC>MOL_PROPERTY
Coulomb
SciTegic.value.DoubleValue
-8.574

@<SCITEGIC>MOL_PROPERTY
VdW
SciTegic.value.DoubleValue
0.628

@<SCITEGIC>MOL_PROPERTY
VdW6
SciTegic.value.DoubleValue
-3.284

@<SCITEGIC>MOL_PROPERTY
VdW12
SciTegic.value.DoubleValue
3.912

@<SCITEGIC>MOL_PROPERTY
Bond
SciTegic.value.DoubleValue
0.054

@<SCITEGIC>MOL_PROPERTY
Angle
SciTegic.value.DoubleValue
4.034

@<SCITEGIC>MOL_PROPERTY
Pdih
SciTegic.value.DoubleValue
9.702

@<SCITEGIC>MOL_PROPERTY
Idih
SciTegic.value.DoubleValue
0.000

@<SCITEGIC>MOL_PROPERTY
Tether
SciTegic.value.DoubleValue
0.000

@<TRIPOS>MOLECULE
guest-4_confgen4.mol2 : confsearch ligand conformer 944
          16          16           1
SMALL
USER_CHARGES
 
@<TRIPOS>ATOM
       1    C1      19.033693   19.973294   22.474290 C.3        1 MOL1        -0.1689
       2    H1      19.381462   20.989391   22.243284 H          1 MOL1         0.0830
       3    H2      18.009575   20.041614   22.866891 H          1 MOL1         0.0830
       4    C2      19.932989   19.266906   23.498013 C.3        1 MOL1        -0.1689
       5    H3      20.985371   19.506080   23.290729 H          1 MOL1         0.0830
       6    H4      19.708907   19.566720   24.530748 H          1 MOL1         0.0830
       7    C3      19.687827   17.766197   23.255435 C.3        1 MOL1        -0.1765
       8    H5      18.858653   17.421549   23.886920 H          1 MOL1         0.0830
       9    H6      20.571970   17.165983   23.508522 H          1 MOL1         0.0830
      10    C4      19.285668   17.620197   21.773291 C.3        1 MOL1         0.1214
      11    H7      18.353298   17.040914   21.705199 H          1 MOL1         0.0787
      12    C5      19.058566   19.051092   21.241596 C.3        1 MOL1        -0.1765
      13    H8      19.885678   19.347997   20.582418 H          1 MOL1         0.0830
      14    H9      18.126338   19.124660   20.666806 H          1 MOL1         0.0830
      15    O1      20.327781   16.984628   21.042572 O.3        1 MOL1        -0.5512
      16    H10     20.024839   16.928691   20.111644 H          1 MOL1         0.3776
@<TRIPOS>BOND
    1     1     2    1
    2     1     3    1
    3     1     4    1
    4     4     5    1
    5     4     6    1
    6     4     7    1
    7     7     8    1
    8     7     9    1
    9     7    10    1
   10    10    11    1
   11     1    12    1
   12    10    12    1
   13    12    13    1
   14    12    14    1
   15    10    15    1
   16    15    16    1
@<TRIPOS>SUBSTRUCTURE
       1 MOL1            1 RESIDUE      1      MOL     
@<SCITEGIC>MOL_PROPERTY
VConf Rank
SciTegic.value.IntegerValue
944

@<SCITEGIC>MOL_PROPERTY
Conf_Id
SciTegic.value.IntegerValue
33

@<SCITEGIC>MOL_PROPERTY
Delta U+W
SciTegic.value.DoubleValue
0.015

@<SCITEGIC>MOL_PROPERTY
U+W
SciTegic.value.DoubleValue
3.025

@<SCITEGIC>MOL_PROPERTY
Grad RMS
SciTegic.value.DoubleValue
0.000000

@<SCITEGIC>MOL_PROPERTY
U
SciTegic.value.DoubleValue
5.843

@<SCITEGIC>MOL_PROPERTY
W
SciTegic.value.DoubleValue
-2.819

@<SCITEGIC>MOL_PROPERTY
W(PB)
SciTegic.value.DoubleValue
-4.568

@<SCITEGIC>MOL_PROPERTY
W(SA)
SciTegic.value.DoubleValue
1.750

@<SCITEGIC>MOL_PROPERTY
Valence
SciTegic.value.DoubleValue
13.789

@<SCITEGIC>MOL_PROPERTY
Coulomb
SciTegic.value.DoubleValue
-8.574

@<SCITEGIC>MOL_PROPERTY
VdW
SciTegic.value.DoubleValue
0.628

@<SCITEGIC>MOL_PROPERTY
VdW6
SciTegic.value.DoubleValue
-3.284

@<SCITEGIC>MOL_PROPERTY
VdW12
SciTegic.value.DoubleValue
3.913

@<SCITEGIC>MOL_PROPERTY
Bond
SciTegic.value.DoubleValue
0.054

@<SCITEGIC>MOL_PROPERTY
Angle
SciTegic.value.DoubleValue
4.033

@<SCITEGIC>MOL_PROPERTY
Pdih
SciTegic.value.DoubleValue
9.702

@<SCITEGIC>MOL_PROPERTY
Idih
SciTegic.value.DoubleValue
0.000

@<SCITEGIC>MOL_PROPERTY
Tether
SciTegic.value.DoubleValue
0.000

@<TRIPOS>MOLECULE
guest-4_confgen4.mol2 : confsearch ligand conformer 945
          16          16           1
SMALL
USER_CHARGES
 
@<TRIPOS>ATOM
       1    C1      20.604267   18.648293   22.787598 C.3        1 MOL1        -0.1689
       2    H1      21.250012   17.809386   22.493531 H          1 MOL1         0.0830
       3    H2      21.190290   19.305659   23.444442 H          1 MOL1         0.0830
       4    C2      19.341283   18.114838   23.498454 C.3        1 MOL1        -0.1689
       5    H3      19.376281   17.017838   23.549364 H          1 MOL1         0.0830
       6    H4      19.266101   18.493981   24.526850 H          1 MOL1         0.0830
       7    C3      18.135623   18.570991   22.649487 C.3        1 MOL1        -0.1765
       8    H5      17.705646   19.483390   23.083385 H          1 MOL1         0.0830
       9    H6      17.342133   17.812712   22.612161 H          1 MOL1         0.0830
      10    C4      18.694473   18.896506   21.257826 C.3        1 MOL1         0.1214
      11    H7      18.085146   19.654032   20.744154 H          1 MOL1         0.0787
      12    C5      20.114295   19.407816   21.536435 C.3        1 MOL1        -0.1765
      13    H8      20.782870   19.268395   20.676450 H          1 MOL1         0.0830
      14    H9      20.069707   20.483113   21.754083 H          1 MOL1         0.0830
      15    O1      18.769126   17.702394   20.492758 O.3        1 MOL1        -0.5512
      16    H10     19.324499   17.094418   21.022937 H          1 MOL1         0.3776
@<TRIPOS>BOND
    1     1     2    1
    2     1     3    1
    3     1     4    1
    4     4     5    1
    5     4     6    1
    6     4     7    1
    7     7     8    1
    8     7     9    1
    9     7    10    1
   10    10    11    1
   11     1    12    1
   12    10    12    1
   13    12    13    1
   14    12    14    1
   15    10    15    1
   16    15    16    1
@<TRIPOS>SUBSTRUCTURE
       1 MOL1            1 RESIDUE      1      MOL     
@<SCITEGIC>MOL_PROPERTY
VConf Rank
SciTegic.value.IntegerValue
945

@<SCITEGIC>MOL_PROPERTY
Conf_Id
SciTegic.value.IntegerValue
20

@<SCITEGIC>MOL_PROPERTY
Delta U+W
SciTegic.value.DoubleValue
-0.483

@<SCITEGIC>MOL_PROPERTY
U+W
SciTegic.value.DoubleValue
2.527

@<SCITEGIC>MOL_PROPERTY
Grad RMS
SciTegic.value.DoubleValue
0.000000

@<SCITEGIC>MOL_PROPERTY
U
SciTegic.value.DoubleValue
4.508

@<SCITEGIC>MOL_PROPERTY
W
SciTegic.value.DoubleValue
-1.981

@<SCITEGIC>MOL_PROPERTY
W(PB)
SciTegic.value.DoubleValue
-3.712

@<SCITEGIC>MOL_PROPERTY
W(SA)
SciTegic.value.DoubleValue
1.732

@<SCITEGIC>MOL_PROPERTY
Valence
SciTegic.value.DoubleValue
14.705

@<SCITEGIC>MOL_PROPERTY
Coulomb
SciTegic.value.DoubleValue
-10.687

@<SCITEGIC>MOL_PROPERTY
VdW
SciTegic.value.DoubleValue
0.490

@<SCITEGIC>MOL_PROPERTY
VdW6
SciTegic.value.DoubleValue
-3.745

@<SCITEGIC>MOL_PROPERTY
VdW12
SciTegic.value.DoubleValue
4.235

@<SCITEGIC>MOL_PROPERTY
Bond
SciTegic.value.DoubleValue
0.068

@<SCITEGIC>MOL_PROPERTY
Angle
SciTegic.value.DoubleValue
3.901

@<SCITEGIC>MOL_PROPERTY
Pdih
SciTegic.value.DoubleValue
10.737

@<SCITEGIC>MOL_PROPERTY
Idih
SciTegic.value.DoubleValue
0.000

@<SCITEGIC>MOL_PROPERTY
Tether
SciTegic.value.DoubleValue
0.000

@<TRIPOS>MOLECULE
guest-4_confgen4.mol2 : confsearch ligand conformer 946
          16          16           1
SMALL
USER_CHARGES
 
@<TRIPOS>ATOM
       1    C1      19.644561   17.141984   22.508038 C.3        1 MOL1        -0.1689
       2    H1      20.005664   17.064682   23.543077 H          1 MOL1         0.0830
       3    H2      19.599203   16.130118   22.082934 H          1 MOL1         0.0830
       4    C2      20.567638   18.072491   21.709405 C.3        1 MOL1        -0.1689
       5    H3      21.626692   17.929806   21.963972 H          1 MOL1         0.0830
       6    H4      20.444023   17.882024   20.634200 H          1 MOL1         0.0830
       7    C3      20.069366   19.489376   22.048108 C.3        1 MOL1        -0.1765
       8    H5      20.252758   20.187440   21.221114 H          1 MOL1         0.0830
       9    H6      20.607428   19.862464   22.930197 H          1 MOL1         0.0830
      10    C4      18.562892   19.358469   22.356459 C.3        1 MOL1         0.1214
      11    H7      17.971477   19.767842   21.524497 H          1 MOL1         0.0787
      12    C5      18.276507   17.848563   22.490631 C.3        1 MOL1        -0.1765
      13    H8      17.688870   17.613919   23.388209 H          1 MOL1         0.0830
      14    H9      17.700390   17.514577   21.617921 H          1 MOL1         0.0830
      15    O1      18.250849   20.027019   23.572830 O.3        1 MOL1        -0.5512
      16    H10     18.461249   20.974762   23.434821 H          1 MOL1         0.3776
@<TRIPOS>BOND
    1     1     2    1
    2     1     3    1
    3     1     4    1
    4     4     5    1
    5     4     6    1
    6     4     7    1
    7     7     8    1
    8     7     9    1
    9     7    10    1
   10    10    11    1
   11     1    12    1
   12    10    12    1
   13    12    13    1
   14    12    14    1
   15    10    15    1
   16    15    16    1
@<TRIPOS>SUBSTRUCTURE
       1 MOL1            1 RESIDUE      1      MOL     
@<SCITEGIC>MOL_PROPERTY
VConf Rank
SciTegic.value.IntegerValue
946

@<SCITEGIC>MOL_PROPERTY
Conf_Id
SciTegic.value.IntegerValue
59

@<SCITEGIC>MOL_PROPERTY
Delta U+W
SciTegic.value.DoubleValue
0.000

@<SCITEGIC>MOL_PROPERTY
U+W
SciTegic.value.DoubleValue
3.010

@<SCITEGIC>MOL_PROPERTY
Grad RMS
SciTegic.value.DoubleValue
0.000000

@<SCITEGIC>MOL_PROPERTY
U
SciTegic.value.DoubleValue
5.843

@<SCITEGIC>MOL_PROPERTY
W
SciTegic.value.DoubleValue
-2.833

@<SCITEGIC>MOL_PROPERTY
W(PB)
SciTegic.value.DoubleValue
-4.568

@<SCITEGIC>MOL_PROPERTY
W(SA)
SciTegic.value.DoubleValue
1.735

@<SCITEGIC>MOL_PROPERTY
Valence
SciTegic.value.DoubleValue
13.789

@<SCITEGIC>MOL_PROPERTY
Coulomb
SciTegic.value.DoubleValue
-8.574

@<SCITEGIC>MOL_PROPERTY
VdW
SciTegic.value.DoubleValue
0.628

@<SCITEGIC>MOL_PROPERTY
VdW6
SciTegic.value.DoubleValue
-3.284

@<SCITEGIC>MOL_PROPERTY
VdW12
SciTegic.value.DoubleValue
3.912

@<SCITEGIC>MOL_PROPERTY
Bond
SciTegic.value.DoubleValue
0.054

@<SCITEGIC>MOL_PROPERTY
Angle
SciTegic.value.DoubleValue
4.034

@<SCITEGIC>MOL_PROPERTY
Pdih
SciTegic.value.DoubleValue
9.702

@<SCITEGIC>MOL_PROPERTY
Idih
SciTegic.value.DoubleValue
0.000

@<SCITEGIC>MOL_PROPERTY
Tether
SciTegic.value.DoubleValue
0.000

@<TRIPOS>MOLECULE
guest-4_confgen4.mol2 : confsearch ligand conformer 947
          16          16           1
SMALL
USER_CHARGES
 
@<TRIPOS>ATOM
       1    C1      18.523312   19.234081   23.193143 C.3        1 MOL1        -0.1689
       2    H1      17.821292   20.078781   23.213351 H          1 MOL1         0.0830
       3    H2      18.374941   18.642086   24.107008 H          1 MOL1         0.0830
       4    C2      19.985662   19.692058   23.106434 C.3        1 MOL1        -0.1689
       5    H3      20.062977   20.550295   22.424429 H          1 MOL1         0.0830
       6    H4      20.390299   19.990947   24.082946 H          1 MOL1         0.0830
       7    C3      20.731817   18.486753   22.505126 C.3        1 MOL1        -0.1765
       8    H5      21.083632   17.831179   23.312301 H          1 MOL1         0.0830
       9    H6      21.609317   18.802697   21.925304 H          1 MOL1         0.0830
      10    C4      19.706711   17.719521   21.644713 C.3        1 MOL1         0.1214
      11    H7      19.715023   16.657528   21.930409 H          1 MOL1         0.0787
      12    C5      18.327947   18.339355   21.955440 C.3        1 MOL1        -0.1765
      13    H8      17.988702   18.955546   21.111637 H          1 MOL1         0.0830
      14    H9      17.569410   17.566532   22.134923 H          1 MOL1         0.0830
      15    O1      20.013466   17.871844   20.263917 O.3        1 MOL1        -0.5512
      16    H10     19.328106   17.376709   19.767277 H          1 MOL1         0.3776
@<TRIPOS>BOND
    1     1     2    1
    2     1     3    1
    3     1     4    1
    4     4     5    1
    5     4     6    1
    6     4     7    1
    7     7     8    1
    8     7     9    1
    9     7    10    1
   10    10    11    1
   11     1    12    1
   12    10    12    1
   13    12    13    1
   14    12    14    1
   15    10    15    1
   16    15    16    1
@<TRIPOS>SUBSTRUCTURE
       1 MOL1            1 RESIDUE      1      MOL     
@<SCITEGIC>MOL_PROPERTY
VConf Rank
SciTegic.value.IntegerValue
947

@<SCITEGIC>MOL_PROPERTY
Conf_Id
SciTegic.value.IntegerValue
33

@<SCITEGIC>MOL_PROPERTY
Delta U+W
SciTegic.value.DoubleValue
0.015

@<SCITEGIC>MOL_PROPERTY
U+W
SciTegic.value.DoubleValue
3.025

@<SCITEGIC>MOL_PROPERTY
Grad RMS
SciTegic.value.DoubleValue
0.000000

@<SCITEGIC>MOL_PROPERTY
U
SciTegic.value.DoubleValue
5.843

@<SCITEGIC>MOL_PROPERTY
W
SciTegic.value.DoubleValue
-2.819

@<SCITEGIC>MOL_PROPERTY
W(PB)
SciTegic.value.DoubleValue
-4.568

@<SCITEGIC>MOL_PROPERTY
W(SA)
SciTegic.value.DoubleValue
1.750

@<SCITEGIC>MOL_PROPERTY
Valence
SciTegic.value.DoubleValue
13.789

@<SCITEGIC>MOL_PROPERTY
Coulomb
SciTegic.value.DoubleValue
-8.574

@<SCITEGIC>MOL_PROPERTY
VdW
SciTegic.value.DoubleValue
0.628

@<SCITEGIC>MOL_PROPERTY
VdW6
SciTegic.value.DoubleValue
-3.284

@<SCITEGIC>MOL_PROPERTY
VdW12
SciTegic.value.DoubleValue
3.913

@<SCITEGIC>MOL_PROPERTY
Bond
SciTegic.value.DoubleValue
0.054

@<SCITEGIC>MOL_PROPERTY
Angle
SciTegic.value.DoubleValue
4.033

@<SCITEGIC>MOL_PROPERTY
Pdih
SciTegic.value.DoubleValue
9.702

@<SCITEGIC>MOL_PROPERTY
Idih
SciTegic.value.DoubleValue
0.000

@<SCITEGIC>MOL_PROPERTY
Tether
SciTegic.value.DoubleValue
0.000

@<TRIPOS>MOLECULE
guest-4_confgen4.mol2 : confsearch ligand conformer 948
          16          16           1
SMALL
USER_CHARGES
 
@<TRIPOS>ATOM
       1    C1      20.565919   18.027244   22.443803 C.3        1 MOL1        -0.1689
       2    H1      20.550748   17.184755   23.148933 H          1 MOL1         0.0830
       3    H2      21.594609   18.132884   22.072810 H          1 MOL1         0.0830
       4    C2      20.082327   19.312430   23.150527 C.3        1 MOL1        -0.1689
       5    H3      19.834123   19.092162   24.197954 H          1 MOL1         0.0830
       6    H4      20.857719   20.090737   23.148326 H          1 MOL1         0.0830
       7    C3      18.822961   19.781844   22.391525 C.3        1 MOL1        -0.1765
       8    H5      19.098440   20.564682   21.672570 H          1 MOL1         0.0830
       9    H6      18.062530   20.199273   23.064951 H          1 MOL1         0.0830
      10    C4      18.309079   18.557379   21.622366 C.3        1 MOL1         0.1214
      11    H7      17.760862   18.850129   20.715316 H          1 MOL1         0.0787
      12    C5      19.581324   17.769002   21.283527 C.3        1 MOL1        -0.1765
      13    H8      19.381254   16.699093   21.137682 H          1 MOL1         0.0830
      14    H9      20.004864   18.160116   20.349040 H          1 MOL1         0.0830
      15    O1      17.489460   17.776542   22.479877 O.3        1 MOL1        -0.5512
      16    H10     18.055532   17.565493   23.250710 H          1 MOL1         0.3776
@<TRIPOS>BOND
    1     1     2    1
    2     1     3    1
    3     1     4    1
    4     4     5    1
    5     4     6    1
    6     4     7    1
    7     7     8    1
    8     7     9    1
    9     7    10    1
   10    10    11    1
   11     1    12    1
   12    10    12    1
   13    12    13    1
   14    12    14    1
   15    10    15    1
   16    15    16    1
@<TRIPOS>SUBSTRUCTURE
       1 MOL1            1 RESIDUE      1      MOL     
@<SCITEGIC>MOL_PROPERTY
VConf Rank
SciTegic.value.IntegerValue
948

@<SCITEGIC>MOL_PROPERTY
Conf_Id
SciTegic.value.IntegerValue
20

@<SCITEGIC>MOL_PROPERTY
Delta U+W
SciTegic.value.DoubleValue
-0.483

@<SCITEGIC>MOL_PROPERTY
U+W
SciTegic.value.DoubleValue
2.527

@<SCITEGIC>MOL_PROPERTY
Grad RMS
SciTegic.value.DoubleValue
0.000000

@<SCITEGIC>MOL_PROPERTY
U
SciTegic.value.DoubleValue
4.508

@<SCITEGIC>MOL_PROPERTY
W
SciTegic.value.DoubleValue
-1.981

@<SCITEGIC>MOL_PROPERTY
W(PB)
SciTegic.value.DoubleValue
-3.712

@<SCITEGIC>MOL_PROPERTY
W(SA)
SciTegic.value.DoubleValue
1.732

@<SCITEGIC>MOL_PROPERTY
Valence
SciTegic.value.DoubleValue
14.705

@<SCITEGIC>MOL_PROPERTY
Coulomb
SciTegic.value.DoubleValue
-10.687

@<SCITEGIC>MOL_PROPERTY
VdW
SciTegic.value.DoubleValue
0.490

@<SCITEGIC>MOL_PROPERTY
VdW6
SciTegic.value.DoubleValue
-3.745

@<SCITEGIC>MOL_PROPERTY
VdW12
SciTegic.value.DoubleValue
4.235

@<SCITEGIC>MOL_PROPERTY
Bond
SciTegic.value.DoubleValue
0.068

@<SCITEGIC>MOL_PROPERTY
Angle
SciTegic.value.DoubleValue
3.901

@<SCITEGIC>MOL_PROPERTY
Pdih
SciTegic.value.DoubleValue
10.737

@<SCITEGIC>MOL_PROPERTY
Idih
SciTegic.value.DoubleValue
0.000

@<SCITEGIC>MOL_PROPERTY
Tether
SciTegic.value.DoubleValue
0.000

@<TRIPOS>MOLECULE
guest-4_confgen4.mol2 : confsearch ligand conformer 949
          16          16           1
SMALL
USER_CHARGES
 
@<TRIPOS>ATOM
       1    C1      19.388622   19.450171   23.458630 C.3        1 MOL1        -0.1689
       2    H1      19.222809   18.802790   24.331030 H          1 MOL1         0.0830
       3    H2      19.561165   20.473888   23.817622 H          1 MOL1         0.0830
       4    C2      18.184121   19.356137   22.512025 C.3        1 MOL1        -0.1689
       5    H3      17.229163   19.315614   23.053480 H          1 MOL1         0.0830
       6    H4      18.166064   20.232040   21.848630 H          1 MOL1         0.0830
       7    C3      18.444115   18.082737   21.686548 C.3        1 MOL1        -0.1765
       8    H5      17.995812   18.154063   20.687156 H          1 MOL1         0.0830
       9    H6      17.994244   17.220515   22.197405 H          1 MOL1         0.0830
      10    C4      19.976805   17.919211   21.610389 C.3        1 MOL1         0.1214
      11    H7      20.333469   18.179373   20.603104 H          1 MOL1         0.0787
      12    C5      20.570756   18.909934   22.632898 C.3        1 MOL1        -0.1765
      13    H8      21.330904   18.442576   23.273032 H          1 MOL1         0.0830
      14    H9      21.051313   19.736259   22.093145 H          1 MOL1         0.0830
      15    O1      20.345698   16.587023   21.946666 O.3        1 MOL1        -0.5512
      16    H10     19.934504   16.003202   21.274651 H          1 MOL1         0.3776
@<TRIPOS>BOND
    1     1     2    1
    2     1     3    1
    3     1     4    1
    4     4     5    1
    5     4     6    1
    6     4     7    1
    7     7     8    1
    8     7     9    1
    9     7    10    1
   10    10    11    1
   11     1    12    1
   12    10    12    1
   13    12    13    1
   14    12    14    1
   15    10    15    1
   16    15    16    1
@<TRIPOS>SUBSTRUCTURE
       1 MOL1            1 RESIDUE      1      MOL     
@<SCITEGIC>MOL_PROPERTY
VConf Rank
SciTegic.value.IntegerValue
949

@<SCITEGIC>MOL_PROPERTY
Conf_Id
SciTegic.value.IntegerValue
59

@<SCITEGIC>MOL_PROPERTY
Delta U+W
SciTegic.value.DoubleValue
0.000

@<SCITEGIC>MOL_PROPERTY
U+W
SciTegic.value.DoubleValue
3.010

@<SCITEGIC>MOL_PROPERTY
Grad RMS
SciTegic.value.DoubleValue
0.000000

@<SCITEGIC>MOL_PROPERTY
U
SciTegic.value.DoubleValue
5.843

@<SCITEGIC>MOL_PROPERTY
W
SciTegic.value.DoubleValue
-2.833

@<SCITEGIC>MOL_PROPERTY
W(PB)
SciTegic.value.DoubleValue
-4.568

@<SCITEGIC>MOL_PROPERTY
W(SA)
SciTegic.value.DoubleValue
1.735

@<SCITEGIC>MOL_PROPERTY
Valence
SciTegic.value.DoubleValue
13.789

@<SCITEGIC>MOL_PROPERTY
Coulomb
SciTegic.value.DoubleValue
-8.574

@<SCITEGIC>MOL_PROPERTY
VdW
SciTegic.value.DoubleValue
0.628

@<SCITEGIC>MOL_PROPERTY
VdW6
SciTegic.value.DoubleValue
-3.284

@<SCITEGIC>MOL_PROPERTY
VdW12
SciTegic.value.DoubleValue
3.912

@<SCITEGIC>MOL_PROPERTY
Bond
SciTegic.value.DoubleValue
0.054

@<SCITEGIC>MOL_PROPERTY
Angle
SciTegic.value.DoubleValue
4.034

@<SCITEGIC>MOL_PROPERTY
Pdih
SciTegic.value.DoubleValue
9.702

@<SCITEGIC>MOL_PROPERTY
Idih
SciTegic.value.DoubleValue
0.000

@<SCITEGIC>MOL_PROPERTY
Tether
SciTegic.value.DoubleValue
0.000

@<TRIPOS>MOLECULE
guest-4_confgen4.mol2 : confsearch ligand conformer 950
          16          16           1
SMALL
USER_CHARGES
 
@<TRIPOS>ATOM
       1    C1      19.194672   17.501788   23.164866 C.3        1 MOL1        -0.1689
       2    H1      19.639232   16.534120   23.434577 H          1 MOL1         0.0830
       3    H2      18.366370   17.704490   23.858011 H          1 MOL1         0.0830
       4    C2      18.676259   17.523948   21.720400 C.3        1 MOL1        -0.1689
       5    H3      19.378960   16.986274   21.068634 H          1 MOL1         0.0830
       6    H4      17.687910   17.054747   21.622122 H          1 MOL1         0.0830
       7    C3      18.658866   19.015999   21.340193 C.3        1 MOL1        -0.1765
       8    H5      17.683885   19.450274   21.596908 H          1 MOL1         0.0830
       9    H6      18.815431   19.160576   20.262880 H          1 MOL1         0.0830
      10    C4      19.752373   19.698582   22.187613 C.3        1 MOL1         0.1214
      11    H7      19.322561   20.571232   22.700704 H          1 MOL1         0.0787
      12    C5      20.216082   18.652413   23.223104 C.3        1 MOL1        -0.1765
      13    H8      21.210731   18.269008   22.957673 H          1 MOL1         0.0830
      14    H9      20.278560   19.082609   24.231010 H          1 MOL1         0.0830
      15    O1      20.842652   20.087363   21.360547 O.3        1 MOL1        -0.5512
      16    H10     21.508072   20.502490   21.949117 H          1 MOL1         0.3776
@<TRIPOS>BOND
    1     1     2    1
    2     1     3    1
    3     1     4    1
    4     4     5    1
    5     4     6    1
    6     4     7    1
    7     7     8    1
    8     7     9    1
    9     7    10    1
   10    10    11    1
   11     1    12    1
   12    10    12    1
   13    12    13    1
   14    12    14    1
   15    10    15    1
   16    15    16    1
@<TRIPOS>SUBSTRUCTURE
       1 MOL1            1 RESIDUE      1      MOL     
@<SCITEGIC>MOL_PROPERTY
VConf Rank
SciTegic.value.IntegerValue
950

@<SCITEGIC>MOL_PROPERTY
Conf_Id
SciTegic.value.IntegerValue
33

@<SCITEGIC>MOL_PROPERTY
Delta U+W
SciTegic.value.DoubleValue
0.015

@<SCITEGIC>MOL_PROPERTY
U+W
SciTegic.value.DoubleValue
3.025

@<SCITEGIC>MOL_PROPERTY
Grad RMS
SciTegic.value.DoubleValue
0.000000

@<SCITEGIC>MOL_PROPERTY
U
SciTegic.value.DoubleValue
5.843

@<SCITEGIC>MOL_PROPERTY
W
SciTegic.value.DoubleValue
-2.819

@<SCITEGIC>MOL_PROPERTY
W(PB)
SciTegic.value.DoubleValue
-4.568

@<SCITEGIC>MOL_PROPERTY
W(SA)
SciTegic.value.DoubleValue
1.750

@<SCITEGIC>MOL_PROPERTY
Valence
SciTegic.value.DoubleValue
13.789

@<SCITEGIC>MOL_PROPERTY
Coulomb
SciTegic.value.DoubleValue
-8.574

@<SCITEGIC>MOL_PROPERTY
VdW
SciTegic.value.DoubleValue
0.628

@<SCITEGIC>MOL_PROPERTY
VdW6
SciTegic.value.DoubleValue
-3.284

@<SCITEGIC>MOL_PROPERTY
VdW12
SciTegic.value.DoubleValue
3.913

@<SCITEGIC>MOL_PROPERTY
Bond
SciTegic.value.DoubleValue
0.054

@<SCITEGIC>MOL_PROPERTY
Angle
SciTegic.value.DoubleValue
4.033

@<SCITEGIC>MOL_PROPERTY
Pdih
SciTegic.value.DoubleValue
9.702

@<SCITEGIC>MOL_PROPERTY
Idih
SciTegic.value.DoubleValue
0.000

@<SCITEGIC>MOL_PROPERTY
Tether
SciTegic.value.DoubleValue
0.000

@<TRIPOS>MOLECULE
guest-4_confgen4.mol2 : confsearch ligand conformer 951
          16          16           1
SMALL
USER_CHARGES
 
@<TRIPOS>ATOM
       1    C1      20.507694   18.444661   22.952280 C.3        1 MOL1        -0.1689
       2    H1      20.620746   19.131511   23.802389 H          1 MOL1         0.0830
       3    H2      21.387461   17.786831   22.936008 H          1 MOL1         0.0830
       4    C2      20.376009   19.249398   21.640762 C.3        1 MOL1        -0.1689
       5    H3      20.426392   20.325669   21.856004 H          1 MOL1         0.0830
       6    H4      21.186353   19.011762   20.938002 H          1 MOL1         0.0830
       7    C3      18.999474   18.889164   21.042582 C.3        1 MOL1        -0.1765
       8    H5      19.124392   18.113232   20.275806 H          1 MOL1         0.0830
       9    H6      18.512908   19.752052   20.568576 H          1 MOL1         0.0830
      10    C4      18.169614   18.317145   22.199785 C.3        1 MOL1         0.1214
      11    H7      17.409561   17.608270   21.840898 H          1 MOL1         0.0787
      12    C5      19.206303   17.627426   23.096735 C.3        1 MOL1        -0.1765
      13    H8      18.872396   17.557468   24.140582 H          1 MOL1         0.0830
      14    H9      19.371951   16.605899   22.729769 H          1 MOL1         0.0830
      15    O1      17.567861   19.385330   22.916500 O.3        1 MOL1        -0.5512
      16    H10     18.312637   19.957944   23.193238 H          1 MOL1         0.3776
@<TRIPOS>BOND
    1     1     2    1
    2     1     3    1
    3     1     4    1
    4     4     5    1
    5     4     6    1
    6     4     7    1
    7     7     8    1
    8     7     9    1
    9     7    10    1
   10    10    11    1
   11     1    12    1
   12    10    12    1
   13    12    13    1
   14    12    14    1
   15    10    15    1
   16    15    16    1
@<TRIPOS>SUBSTRUCTURE
       1 MOL1            1 RESIDUE      1      MOL     
@<SCITEGIC>MOL_PROPERTY
VConf Rank
SciTegic.value.IntegerValue
951

@<SCITEGIC>MOL_PROPERTY
Conf_Id
SciTegic.value.IntegerValue
20

@<SCITEGIC>MOL_PROPERTY
Delta U+W
SciTegic.value.DoubleValue
-0.483

@<SCITEGIC>MOL_PROPERTY
U+W
SciTegic.value.DoubleValue
2.527

@<SCITEGIC>MOL_PROPERTY
Grad RMS
SciTegic.value.DoubleValue
0.000000

@<SCITEGIC>MOL_PROPERTY
U
SciTegic.value.DoubleValue
4.508

@<SCITEGIC>MOL_PROPERTY
W
SciTegic.value.DoubleValue
-1.981

@<SCITEGIC>MOL_PROPERTY
W(PB)
SciTegic.value.DoubleValue
-3.712

@<SCITEGIC>MOL_PROPERTY
W(SA)
SciTegic.value.DoubleValue
1.732

@<SCITEGIC>MOL_PROPERTY
Valence
SciTegic.value.DoubleValue
14.705

@<SCITEGIC>MOL_PROPERTY
Coulomb
SciTegic.value.DoubleValue
-10.687

@<SCITEGIC>MOL_PROPERTY
VdW
SciTegic.value.DoubleValue
0.490

@<SCITEGIC>MOL_PROPERTY
VdW6
SciTegic.value.DoubleValue
-3.745

@<SCITEGIC>MOL_PROPERTY
VdW12
SciTegic.value.DoubleValue
4.235

@<SCITEGIC>MOL_PROPERTY
Bond
SciTegic.value.DoubleValue
0.068

@<SCITEGIC>MOL_PROPERTY
Angle
SciTegic.value.DoubleValue
3.901

@<SCITEGIC>MOL_PROPERTY
Pdih
SciTegic.value.DoubleValue
10.737

@<SCITEGIC>MOL_PROPERTY
Idih
SciTegic.value.DoubleValue
0.000

@<SCITEGIC>MOL_PROPERTY
Tether
SciTegic.value.DoubleValue
0.000

@<TRIPOS>MOLECULE
guest-4_confgen4.mol2 : confsearch ligand conformer 952
          16          16           1
SMALL
USER_CHARGES
 
@<TRIPOS>ATOM
       1    C1      18.090111   18.295491   21.651544 C.3        1 MOL1        -0.1689
       2    H1      18.188405   18.757636   20.659356 H          1 MOL1         0.0830
       3    H2      17.114564   17.793093   21.702028 H          1 MOL1         0.0830
       4    C2      18.253945   19.368124   22.737060 C.3        1 MOL1        -0.1689
       5    H3      17.764996   20.314071   22.467112 H          1 MOL1         0.0830
       6    H4      17.814809   19.010917   23.678967 H          1 MOL1         0.0830
       7    C3      19.777553   19.521064   22.897640 C.3        1 MOL1        -0.1765
       8    H5      20.044676   19.827569   23.917221 H          1 MOL1         0.0830
       9    H6      20.139776   20.294683   22.206922 H          1 MOL1         0.0830
      10    C4      20.392411   18.152186   22.537360 C.3        1 MOL1         0.1214
      11    H7      20.736640   17.642530   23.449103 H          1 MOL1         0.0787
      12    C5      19.263164   17.326239   21.887400 C.3        1 MOL1        -0.1765
      13    H8      19.583412   16.844432   20.953952 H          1 MOL1         0.0830
      14    H9      18.953203   16.534791   22.582105 H          1 MOL1         0.0830
      15    O1      21.466190   18.322512   21.619821 O.3        1 MOL1        -0.5512
      16    H10     22.145711   18.860196   22.078819 H          1 MOL1         0.3776
@<TRIPOS>BOND
    1     1     2    1
    2     1     3    1
    3     1     4    1
    4     4     5    1
    5     4     6    1
    6     4     7    1
    7     7     8    1
    8     7     9    1
    9     7    10    1
   10    10    11    1
   11     1    12    1
   12    10    12    1
   13    12    13    1
   14    12    14    1
   15    10    15    1
   16    15    16    1
@<TRIPOS>SUBSTRUCTURE
       1 MOL1            1 RESIDUE      1      MOL     
@<SCITEGIC>MOL_PROPERTY
VConf Rank
SciTegic.value.IntegerValue
952

@<SCITEGIC>MOL_PROPERTY
Conf_Id
SciTegic.value.IntegerValue
59

@<SCITEGIC>MOL_PROPERTY
Delta U+W
SciTegic.value.DoubleValue
0.000

@<SCITEGIC>MOL_PROPERTY
U+W
SciTegic.value.DoubleValue
3.010

@<SCITEGIC>MOL_PROPERTY
Grad RMS
SciTegic.value.DoubleValue
0.000000

@<SCITEGIC>MOL_PROPERTY
U
SciTegic.value.DoubleValue
5.843

@<SCITEGIC>MOL_PROPERTY
W
SciTegic.value.DoubleValue
-2.833

@<SCITEGIC>MOL_PROPERTY
W(PB)
SciTegic.value.DoubleValue
-4.568

@<SCITEGIC>MOL_PROPERTY
W(SA)
SciTegic.value.DoubleValue
1.735

@<SCITEGIC>MOL_PROPERTY
Valence
SciTegic.value.DoubleValue
13.789

@<SCITEGIC>MOL_PROPERTY
Coulomb
SciTegic.value.DoubleValue
-8.574

@<SCITEGIC>MOL_PROPERTY
VdW
SciTegic.value.DoubleValue
0.628

@<SCITEGIC>MOL_PROPERTY
VdW6
SciTegic.value.DoubleValue
-3.284

@<SCITEGIC>MOL_PROPERTY
VdW12
SciTegic.value.DoubleValue
3.912

@<SCITEGIC>MOL_PROPERTY
Bond
SciTegic.value.DoubleValue
0.054

@<SCITEGIC>MOL_PROPERTY
Angle
SciTegic.value.DoubleValue
4.034

@<SCITEGIC>MOL_PROPERTY
Pdih
SciTegic.value.DoubleValue
9.702

@<SCITEGIC>MOL_PROPERTY
Idih
SciTegic.value.DoubleValue
0.000

@<SCITEGIC>MOL_PROPERTY
Tether
SciTegic.value.DoubleValue
0.000

@<TRIPOS>MOLECULE
guest-4_confgen4.mol2 : confsearch ligand conformer 953
          16          16           1
SMALL
USER_CHARGES
 
@<TRIPOS>ATOM
       1    C1      20.799456   18.984259   21.965860 C.3        1 MOL1        -0.1689
       2    H1      21.826388   18.641184   22.151518 H          1 MOL1         0.0830
       3    H2      20.836090   19.790369   21.219893 H          1 MOL1         0.0830
       4    C2      20.113834   19.492226   23.241641 C.3        1 MOL1        -0.1689
       5    H3      20.384383   18.845206   24.087719 H          1 MOL1         0.0830
       6    H4      20.401517   20.522690   23.490691 H          1 MOL1         0.0830
       7    C3      18.607997   19.356725   22.949799 C.3        1 MOL1        -0.1765
       8    H5      18.236187   20.283598   22.494005 H          1 MOL1         0.0830
       9    H6      18.032198   19.182187   23.868499 H          1 MOL1         0.0830
      10    C4      18.458400   18.202865   21.936870 C.3        1 MOL1         0.1214
      11    H7      17.852828   18.543896   21.084521 H          1 MOL1         0.0787
      12    C5      19.884975   17.851629   21.464375 C.3        1 MOL1        -0.1765
      13    H8      20.209152   16.899995   21.907189 H          1 MOL1         0.0830
      14    H9      19.934693   17.749687   20.372596 H          1 MOL1         0.0830
      15    O1      17.857092   17.075620   22.562687 O.3        1 MOL1        -0.5512
      16    H10     17.797427   16.373776   21.880495 H          1 MOL1         0.3776
@<TRIPOS>BOND
    1     1     2    1
    2     1     3    1
    3     1     4    1
    4     4     5    1
    5     4     6    1
    6     4     7    1
    7     7     8    1
    8     7     9    1
    9     7    10    1
   10    10    11    1
   11     1    12    1
   12    10    12    1
   13    12    13    1
   14    12    14    1
   15    10    15    1
   16    15    16    1
@<TRIPOS>SUBSTRUCTURE
       1 MOL1            1 RESIDUE      1      MOL     
@<SCITEGIC>MOL_PROPERTY
VConf Rank
SciTegic.value.IntegerValue
953

@<SCITEGIC>MOL_PROPERTY
Conf_Id
SciTegic.value.IntegerValue
33

@<SCITEGIC>MOL_PROPERTY
Delta U+W
SciTegic.value.DoubleValue
0.015

@<SCITEGIC>MOL_PROPERTY
U+W
SciTegic.value.DoubleValue
3.025

@<SCITEGIC>MOL_PROPERTY
Grad RMS
SciTegic.value.DoubleValue
0.000000

@<SCITEGIC>MOL_PROPERTY
U
SciTegic.value.DoubleValue
5.843

@<SCITEGIC>MOL_PROPERTY
W
SciTegic.value.DoubleValue
-2.819

@<SCITEGIC>MOL_PROPERTY
W(PB)
SciTegic.value.DoubleValue
-4.568

@<SCITEGIC>MOL_PROPERTY
W(SA)
SciTegic.value.DoubleValue
1.750

@<SCITEGIC>MOL_PROPERTY
Valence
SciTegic.value.DoubleValue
13.789

@<SCITEGIC>MOL_PROPERTY
Coulomb
SciTegic.value.DoubleValue
-8.574

@<SCITEGIC>MOL_PROPERTY
VdW
SciTegic.value.DoubleValue
0.628

@<SCITEGIC>MOL_PROPERTY
VdW6
SciTegic.value.DoubleValue
-3.284

@<SCITEGIC>MOL_PROPERTY
VdW12
SciTegic.value.DoubleValue
3.913

@<SCITEGIC>MOL_PROPERTY
Bond
SciTegic.value.DoubleValue
0.054

@<SCITEGIC>MOL_PROPERTY
Angle
SciTegic.value.DoubleValue
4.033

@<SCITEGIC>MOL_PROPERTY
Pdih
SciTegic.value.DoubleValue
9.702

@<SCITEGIC>MOL_PROPERTY
Idih
SciTegic.value.DoubleValue
0.000

@<SCITEGIC>MOL_PROPERTY
Tether
SciTegic.value.DoubleValue
0.000

@<TRIPOS>MOLECULE
guest-4_confgen4.mol2 : confsearch ligand conformer 954
          16          16           1
SMALL
USER_CHARGES
 
@<TRIPOS>ATOM
       1    C1      18.923644   17.405125   22.613099 C.3        1 MOL1        -0.1689
       2    H1      19.238757   17.079874   23.614170 H          1 MOL1         0.0830
       3    H2      18.287253   16.615299   22.190989 H          1 MOL1         0.0830
       4    C2      20.164115   17.666859   21.731197 C.3        1 MOL1        -0.1689
       5    H3      21.079544   17.467265   22.305111 H          1 MOL1         0.0830
       6    H4      20.176088   17.014627   20.847201 H          1 MOL1         0.0830
       7    C3      20.104652   19.154103   21.322536 C.3        1 MOL1        -0.1765
       8    H5      19.667012   19.241674   20.319329 H          1 MOL1         0.0830
       9    H6      21.099548   19.618231   21.294729 H          1 MOL1         0.0830
      10    C4      19.173234   19.835928   22.333758 C.3        1 MOL1         0.1214
      11    H7      18.678359   20.716072   21.898525 H          1 MOL1         0.0787
      12    C5      18.160525   18.743739   22.703216 C.3        1 MOL1        -0.1765
      13    H8      17.718390   18.904863   23.695465 H          1 MOL1         0.0830
      14    H9      17.344457   18.750975   21.968640 H          1 MOL1         0.0830
      15    O1      19.918186   20.193073   23.488878 O.3        1 MOL1        -0.5512
      16    H10     20.317990   19.356055   23.803072 H          1 MOL1         0.3776
@<TRIPOS>BOND
    1     1     2    1
    2     1     3    1
    3     1     4    1
    4     4     5    1
    5     4     6    1
    6     4     7    1
    7     7     8    1
    8     7     9    1
    9     7    10    1
   10    10    11    1
   11     1    12    1
   12    10    12    1
   13    12    13    1
   14    12    14    1
   15    10    15    1
   16    15    16    1
@<TRIPOS>SUBSTRUCTURE
       1 MOL1            1 RESIDUE      1      MOL     
@<SCITEGIC>MOL_PROPERTY
VConf Rank
SciTegic.value.IntegerValue
954

@<SCITEGIC>MOL_PROPERTY
Conf_Id
SciTegic.value.IntegerValue
20

@<SCITEGIC>MOL_PROPERTY
Delta U+W
SciTegic.value.DoubleValue
-0.483

@<SCITEGIC>MOL_PROPERTY
U+W
SciTegic.value.DoubleValue
2.527

@<SCITEGIC>MOL_PROPERTY
Grad RMS
SciTegic.value.DoubleValue
0.000000

@<SCITEGIC>MOL_PROPERTY
U
SciTegic.value.DoubleValue
4.508

@<SCITEGIC>MOL_PROPERTY
W
SciTegic.value.DoubleValue
-1.981

@<SCITEGIC>MOL_PROPERTY
W(PB)
SciTegic.value.DoubleValue
-3.712

@<SCITEGIC>MOL_PROPERTY
W(SA)
SciTegic.value.DoubleValue
1.732

@<SCITEGIC>MOL_PROPERTY
Valence
SciTegic.value.DoubleValue
14.705

@<SCITEGIC>MOL_PROPERTY
Coulomb
SciTegic.value.DoubleValue
-10.687

@<SCITEGIC>MOL_PROPERTY
VdW
SciTegic.value.DoubleValue
0.490

@<SCITEGIC>MOL_PROPERTY
VdW6
SciTegic.value.DoubleValue
-3.745

@<SCITEGIC>MOL_PROPERTY
VdW12
SciTegic.value.DoubleValue
4.235

@<SCITEGIC>MOL_PROPERTY
Bond
SciTegic.value.DoubleValue
0.068

@<SCITEGIC>MOL_PROPERTY
Angle
SciTegic.value.DoubleValue
3.901

@<SCITEGIC>MOL_PROPERTY
Pdih
SciTegic.value.DoubleValue
10.737

@<SCITEGIC>MOL_PROPERTY
Idih
SciTegic.value.DoubleValue
0.000

@<SCITEGIC>MOL_PROPERTY
Tether
SciTegic.value.DoubleValue
0.000

@<TRIPOS>MOLECULE
guest-4_confgen4.mol2 : confsearch ligand conformer 955
          16          16           1
SMALL
USER_CHARGES
 
@<TRIPOS>ATOM
       1    C1      19.426770   18.298287   20.884619 C.3        1 MOL1        -0.1689
       2    H1      20.256509   17.588158   20.762450 H          1 MOL1         0.0830
       3    H2      18.971163   18.467927   19.899586 H          1 MOL1         0.0830
       4    C2      19.948343   19.594295   21.520271 C.3        1 MOL1        -0.1689
       5    H3      20.931949   19.886021   21.127623 H          1 MOL1         0.0830
       6    H4      19.242711   20.413146   21.322299 H          1 MOL1         0.0830
       7    C3      19.985984   19.292549   23.029606 C.3        1 MOL1        -0.1765
       8    H5      19.835681   20.202695   23.624492 H          1 MOL1         0.0830
       9    H6      20.967933   18.876014   23.292396 H          1 MOL1         0.0830
      10    C4      18.876260   18.252946   23.293078 C.3        1 MOL1         0.1214
      11    H7      18.026555   18.730384   23.802561 H          1 MOL1         0.0787
      12    C5      18.420460   17.744032   21.909934 C.3        1 MOL1        -0.1765
      13    H8      18.362138   16.648214   21.867457 H          1 MOL1         0.0830
      14    H9      17.419444   18.140015   21.694885 H          1 MOL1         0.0830
      15    O1      19.387278   17.175190   24.068443 O.3        1 MOL1        -0.5512
      16    H10     19.670388   17.555662   24.926710 H          1 MOL1         0.3776
@<TRIPOS>BOND
    1     1     2    1
    2     1     3    1
    3     1     4    1
    4     4     5    1
    5     4     6    1
    6     4     7    1
    7     7     8    1
    8     7     9    1
    9     7    10    1
   10    10    11    1
   11     1    12    1
   12    10    12    1
   13    12    13    1
   14    12    14    1
   15    10    15    1
   16    15    16    1
@<TRIPOS>SUBSTRUCTURE
       1 MOL1            1 RESIDUE      1      MOL     
@<SCITEGIC>MOL_PROPERTY
VConf Rank
SciTegic.value.IntegerValue
955

@<SCITEGIC>MOL_PROPERTY
Conf_Id
SciTegic.value.IntegerValue
59

@<SCITEGIC>MOL_PROPERTY
Delta U+W
SciTegic.value.DoubleValue
0.000

@<SCITEGIC>MOL_PROPERTY
U+W
SciTegic.value.DoubleValue
3.010

@<SCITEGIC>MOL_PROPERTY
Grad RMS
SciTegic.value.DoubleValue
0.000000

@<SCITEGIC>MOL_PROPERTY
U
SciTegic.value.DoubleValue
5.843

@<SCITEGIC>MOL_PROPERTY
W
SciTegic.value.DoubleValue
-2.833

@<SCITEGIC>MOL_PROPERTY
W(PB)
SciTegic.value.DoubleValue
-4.568

@<SCITEGIC>MOL_PROPERTY
W(SA)
SciTegic.value.DoubleValue
1.735

@<SCITEGIC>MOL_PROPERTY
Valence
SciTegic.value.DoubleValue
13.789

@<SCITEGIC>MOL_PROPERTY
Coulomb
SciTegic.value.DoubleValue
-8.574

@<SCITEGIC>MOL_PROPERTY
VdW
SciTegic.value.DoubleValue
0.628

@<SCITEGIC>MOL_PROPERTY
VdW6
SciTegic.value.DoubleValue
-3.284

@<SCITEGIC>MOL_PROPERTY
VdW12
SciTegic.value.DoubleValue
3.912

@<SCITEGIC>MOL_PROPERTY
Bond
SciTegic.value.DoubleValue
0.054

@<SCITEGIC>MOL_PROPERTY
Angle
SciTegic.value.DoubleValue
4.034

@<SCITEGIC>MOL_PROPERTY
Pdih
SciTegic.value.DoubleValue
9.702

@<SCITEGIC>MOL_PROPERTY
Idih
SciTegic.value.DoubleValue
0.000

@<SCITEGIC>MOL_PROPERTY
Tether
SciTegic.value.DoubleValue
0.000

@<TRIPOS>MOLECULE
guest-4_confgen4.mol2 : confsearch ligand conformer 956
          16          16           1
SMALL
USER_CHARGES
 
@<TRIPOS>ATOM
       1    C1      19.654231   19.175349   23.597229 C.3        1 MOL1        -0.1689
       2    H1      20.219823   18.967071   24.515643 H          1 MOL1         0.0830
       3    H2      19.198870   20.170937   23.692477 H          1 MOL1         0.0830
       4    C2      18.560910   18.130520   23.335104 C.3        1 MOL1        -0.1689
       5    H3      18.938023   17.130620   23.591356 H          1 MOL1         0.0830
       6    H4      17.652526   18.317041   23.923908 H          1 MOL1         0.0830
       7    C3      18.305480   18.212303   21.818812 C.3        1 MOL1        -0.1765
       8    H5      17.517424   18.949458   21.617179 H          1 MOL1         0.0830
       9    H6      17.972454   17.248010   21.412299 H          1 MOL1         0.0830
      10    C4      19.622254   18.695222   21.176400 C.3        1 MOL1         0.1214
      11    H7      19.413792   19.554881   20.522910 H          1 MOL1         0.0787
      12    C5      20.540731   19.126188   22.339329 C.3        1 MOL1        -0.1765
      13    H8      21.340151   18.387323   22.486939 H          1 MOL1         0.0830
      14    H9      21.011886   20.097844   22.142495 H          1 MOL1         0.0830
      15    O1      20.225595   17.637858   20.440288 O.3        1 MOL1        -0.5512
      16    H10     21.058466   17.995287   20.065989 H          1 MOL1         0.3776
@<TRIPOS>BOND
    1     1     2    1
    2     1     3    1
    3     1     4    1
    4     4     5    1
    5     4     6    1
    6     4     7    1
    7     7     8    1
    8     7     9    1
    9     7    10    1
   10    10    11    1
   11     1    12    1
   12    10    12    1
   13    12    13    1
   14    12    14    1
   15    10    15    1
   16    15    16    1
@<TRIPOS>SUBSTRUCTURE
       1 MOL1            1 RESIDUE      1      MOL     
@<SCITEGIC>MOL_PROPERTY
VConf Rank
SciTegic.value.IntegerValue
956

@<SCITEGIC>MOL_PROPERTY
Conf_Id
SciTegic.value.IntegerValue
33

@<SCITEGIC>MOL_PROPERTY
Delta U+W
SciTegic.value.DoubleValue
0.015

@<SCITEGIC>MOL_PROPERTY
U+W
SciTegic.value.DoubleValue
3.025

@<SCITEGIC>MOL_PROPERTY
Grad RMS
SciTegic.value.DoubleValue
0.000000

@<SCITEGIC>MOL_PROPERTY
U
SciTegic.value.DoubleValue
5.843

@<SCITEGIC>MOL_PROPERTY
W
SciTegic.value.DoubleValue
-2.819

@<SCITEGIC>MOL_PROPERTY
W(PB)
SciTegic.value.DoubleValue
-4.568

@<SCITEGIC>MOL_PROPERTY
W(SA)
SciTegic.value.DoubleValue
1.750

@<SCITEGIC>MOL_PROPERTY
Valence
SciTegic.value.DoubleValue
13.789

@<SCITEGIC>MOL_PROPERTY
Coulomb
SciTegic.value.DoubleValue
-8.574

@<SCITEGIC>MOL_PROPERTY
VdW
SciTegic.value.DoubleValue
0.628

@<SCITEGIC>MOL_PROPERTY
VdW6
SciTegic.value.DoubleValue
-3.284

@<SCITEGIC>MOL_PROPERTY
VdW12
SciTegic.value.DoubleValue
3.913

@<SCITEGIC>MOL_PROPERTY
Bond
SciTegic.value.DoubleValue
0.054

@<SCITEGIC>MOL_PROPERTY
Angle
SciTegic.value.DoubleValue
4.033

@<SCITEGIC>MOL_PROPERTY
Pdih
SciTegic.value.DoubleValue
9.702

@<SCITEGIC>MOL_PROPERTY
Idih
SciTegic.value.DoubleValue
0.000

@<SCITEGIC>MOL_PROPERTY
Tether
SciTegic.value.DoubleValue
0.000

@<TRIPOS>MOLECULE
guest-4_confgen4.mol2 : confsearch ligand conformer 957
          16          16           1
SMALL
USER_CHARGES
 
@<TRIPOS>ATOM
       1    C1      18.422496   19.527992   22.429112 C.3        1 MOL1        -0.1689
       2    H1      17.405968   19.115811   22.492407 H          1 MOL1         0.0830
       3    H2      18.348242   20.617723   22.547302 H          1 MOL1         0.0830
       4    C2      19.060930   19.145749   21.075852 C.3        1 MOL1        -0.1689
       5    H3      18.353014   18.549482   20.483782 H          1 MOL1         0.0830
       6    H4      19.321583   20.035579   20.486563 H          1 MOL1         0.0830
       7    C3      20.316732   18.310733   21.404707 C.3        1 MOL1        -0.1765
       8    H5      21.204897   18.955495   21.372052 H          1 MOL1         0.0830
       9    H6      20.471524   17.492265   20.689057 H          1 MOL1         0.0830
      10    C4      20.124129   17.800110   22.838988 C.3        1 MOL1         0.1214
      11    H7      21.087607   17.630977   23.341071 H          1 MOL1         0.0787
      12    C5      19.317170   18.910639   23.524918 C.3        1 MOL1        -0.1765
      13    H8      18.733701   18.535610   24.376341 H          1 MOL1         0.0830
      14    H9      20.010574   19.672559   23.904775 H          1 MOL1         0.0830
      15    O1      19.351153   16.609075   22.811577 O.3        1 MOL1        -0.5512
      16    H10     18.522034   16.853966   22.351410 H          1 MOL1         0.3776
@<TRIPOS>BOND
    1     1     2    1
    2     1     3    1
    3     1     4    1
    4     4     5    1
    5     4     6    1
    6     4     7    1
    7     7     8    1
    8     7     9    1
    9     7    10    1
   10    10    11    1
   11     1    12    1
   12    10    12    1
   13    12    13    1
   14    12    14    1
   15    10    15    1
   16    15    16    1
@<TRIPOS>SUBSTRUCTURE
       1 MOL1            1 RESIDUE      1      MOL     
@<SCITEGIC>MOL_PROPERTY
VConf Rank
SciTegic.value.IntegerValue
957

@<SCITEGIC>MOL_PROPERTY
Conf_Id
SciTegic.value.IntegerValue
20

@<SCITEGIC>MOL_PROPERTY
Delta U+W
SciTegic.value.DoubleValue
-0.483

@<SCITEGIC>MOL_PROPERTY
U+W
SciTegic.value.DoubleValue
2.527

@<SCITEGIC>MOL_PROPERTY
Grad RMS
SciTegic.value.DoubleValue
0.000000

@<SCITEGIC>MOL_PROPERTY
U
SciTegic.value.DoubleValue
4.508

@<SCITEGIC>MOL_PROPERTY
W
SciTegic.value.DoubleValue
-1.981

@<SCITEGIC>MOL_PROPERTY
W(PB)
SciTegic.value.DoubleValue
-3.712

@<SCITEGIC>MOL_PROPERTY
W(SA)
SciTegic.value.DoubleValue
1.732

@<SCITEGIC>MOL_PROPERTY
Valence
SciTegic.value.DoubleValue
14.705

@<SCITEGIC>MOL_PROPERTY
Coulomb
SciTegic.value.DoubleValue
-10.687

@<SCITEGIC>MOL_PROPERTY
VdW
SciTegic.value.DoubleValue
0.490

@<SCITEGIC>MOL_PROPERTY
VdW6
SciTegic.value.DoubleValue
-3.745

@<SCITEGIC>MOL_PROPERTY
VdW12
SciTegic.value.DoubleValue
4.235

@<SCITEGIC>MOL_PROPERTY
Bond
SciTegic.value.DoubleValue
0.068

@<SCITEGIC>MOL_PROPERTY
Angle
SciTegic.value.DoubleValue
3.901

@<SCITEGIC>MOL_PROPERTY
Pdih
SciTegic.value.DoubleValue
10.737

@<SCITEGIC>MOL_PROPERTY
Idih
SciTegic.value.DoubleValue
0.000

@<SCITEGIC>MOL_PROPERTY
Tether
SciTegic.value.DoubleValue
0.000

@<TRIPOS>MOLECULE
guest-4_confgen4.mol2 : confsearch ligand conformer 958
          16          16           1
SMALL
USER_CHARGES
 
@<TRIPOS>ATOM
       1    C1      19.843220   17.244801   22.719267 C.3        1 MOL1        -0.1689
       2    H1      20.179597   17.374978   23.757333 H          1 MOL1         0.0830
       3    H2      19.960501   16.186396   22.449697 H          1 MOL1         0.0830
       4    C2      20.643475   18.176340   21.798639 C.3        1 MOL1        -0.1689
       5    H3      21.703614   18.233161   22.080836 H          1 MOL1         0.0830
       6    H4      20.582549   17.814140   20.762914 H          1 MOL1         0.0830
       7    C3      19.931789   19.536456   21.917568 C.3        1 MOL1        -0.1765
       8    H5      20.035879   20.125471   20.997203 H          1 MOL1         0.0830
       9    H6      20.381526   20.111191   22.738664 H          1 MOL1         0.0830
      10    C4      18.452203   19.227335   22.228938 C.3        1 MOL1         0.1214
      11    H7      17.832964   19.416981   21.340064 H          1 MOL1         0.0787
      12    C5      18.387241   17.727641   22.584651 C.3        1 MOL1        -0.1765
      13    H8      17.813093   17.541355   23.502078 H          1 MOL1         0.0830
      14    H9      17.893834   17.186794   21.766656 H          1 MOL1         0.0830
      15    O1      18.007675   20.012216   23.329049 O.3        1 MOL1        -0.5512
      16    H10     18.080405   20.950277   23.052854 H          1 MOL1         0.3776
@<TRIPOS>BOND
    1     1     2    1
    2     1     3    1
    3     1     4    1
    4     4     5    1
    5     4     6    1
    6     4     7    1
    7     7     8    1
    8     7     9    1
    9     7    10    1
   10    10    11    1
   11     1    12    1
   12    10    12    1
   13    12    13    1
   14    12    14    1
   15    10    15    1
   16    15    16    1
@<TRIPOS>SUBSTRUCTURE
       1 MOL1            1 RESIDUE      1      MOL     
@<SCITEGIC>MOL_PROPERTY
VConf Rank
SciTegic.value.IntegerValue
958

@<SCITEGIC>MOL_PROPERTY
Conf_Id
SciTegic.value.IntegerValue
59

@<SCITEGIC>MOL_PROPERTY
Delta U+W
SciTegic.value.DoubleValue
0.000

@<SCITEGIC>MOL_PROPERTY
U+W
SciTegic.value.DoubleValue
3.010

@<SCITEGIC>MOL_PROPERTY
Grad RMS
SciTegic.value.DoubleValue
0.000000

@<SCITEGIC>MOL_PROPERTY
U
SciTegic.value.DoubleValue
5.843

@<SCITEGIC>MOL_PROPERTY
W
SciTegic.value.DoubleValue
-2.833

@<SCITEGIC>MOL_PROPERTY
W(PB)
SciTegic.value.DoubleValue
-4.568

@<SCITEGIC>MOL_PROPERTY
W(SA)
SciTegic.value.DoubleValue
1.735

@<SCITEGIC>MOL_PROPERTY
Valence
SciTegic.value.DoubleValue
13.789

@<SCITEGIC>MOL_PROPERTY
Coulomb
SciTegic.value.DoubleValue
-8.574

@<SCITEGIC>MOL_PROPERTY
VdW
SciTegic.value.DoubleValue
0.628

@<SCITEGIC>MOL_PROPERTY
VdW6
SciTegic.value.DoubleValue
-3.284

@<SCITEGIC>MOL_PROPERTY
VdW12
SciTegic.value.DoubleValue
3.912

@<SCITEGIC>MOL_PROPERTY
Bond
SciTegic.value.DoubleValue
0.054

@<SCITEGIC>MOL_PROPERTY
Angle
SciTegic.value.DoubleValue
4.034

@<SCITEGIC>MOL_PROPERTY
Pdih
SciTegic.value.DoubleValue
9.702

@<SCITEGIC>MOL_PROPERTY
Idih
SciTegic.value.DoubleValue
0.000

@<SCITEGIC>MOL_PROPERTY
Tether
SciTegic.value.DoubleValue
0.000

@<TRIPOS>MOLECULE
guest-4_confgen4.mol2 : confsearch ligand conformer 959
          16          16           1
SMALL
USER_CHARGES
 
@<TRIPOS>ATOM
       1    C1      18.054405   18.566233   22.616525 C.3        1 MOL1        -0.1689
       2    H1      17.394748   18.717613   23.481797 H          1 MOL1         0.0830
       3    H2      17.426643   18.449810   21.722108 H          1 MOL1         0.0830
       4    C2      18.956268   17.334869   22.778123 C.3        1 MOL1        -0.1689
       5    H3      19.308417   17.270093   23.817100 H          1 MOL1         0.0830
       6    H4      18.436541   16.398965   22.531933 H          1 MOL1         0.0830
       7    C3      20.150505   17.606890   21.844914 C.3        1 MOL1        -0.1765
       8    H5      19.937562   17.202782   20.846698 H          1 MOL1         0.0830
       9    H6      21.067452   17.126076   22.211035 H          1 MOL1         0.0830
      10    C4      20.292081   19.139932   21.747252 C.3        1 MOL1         0.1214
      11    H7      20.330714   19.434493   20.688356 H          1 MOL1         0.0787
      12    C5      19.035289   19.735933   22.415827 C.3        1 MOL1        -0.1765
      13    H8      19.292029   20.166536   23.393297 H          1 MOL1         0.0830
      14    H9      18.591179   20.531175   21.803288 H          1 MOL1         0.0830
      15    O1      21.462773   19.569070   22.432248 O.3        1 MOL1        -0.5512
      16    H10     21.496008   20.545442   22.347858 H          1 MOL1         0.3776
@<TRIPOS>BOND
    1     1     2    1
    2     1     3    1
    3     1     4    1
    4     4     5    1
    5     4     6    1
    6     4     7    1
    7     7     8    1
    8     7     9    1
    9     7    10    1
   10    10    11    1
   11     1    12    1
   12    10    12    1
   13    12    13    1
   14    12    14    1
   15    10    15    1
   16    15    16    1
@<TRIPOS>SUBSTRUCTURE
       1 MOL1            1 RESIDUE      1      MOL     
@<SCITEGIC>MOL_PROPERTY
VConf Rank
SciTegic.value.IntegerValue
959

@<SCITEGIC>MOL_PROPERTY
Conf_Id
SciTegic.value.IntegerValue
33

@<SCITEGIC>MOL_PROPERTY
Delta U+W
SciTegic.value.DoubleValue
0.015

@<SCITEGIC>MOL_PROPERTY
U+W
SciTegic.value.DoubleValue
3.025

@<SCITEGIC>MOL_PROPERTY
Grad RMS
SciTegic.value.DoubleValue
0.000000

@<SCITEGIC>MOL_PROPERTY
U
SciTegic.value.DoubleValue
5.843

@<SCITEGIC>MOL_PROPERTY
W
SciTegic.value.DoubleValue
-2.819

@<SCITEGIC>MOL_PROPERTY
W(PB)
SciTegic.value.DoubleValue
-4.568

@<SCITEGIC>MOL_PROPERTY
W(SA)
SciTegic.value.DoubleValue
1.750

@<SCITEGIC>MOL_PROPERTY
Valence
SciTegic.value.DoubleValue
13.789

@<SCITEGIC>MOL_PROPERTY
Coulomb
SciTegic.value.DoubleValue
-8.574

@<SCITEGIC>MOL_PROPERTY
VdW
SciTegic.value.DoubleValue
0.628

@<SCITEGIC>MOL_PROPERTY
VdW6
SciTegic.value.DoubleValue
-3.284

@<SCITEGIC>MOL_PROPERTY
VdW12
SciTegic.value.DoubleValue
3.913

@<SCITEGIC>MOL_PROPERTY
Bond
SciTegic.value.DoubleValue
0.054

@<SCITEGIC>MOL_PROPERTY
Angle
SciTegic.value.DoubleValue
4.033

@<SCITEGIC>MOL_PROPERTY
Pdih
SciTegic.value.DoubleValue
9.702

@<SCITEGIC>MOL_PROPERTY
Idih
SciTegic.value.DoubleValue
0.000

@<SCITEGIC>MOL_PROPERTY
Tether
SciTegic.value.DoubleValue
0.000

@<TRIPOS>MOLECULE
guest-4_confgen4.mol2 : confsearch ligand conformer 960
          16          16           1
SMALL
USER_CHARGES
 
@<TRIPOS>ATOM
       1    C1      20.164657   19.552546   22.785890 C.3        1 MOL1        -0.1689
       2    H1      19.633238   20.461952   23.098624 H          1 MOL1         0.0830
       3    H2      21.227994   19.688544   23.026338 H          1 MOL1         0.0830
       4    C2      19.950219   19.312058   21.275525 C.3        1 MOL1        -0.1689
       5    H3      19.315904   20.105639   20.857075 H          1 MOL1         0.0830
       6    H4      20.901516   19.321243   20.726027 H          1 MOL1         0.0830
       7    C3      19.247701   17.943837   21.145615 C.3        1 MOL1        -0.1765
       8    H5      19.992562   17.168794   20.921757 H          1 MOL1         0.0830
       9    H6      18.502199   17.933605   20.339310 H          1 MOL1         0.0830
      10    C4      18.624089   17.654186   22.517549 C.3        1 MOL1         0.1214
      11    H7      18.535773   16.573817   22.701900 H          1 MOL1         0.0787
      12    C5      19.584772   18.320050   23.511868 C.3        1 MOL1        -0.1765
      13    H8      19.088505   18.587383   24.454341 H          1 MOL1         0.0830
      14    H9      20.395616   17.618514   23.748517 H          1 MOL1         0.0830
      15    O1      17.355351   18.287192   22.597642 O.3        1 MOL1        -0.5512
      16    H10     17.531658   19.234402   22.421936 H          1 MOL1         0.3776
@<TRIPOS>BOND
    1     1     2    1
    2     1     3    1
    3     1     4    1
    4     4     5    1
    5     4     6    1
    6     4     7    1
    7     7     8    1
    8     7     9    1
    9     7    10    1
   10    10    11    1
   11     1    12    1
   12    10    12    1
   13    12    13    1
   14    12    14    1
   15    10    15    1
   16    15    16    1
@<TRIPOS>SUBSTRUCTURE
       1 MOL1            1 RESIDUE      1      MOL     
@<SCITEGIC>MOL_PROPERTY
VConf Rank
SciTegic.value.IntegerValue
960

@<SCITEGIC>MOL_PROPERTY
Conf_Id
SciTegic.value.IntegerValue
20

@<SCITEGIC>MOL_PROPERTY
Delta U+W
SciTegic.value.DoubleValue
-0.483

@<SCITEGIC>MOL_PROPERTY
U+W
SciTegic.value.DoubleValue
2.527

@<SCITEGIC>MOL_PROPERTY
Grad RMS
SciTegic.value.DoubleValue
0.000000

@<SCITEGIC>MOL_PROPERTY
U
SciTegic.value.DoubleValue
4.508

@<SCITEGIC>MOL_PROPERTY
W
SciTegic.value.DoubleValue
-1.981

@<SCITEGIC>MOL_PROPERTY
W(PB)
SciTegic.value.DoubleValue
-3.712

@<SCITEGIC>MOL_PROPERTY
W(SA)
SciTegic.value.DoubleValue
1.732

@<SCITEGIC>MOL_PROPERTY
Valence
SciTegic.value.DoubleValue
14.705

@<SCITEGIC>MOL_PROPERTY
Coulomb
SciTegic.value.DoubleValue
-10.687

@<SCITEGIC>MOL_PROPERTY
VdW
SciTegic.value.DoubleValue
0.490

@<SCITEGIC>MOL_PROPERTY
VdW6
SciTegic.value.DoubleValue
-3.745

@<SCITEGIC>MOL_PROPERTY
VdW12
SciTegic.value.DoubleValue
4.235

@<SCITEGIC>MOL_PROPERTY
Bond
SciTegic.value.DoubleValue
0.068

@<SCITEGIC>MOL_PROPERTY
Angle
SciTegic.value.DoubleValue
3.901

@<SCITEGIC>MOL_PROPERTY
Pdih
SciTegic.value.DoubleValue
10.737

@<SCITEGIC>MOL_PROPERTY
Idih
SciTegic.value.DoubleValue
0.000

@<SCITEGIC>MOL_PROPERTY
Tether
SciTegic.value.DoubleValue
0.000

@<TRIPOS>MOLECULE
guest-4_confgen4.mol2 : confsearch ligand conformer 961
          16          16           1
SMALL
USER_CHARGES
 
@<TRIPOS>ATOM
       1    C1      18.850377   18.005773   23.561258 C.3        1 MOL1        -0.1689
       2    H1      19.620719   18.239900   24.309211 H          1 MOL1         0.0830
       3    H2      18.011274   17.515544   24.073338 H          1 MOL1         0.0830
       4    C2      19.455780   17.129019   22.456488 C.3        1 MOL1        -0.1689
       5    H3      20.151463   16.377300   22.853608 H          1 MOL1         0.0830
       6    H4      18.653235   16.604630   21.919307 H          1 MOL1         0.0830
       7    C3      20.149004   18.127642   21.511633 C.3        1 MOL1        -0.1765
       8    H5      20.169294   17.755234   20.479283 H          1 MOL1         0.0830
       9    H6      21.187645   18.275120   21.837607 H          1 MOL1         0.0830
      10    C4      19.360951   19.449915   21.622299 C.3        1 MOL1         0.1214
      11    H7      18.757384   19.605300   20.716164 H          1 MOL1         0.0787
      12    C5      18.424219   19.296908   22.838423 C.3        1 MOL1        -0.1765
      13    H8      18.464295   20.166837   23.507480 H          1 MOL1         0.0830
      14    H9      17.390313   19.196352   22.483449 H          1 MOL1         0.0830
      15    O1      20.254311   20.538359   21.824992 O.3        1 MOL1        -0.5512
      16    H10     20.829301   20.581702   21.031871 H          1 MOL1         0.3776
@<TRIPOS>BOND
    1     1     2    1
    2     1     3    1
    3     1     4    1
    4     4     5    1
    5     4     6    1
    6     4     7    1
    7     7     8    1
    8     7     9    1
    9     7    10    1
   10    10    11    1
   11     1    12    1
   12    10    12    1
   13    12    13    1
   14    12    14    1
   15    10    15    1
   16    15    16    1
@<TRIPOS>SUBSTRUCTURE
       1 MOL1            1 RESIDUE      1      MOL     
@<SCITEGIC>MOL_PROPERTY
VConf Rank
SciTegic.value.IntegerValue
961

@<SCITEGIC>MOL_PROPERTY
Conf_Id
SciTegic.value.IntegerValue
59

@<SCITEGIC>MOL_PROPERTY
Delta U+W
SciTegic.value.DoubleValue
0.000

@<SCITEGIC>MOL_PROPERTY
U+W
SciTegic.value.DoubleValue
3.010

@<SCITEGIC>MOL_PROPERTY
Grad RMS
SciTegic.value.DoubleValue
0.000000

@<SCITEGIC>MOL_PROPERTY
U
SciTegic.value.DoubleValue
5.843

@<SCITEGIC>MOL_PROPERTY
W
SciTegic.value.DoubleValue
-2.833

@<SCITEGIC>MOL_PROPERTY
W(PB)
SciTegic.value.DoubleValue
-4.568

@<SCITEGIC>MOL_PROPERTY
W(SA)
SciTegic.value.DoubleValue
1.735

@<SCITEGIC>MOL_PROPERTY
Valence
SciTegic.value.DoubleValue
13.789

@<SCITEGIC>MOL_PROPERTY
Coulomb
SciTegic.value.DoubleValue
-8.574

@<SCITEGIC>MOL_PROPERTY
VdW
SciTegic.value.DoubleValue
0.628

@<SCITEGIC>MOL_PROPERTY
VdW6
SciTegic.value.DoubleValue
-3.284

@<SCITEGIC>MOL_PROPERTY
VdW12
SciTegic.value.DoubleValue
3.912

@<SCITEGIC>MOL_PROPERTY
Bond
SciTegic.value.DoubleValue
0.054

@<SCITEGIC>MOL_PROPERTY
Angle
SciTegic.value.DoubleValue
4.034

@<SCITEGIC>MOL_PROPERTY
Pdih
SciTegic.value.DoubleValue
9.702

@<SCITEGIC>MOL_PROPERTY
Idih
SciTegic.value.DoubleValue
0.000

@<SCITEGIC>MOL_PROPERTY
Tether
SciTegic.value.DoubleValue
0.000

@<TRIPOS>MOLECULE
guest-4_confgen4.mol2 : confsearch ligand conformer 962
          16          16           1
SMALL
USER_CHARGES
 
@<TRIPOS>ATOM
       1    C1      20.354625   18.352045   23.377841 C.3        1 MOL1        -0.1689
       2    H1      20.657862   18.799334   24.334261 H          1 MOL1         0.0830
       3    H2      20.815589   17.357349   23.302252 H          1 MOL1         0.0830
       4    C2      20.772968   19.207729   22.174297 C.3        1 MOL1        -0.1689
       5    H3      20.627167   20.271146   22.410020 H          1 MOL1         0.0830
       6    H4      21.825571   19.057577   21.898389 H          1 MOL1         0.0830
       7    C3      19.805815   18.791312   21.050781 C.3        1 MOL1        -0.1765
       8    H5      20.236191   17.954440   20.485532 H          1 MOL1         0.0830
       9    H6      19.627378   19.613854   20.345371 H          1 MOL1         0.0830
      10    C4      18.508830   18.318885   21.739579 C.3        1 MOL1         0.1214
      11    H7      18.232693   17.327008   21.352996 H          1 MOL1         0.0787
      12    C5      18.825445   18.228792   23.247350 C.3        1 MOL1        -0.1765
      13    H8      18.346841   19.057346   23.786997 H          1 MOL1         0.0830
      14    H9      18.460416   17.288704   23.680751 H          1 MOL1         0.0830
      15    O1      17.463322   19.256616   21.512707 O.3        1 MOL1        -0.5512
      16    H10     16.671904   18.913775   21.979233 H          1 MOL1         0.3776
@<TRIPOS>BOND
    1     1     2    1
    2     1     3    1
    3     1     4    1
    4     4     5    1
    5     4     6    1
    6     4     7    1
    7     7     8    1
    8     7     9    1
    9     7    10    1
   10    10    11    1
   11     1    12    1
   12    10    12    1
   13    12    13    1
   14    12    14    1
   15    10    15    1
   16    15    16    1
@<TRIPOS>SUBSTRUCTURE
       1 MOL1            1 RESIDUE      1      MOL     
@<SCITEGIC>MOL_PROPERTY
VConf Rank
SciTegic.value.IntegerValue
962

@<SCITEGIC>MOL_PROPERTY
Conf_Id
SciTegic.value.IntegerValue
33

@<SCITEGIC>MOL_PROPERTY
Delta U+W
SciTegic.value.DoubleValue
0.015

@<SCITEGIC>MOL_PROPERTY
U+W
SciTegic.value.DoubleValue
3.025

@<SCITEGIC>MOL_PROPERTY
Grad RMS
SciTegic.value.DoubleValue
0.000000

@<SCITEGIC>MOL_PROPERTY
U
SciTegic.value.DoubleValue
5.843

@<SCITEGIC>MOL_PROPERTY
W
SciTegic.value.DoubleValue
-2.819

@<SCITEGIC>MOL_PROPERTY
W(PB)
SciTegic.value.DoubleValue
-4.568

@<SCITEGIC>MOL_PROPERTY
W(SA)
SciTegic.value.DoubleValue
1.750

@<SCITEGIC>MOL_PROPERTY
Valence
SciTegic.value.DoubleValue
13.789

@<SCITEGIC>MOL_PROPERTY
Coulomb
SciTegic.value.DoubleValue
-8.574

@<SCITEGIC>MOL_PROPERTY
VdW
SciTegic.value.DoubleValue
0.628

@<SCITEGIC>MOL_PROPERTY
VdW6
SciTegic.value.DoubleValue
-3.284

@<SCITEGIC>MOL_PROPERTY
VdW12
SciTegic.value.DoubleValue
3.913

@<SCITEGIC>MOL_PROPERTY
Bond
SciTegic.value.DoubleValue
0.054

@<SCITEGIC>MOL_PROPERTY
Angle
SciTegic.value.DoubleValue
4.033

@<SCITEGIC>MOL_PROPERTY
Pdih
SciTegic.value.DoubleValue
9.702

@<SCITEGIC>MOL_PROPERTY
Idih
SciTegic.value.DoubleValue
0.000

@<SCITEGIC>MOL_PROPERTY
Tether
SciTegic.value.DoubleValue
0.000

@<TRIPOS>MOLECULE
guest-4_confgen4.mol2 : confsearch ligand conformer 963
          16          16           1
SMALL
USER_CHARGES
 
@<TRIPOS>ATOM
       1    C1      18.491389   19.587042   22.047630 C.3        1 MOL1        -0.1689
       2    H1      17.839003   19.425841   21.178358 H          1 MOL1         0.0830
       3    H2      18.195827   20.536533   22.514649 H          1 MOL1         0.0830
       4    C2      19.968749   19.610833   21.598339 C.3        1 MOL1        -0.1689
       5    H3      20.031303   19.462209   20.511498 H          1 MOL1         0.0830
       6    H4      20.446298   20.572443   21.831262 H          1 MOL1         0.0830
       7    C3      20.669392   18.450299   22.336375 C.3        1 MOL1        -0.1765
       8    H5      21.180997   18.837824   23.227276 H          1 MOL1         0.0830
       9    H6      21.421033   17.951960   21.709717 H          1 MOL1         0.0830
      10    C4      19.554451   17.493157   22.778842 C.3        1 MOL1         0.1214
      11    H7      19.837873   16.931017   23.680316 H          1 MOL1         0.0787
      12    C5      18.355057   18.413788   23.041233 C.3        1 MOL1        -0.1765
      13    H8      17.396484   17.888378   22.935941 H          1 MOL1         0.0830
      14    H9      18.416131   18.794668   24.069251 H          1 MOL1         0.0830
      15    O1      19.242675   16.612144   21.709534 O.3        1 MOL1        -0.5512
      16    H10     19.005091   17.195628   20.959692 H          1 MOL1         0.3776
@<TRIPOS>BOND
    1     1     2    1
    2     1     3    1
    3     1     4    1
    4     4     5    1
    5     4     6    1
    6     4     7    1
    7     7     8    1
    8     7     9    1
    9     7    10    1
   10    10    11    1
   11     1    12    1
   12    10    12    1
   13    12    13    1
   14    12    14    1
   15    10    15    1
   16    15    16    1
@<TRIPOS>SUBSTRUCTURE
       1 MOL1            1 RESIDUE      1      MOL     
@<SCITEGIC>MOL_PROPERTY
VConf Rank
SciTegic.value.IntegerValue
963

@<SCITEGIC>MOL_PROPERTY
Conf_Id
SciTegic.value.IntegerValue
20

@<SCITEGIC>MOL_PROPERTY
Delta U+W
SciTegic.value.DoubleValue
-0.483

@<SCITEGIC>MOL_PROPERTY
U+W
SciTegic.value.DoubleValue
2.527

@<SCITEGIC>MOL_PROPERTY
Grad RMS
SciTegic.value.DoubleValue
0.000000

@<SCITEGIC>MOL_PROPERTY
U
SciTegic.value.DoubleValue
4.508

@<SCITEGIC>MOL_PROPERTY
W
SciTegic.value.DoubleValue
-1.981

@<SCITEGIC>MOL_PROPERTY
W(PB)
SciTegic.value.DoubleValue
-3.712

@<SCITEGIC>MOL_PROPERTY
W(SA)
SciTegic.value.DoubleValue
1.732

@<SCITEGIC>MOL_PROPERTY
Valence
SciTegic.value.DoubleValue
14.705

@<SCITEGIC>MOL_PROPERTY
Coulomb
SciTegic.value.DoubleValue
-10.687

@<SCITEGIC>MOL_PROPERTY
VdW
SciTegic.value.DoubleValue
0.490

@<SCITEGIC>MOL_PROPERTY
VdW6
SciTegic.value.DoubleValue
-3.745

@<SCITEGIC>MOL_PROPERTY
VdW12
SciTegic.value.DoubleValue
4.235

@<SCITEGIC>MOL_PROPERTY
Bond
SciTegic.value.DoubleValue
0.068

@<SCITEGIC>MOL_PROPERTY
Angle
SciTegic.value.DoubleValue
3.901

@<SCITEGIC>MOL_PROPERTY
Pdih
SciTegic.value.DoubleValue
10.737

@<SCITEGIC>MOL_PROPERTY
Idih
SciTegic.value.DoubleValue
0.000

@<SCITEGIC>MOL_PROPERTY
Tether
SciTegic.value.DoubleValue
0.000

@<TRIPOS>MOLECULE
guest-4_confgen4.mol2 : confsearch ligand conformer 964
          16          16           1
SMALL
USER_CHARGES
 
@<TRIPOS>ATOM
       1    C1      18.413441   17.904149   23.207967 C.3        1 MOL1        -0.1689
       2    H1      19.033090   17.304248   23.889018 H          1 MOL1         0.0830
       3    H2      17.364901   17.806141   23.520382 H          1 MOL1         0.0830
       4    C2      18.640321   17.439932   21.762714 C.3        1 MOL1        -0.1689
       5    H3      18.730173   16.347943   21.683691 H          1 MOL1         0.0830
       6    H4      17.798012   17.761735   21.134555 H          1 MOL1         0.0830
       7    C3      19.924772   18.166786   21.324050 C.3        1 MOL1        -0.1765
       8    H5      19.931413   18.351770   20.242115 H          1 MOL1         0.0830
       9    H6      20.795855   17.542310   21.564945 H          1 MOL1         0.0830
      10    C4      19.973796   19.484891   22.125220 C.3        1 MOL1         0.1214
      11    H7      19.731133   20.333428   21.469006 H          1 MOL1         0.0787
      12    C5      18.897080   19.365990   23.223573 C.3        1 MOL1        -0.1765
      13    H8      19.276703   19.655670   24.212509 H          1 MOL1         0.0830
      14    H9      18.060664   20.033443   22.978629 H          1 MOL1         0.0830
      15    O1      21.258011   19.654421   22.713386 O.3        1 MOL1        -0.5512
      16    H10     21.900202   19.712677   21.974651 H          1 MOL1         0.3776
@<TRIPOS>BOND
    1     1     2    1
    2     1     3    1
    3     1     4    1
    4     4     5    1
    5     4     6    1
    6     4     7    1
    7     7     8    1
    8     7     9    1
    9     7    10    1
   10    10    11    1
   11     1    12    1
   12    10    12    1
   13    12    13    1
   14    12    14    1
   15    10    15    1
   16    15    16    1
@<TRIPOS>SUBSTRUCTURE
       1 MOL1            1 RESIDUE      1      MOL     
@<SCITEGIC>MOL_PROPERTY
VConf Rank
SciTegic.value.IntegerValue
964

@<SCITEGIC>MOL_PROPERTY
Conf_Id
SciTegic.value.IntegerValue
59

@<SCITEGIC>MOL_PROPERTY
Delta U+W
SciTegic.value.DoubleValue
0.000

@<SCITEGIC>MOL_PROPERTY
U+W
SciTegic.value.DoubleValue
3.010

@<SCITEGIC>MOL_PROPERTY
Grad RMS
SciTegic.value.DoubleValue
0.000000

@<SCITEGIC>MOL_PROPERTY
U
SciTegic.value.DoubleValue
5.843

@<SCITEGIC>MOL_PROPERTY
W
SciTegic.value.DoubleValue
-2.833

@<SCITEGIC>MOL_PROPERTY
W(PB)
SciTegic.value.DoubleValue
-4.568

@<SCITEGIC>MOL_PROPERTY
W(SA)
SciTegic.value.DoubleValue
1.735

@<SCITEGIC>MOL_PROPERTY
Valence
SciTegic.value.DoubleValue
13.789

@<SCITEGIC>MOL_PROPERTY
Coulomb
SciTegic.value.DoubleValue
-8.574

@<SCITEGIC>MOL_PROPERTY
VdW
SciTegic.value.DoubleValue
0.628

@<SCITEGIC>MOL_PROPERTY
VdW6
SciTegic.value.DoubleValue
-3.284

@<SCITEGIC>MOL_PROPERTY
VdW12
SciTegic.value.DoubleValue
3.912

@<SCITEGIC>MOL_PROPERTY
Bond
SciTegic.value.DoubleValue
0.054

@<SCITEGIC>MOL_PROPERTY
Angle
SciTegic.value.DoubleValue
4.034

@<SCITEGIC>MOL_PROPERTY
Pdih
SciTegic.value.DoubleValue
9.702

@<SCITEGIC>MOL_PROPERTY
Idih
SciTegic.value.DoubleValue
0.000

@<SCITEGIC>MOL_PROPERTY
Tether
SciTegic.value.DoubleValue
0.000

@<TRIPOS>MOLECULE
guest-4_confgen4.mol2 : confsearch ligand conformer 965
          16          16           1
SMALL
USER_CHARGES
 
@<TRIPOS>ATOM
       1    C1      18.101353   18.658599   22.776189 C.3        1 MOL1        -0.1689
       2    H1      17.388129   19.386576   23.186213 H          1 MOL1         0.0830
       3    H2      17.564574   17.717331   22.593144 H          1 MOL1         0.0830
       4    C2      19.283554   18.403385   23.721172 C.3        1 MOL1        -0.1689
       5    H3      19.595076   19.349614   24.185158 H          1 MOL1         0.0830
       6    H4      19.035220   17.693060   24.521429 H          1 MOL1         0.0830
       7    C3      20.405839   17.885304   22.802942 C.3        1 MOL1        -0.1765
       8    H5      20.348344   16.791341   22.732068 H          1 MOL1         0.0830
       9    H6      21.399281   18.142716   23.193879 H          1 MOL1         0.0830
      10    C4      20.149506   18.493847   21.408752 C.3        1 MOL1         0.1214
      11    H7      20.156376   17.692387   20.655668 H          1 MOL1         0.0787
      12    C5      18.753454   19.148807   21.470405 C.3        1 MOL1        -0.1765
      13    H8      18.847243   20.242941   21.499647 H          1 MOL1         0.0830
      14    H9      18.145468   18.885851   20.595160 H          1 MOL1         0.0830
      15    O1      21.138212   19.472592   21.111404 O.3        1 MOL1        -0.5512
      16    H10     20.920986   19.831562   20.225129 H          1 MOL1         0.3776
@<TRIPOS>BOND
    1     1     2    1
    2     1     3    1
    3     1     4    1
    4     4     5    1
    5     4     6    1
    6     4     7    1
    7     7     8    1
    8     7     9    1
    9     7    10    1
   10    10    11    1
   11     1    12    1
   12    10    12    1
   13    12    13    1
   14    12    14    1
   15    10    15    1
   16    15    16    1
@<TRIPOS>SUBSTRUCTURE
       1 MOL1            1 RESIDUE      1      MOL     
@<SCITEGIC>MOL_PROPERTY
VConf Rank
SciTegic.value.IntegerValue
965

@<SCITEGIC>MOL_PROPERTY
Conf_Id
SciTegic.value.IntegerValue
33

@<SCITEGIC>MOL_PROPERTY
Delta U+W
SciTegic.value.DoubleValue
0.015

@<SCITEGIC>MOL_PROPERTY
U+W
SciTegic.value.DoubleValue
3.025

@<SCITEGIC>MOL_PROPERTY
Grad RMS
SciTegic.value.DoubleValue
0.000000

@<SCITEGIC>MOL_PROPERTY
U
SciTegic.value.DoubleValue
5.843

@<SCITEGIC>MOL_PROPERTY
W
SciTegic.value.DoubleValue
-2.819

@<SCITEGIC>MOL_PROPERTY
W(PB)
SciTegic.value.DoubleValue
-4.568

@<SCITEGIC>MOL_PROPERTY
W(SA)
SciTegic.value.DoubleValue
1.750

@<SCITEGIC>MOL_PROPERTY
Valence
SciTegic.value.DoubleValue
13.789

@<SCITEGIC>MOL_PROPERTY
Coulomb
SciTegic.value.DoubleValue
-8.574

@<SCITEGIC>MOL_PROPERTY
VdW
SciTegic.value.DoubleValue
0.628

@<SCITEGIC>MOL_PROPERTY
VdW6
SciTegic.value.DoubleValue
-3.284

@<SCITEGIC>MOL_PROPERTY
VdW12
SciTegic.value.DoubleValue
3.913

@<SCITEGIC>MOL_PROPERTY
Bond
SciTegic.value.DoubleValue
0.054

@<SCITEGIC>MOL_PROPERTY
Angle
SciTegic.value.DoubleValue
4.033

@<SCITEGIC>MOL_PROPERTY
Pdih
SciTegic.value.DoubleValue
9.702

@<SCITEGIC>MOL_PROPERTY
Idih
SciTegic.value.DoubleValue
0.000

@<SCITEGIC>MOL_PROPERTY
Tether
SciTegic.value.DoubleValue
0.000

@<TRIPOS>MOLECULE
guest-4_confgen4.mol2 : confsearch ligand conformer 966
          16          16           1
SMALL
USER_CHARGES
 
@<TRIPOS>ATOM
       1    C1      18.705067   18.687035   23.409597 C.3        1 MOL1        -0.1689
       2    H1      19.326215   18.937417   24.280637 H          1 MOL1         0.0830
       3    H2      17.667866   18.586697   23.757655 H          1 MOL1         0.0830
       4    C2      19.214424   17.382379   22.758868 C.3        1 MOL1        -0.1689
       5    H3      20.081414   17.000781   23.315589 H          1 MOL1         0.0830
       6    H4      18.443301   16.599868   22.765614 H          1 MOL1         0.0830
       7    C3      19.624824   17.744391   21.315623 C.3        1 MOL1        -0.1765
       8    H5      18.808348   17.489422   20.627162 H          1 MOL1         0.0830
       9    H6      20.520288   17.199357   20.988383 H          1 MOL1         0.0830
      10    C4      19.832193   19.264848   21.301316 C.3        1 MOL1         0.1214
      11    H7      19.645998   19.689238   20.304216 H          1 MOL1         0.0787
      12    C5      18.825650   19.788170   22.334739 C.3        1 MOL1        -0.1765
      13    H8      19.130270   20.753653   22.760241 H          1 MOL1         0.0830
      14    H9      17.853340   19.930781   21.844947 H          1 MOL1         0.0830
      15    O1      21.149906   19.561310   21.740118 O.3        1 MOL1        -0.5512
      16    H10     21.222650   19.148416   22.625211 H          1 MOL1         0.3776
@<TRIPOS>BOND
    1     1     2    1
    2     1     3    1
    3     1     4    1
    4     4     5    1
    5     4     6    1
    6     4     7    1
    7     7     8    1
    8     7     9    1
    9     7    10    1
   10    10    11    1
   11     1    12    1
   12    10    12    1
   13    12    13    1
   14    12    14    1
   15    10    15    1
   16    15    16    1
@<TRIPOS>SUBSTRUCTURE
       1 MOL1            1 RESIDUE      1      MOL     
@<SCITEGIC>MOL_PROPERTY
VConf Rank
SciTegic.value.IntegerValue
966

@<SCITEGIC>MOL_PROPERTY
Conf_Id
SciTegic.value.IntegerValue
20

@<SCITEGIC>MOL_PROPERTY
Delta U+W
SciTegic.value.DoubleValue
-0.483

@<SCITEGIC>MOL_PROPERTY
U+W
SciTegic.value.DoubleValue
2.527

@<SCITEGIC>MOL_PROPERTY
Grad RMS
SciTegic.value.DoubleValue
0.000000

@<SCITEGIC>MOL_PROPERTY
U
SciTegic.value.DoubleValue
4.508

@<SCITEGIC>MOL_PROPERTY
W
SciTegic.value.DoubleValue
-1.981

@<SCITEGIC>MOL_PROPERTY
W(PB)
SciTegic.value.DoubleValue
-3.712

@<SCITEGIC>MOL_PROPERTY
W(SA)
SciTegic.value.DoubleValue
1.732

@<SCITEGIC>MOL_PROPERTY
Valence
SciTegic.value.DoubleValue
14.705

@<SCITEGIC>MOL_PROPERTY
Coulomb
SciTegic.value.DoubleValue
-10.687

@<SCITEGIC>MOL_PROPERTY
VdW
SciTegic.value.DoubleValue
0.490

@<SCITEGIC>MOL_PROPERTY
VdW6
SciTegic.value.DoubleValue
-3.745

@<SCITEGIC>MOL_PROPERTY
VdW12
SciTegic.value.DoubleValue
4.235

@<SCITEGIC>MOL_PROPERTY
Bond
SciTegic.value.DoubleValue
0.068

@<SCITEGIC>MOL_PROPERTY
Angle
SciTegic.value.DoubleValue
3.901

@<SCITEGIC>MOL_PROPERTY
Pdih
SciTegic.value.DoubleValue
10.737

@<SCITEGIC>MOL_PROPERTY
Idih
SciTegic.value.DoubleValue
0.000

@<SCITEGIC>MOL_PROPERTY
Tether
SciTegic.value.DoubleValue
0.000

@<TRIPOS>MOLECULE
guest-4_confgen4.mol2 : confsearch ligand conformer 967
          16          16           1
SMALL
USER_CHARGES
 
@<TRIPOS>ATOM
       1    C1      18.813003   18.500376   20.967414 C.3        1 MOL1        -0.1689
       2    H1      18.473765   19.524252   20.757003 H          1 MOL1         0.0830
       3    H2      18.652066   17.892603   20.066661 H          1 MOL1         0.0830
       4    C2      18.061942   17.950253   22.187659 C.3        1 MOL1        -0.1689
       5    H3      17.002911   18.242115   22.193131 H          1 MOL1         0.0830
       6    H4      18.115881   16.852662   22.190985 H          1 MOL1         0.0830
       7    C3      18.831118   18.513269   23.396765 C.3        1 MOL1        -0.1765
       8    H5      18.760624   17.844096   24.263993 H          1 MOL1         0.0830
       9    H6      18.399833   19.482380   23.682428 H          1 MOL1         0.0830
      10    C4      20.293134   18.693403   22.936613 C.3        1 MOL1         0.1214
      11    H7      20.927604   17.915381   23.385665 H          1 MOL1         0.0787
      12    C5      20.289716   18.525753   21.403082 C.3        1 MOL1        -0.1765
      13    H8      20.847360   19.323991   20.895273 H          1 MOL1         0.0830
      14    H9      20.766076   17.570632   21.146362 H          1 MOL1         0.0830
      15    O1      20.762001   19.989943   23.287379 O.3        1 MOL1        -0.5512
      16    H10     20.732533   20.044426   24.265999 H          1 MOL1         0.3776
@<TRIPOS>BOND
    1     1     2    1
    2     1     3    1
    3     1     4    1
    4     4     5    1
    5     4     6    1
    6     4     7    1
    7     7     8    1
    8     7     9    1
    9     7    10    1
   10    10    11    1
   11     1    12    1
   12    10    12    1
   13    12    13    1
   14    12    14    1
   15    10    15    1
   16    15    16    1
@<TRIPOS>SUBSTRUCTURE
       1 MOL1            1 RESIDUE      1      MOL     
@<SCITEGIC>MOL_PROPERTY
VConf Rank
SciTegic.value.IntegerValue
967

@<SCITEGIC>MOL_PROPERTY
Conf_Id
SciTegic.value.IntegerValue
59

@<SCITEGIC>MOL_PROPERTY
Delta U+W
SciTegic.value.DoubleValue
0.000

@<SCITEGIC>MOL_PROPERTY
U+W
SciTegic.value.DoubleValue
3.010

@<SCITEGIC>MOL_PROPERTY
Grad RMS
SciTegic.value.DoubleValue
0.000000

@<SCITEGIC>MOL_PROPERTY
U
SciTegic.value.DoubleValue
5.843

@<SCITEGIC>MOL_PROPERTY
W
SciTegic.value.DoubleValue
-2.833

@<SCITEGIC>MOL_PROPERTY
W(PB)
SciTegic.value.DoubleValue
-4.568

@<SCITEGIC>MOL_PROPERTY
W(SA)
SciTegic.value.DoubleValue
1.735

@<SCITEGIC>MOL_PROPERTY
Valence
SciTegic.value.DoubleValue
13.789

@<SCITEGIC>MOL_PROPERTY
Coulomb
SciTegic.value.DoubleValue
-8.574

@<SCITEGIC>MOL_PROPERTY
VdW
SciTegic.value.DoubleValue
0.628

@<SCITEGIC>MOL_PROPERTY
VdW6
SciTegic.value.DoubleValue
-3.284

@<SCITEGIC>MOL_PROPERTY
VdW12
SciTegic.value.DoubleValue
3.912

@<SCITEGIC>MOL_PROPERTY
Bond
SciTegic.value.DoubleValue
0.054

@<SCITEGIC>MOL_PROPERTY
Angle
SciTegic.value.DoubleValue
4.034

@<SCITEGIC>MOL_PROPERTY
Pdih
SciTegic.value.DoubleValue
9.702

@<SCITEGIC>MOL_PROPERTY
Idih
SciTegic.value.DoubleValue
0.000

@<SCITEGIC>MOL_PROPERTY
Tether
SciTegic.value.DoubleValue
0.000

@<TRIPOS>MOLECULE
guest-4_confgen4.mol2 : confsearch ligand conformer 968
          16          16           1
SMALL
USER_CHARGES
 
@<TRIPOS>ATOM
       1    C1      18.661811   19.499622   23.097789 C.3        1 MOL1        -0.1689
       2    H1      18.714710   20.513812   23.516574 H          1 MOL1         0.0830
       3    H2      17.649895   19.108208   23.272264 H          1 MOL1         0.0830
       4    C2      19.696099   18.554428   23.724353 C.3        1 MOL1        -0.1689
       5    H3      20.643351   19.091395   23.872874 H          1 MOL1         0.0830
       6    H4      19.368859   18.158811   24.695457 H          1 MOL1         0.0830
       7    C3      19.891096   17.445761   22.673682 C.3        1 MOL1        -0.1765
       8    H5      19.176274   16.633344   22.858323 H          1 MOL1         0.0830
       9    H6      20.901576   17.018186   22.719828 H          1 MOL1         0.0830
      10    C4      19.586446   18.081641   21.301588 C.3        1 MOL1         0.1214
      11    H7      18.857673   17.456550   20.765240 H          1 MOL1         0.0787
      12    C5      18.979059   19.470456   21.591431 C.3        1 MOL1        -0.1765
      13    H8      19.706124   20.260169   21.357952 H          1 MOL1         0.0830
      14    H9      18.079754   19.651254   20.988597 H          1 MOL1         0.0830
      15    O1      20.784807   18.217718   20.547060 O.3        1 MOL1        -0.5512
      16    H10     20.535081   18.634556   19.695349 H          1 MOL1         0.3776
@<TRIPOS>BOND
    1     1     2    1
    2     1     3    1
    3     1     4    1
    4     4     5    1
    5     4     6    1
    6     4     7    1
    7     7     8    1
    8     7     9    1
    9     7    10    1
   10    10    11    1
   11     1    12    1
   12    10    12    1
   13    12    13    1
   14    12    14    1
   15    10    15    1
   16    15    16    1
@<TRIPOS>SUBSTRUCTURE
       1 MOL1            1 RESIDUE      1      MOL     
@<SCITEGIC>MOL_PROPERTY
VConf Rank
SciTegic.value.IntegerValue
968

@<SCITEGIC>MOL_PROPERTY
Conf_Id
SciTegic.value.IntegerValue
33

@<SCITEGIC>MOL_PROPERTY
Delta U+W
SciTegic.value.DoubleValue
0.015

@<SCITEGIC>MOL_PROPERTY
U+W
SciTegic.value.DoubleValue
3.025

@<SCITEGIC>MOL_PROPERTY
Grad RMS
SciTegic.value.DoubleValue
0.000000

@<SCITEGIC>MOL_PROPERTY
U
SciTegic.value.DoubleValue
5.843

@<SCITEGIC>MOL_PROPERTY
W
SciTegic.value.DoubleValue
-2.819

@<SCITEGIC>MOL_PROPERTY
W(PB)
SciTegic.value.DoubleValue
-4.568

@<SCITEGIC>MOL_PROPERTY
W(SA)
SciTegic.value.DoubleValue
1.750

@<SCITEGIC>MOL_PROPERTY
Valence
SciTegic.value.DoubleValue
13.789

@<SCITEGIC>MOL_PROPERTY
Coulomb
SciTegic.value.DoubleValue
-8.574

@<SCITEGIC>MOL_PROPERTY
VdW
SciTegic.value.DoubleValue
0.628

@<SCITEGIC>MOL_PROPERTY
VdW6
SciTegic.value.DoubleValue
-3.284

@<SCITEGIC>MOL_PROPERTY
VdW12
SciTegic.value.DoubleValue
3.913

@<SCITEGIC>MOL_PROPERTY
Bond
SciTegic.value.DoubleValue
0.054

@<SCITEGIC>MOL_PROPERTY
Angle
SciTegic.value.DoubleValue
4.033

@<SCITEGIC>MOL_PROPERTY
Pdih
SciTegic.value.DoubleValue
9.702

@<SCITEGIC>MOL_PROPERTY
Idih
SciTegic.value.DoubleValue
0.000

@<SCITEGIC>MOL_PROPERTY
Tether
SciTegic.value.DoubleValue
0.000

@<TRIPOS>MOLECULE
guest-4_confgen4.mol2 : confsearch ligand conformer 969
          16          16           1
SMALL
USER_CHARGES
 
@<TRIPOS>ATOM
       1    C1      18.050897   18.761917   22.269007 C.3        1 MOL1        -0.1689
       2    H1      17.682909   19.470045   23.024234 H          1 MOL1         0.0830
       3    H2      17.181235   18.386174   21.712677 H          1 MOL1         0.0830
       4    C2      18.823828   17.615279   22.956625 C.3        1 MOL1        -0.1689
       5    H3      18.829011   17.767899   24.044700 H          1 MOL1         0.0830
       6    H4      18.359053   16.639582   22.759142 H          1 MOL1         0.0830
       7    C3      20.264264   17.665581   22.404311 C.3        1 MOL1        -0.1765
       8    H5      20.371869   16.933508   21.593070 H          1 MOL1         0.0830
       9    H6      21.012805   17.426589   23.171497 H          1 MOL1         0.0830
      10    C4      20.450396   19.076515   21.830193 C.3        1 MOL1         0.1214
      11    H7      21.191080   19.088252   21.017646 H          1 MOL1         0.0787
      12    C5      19.052973   19.461271   21.326083 C.3        1 MOL1        -0.1765
      13    H8      18.906553   20.549233   21.296009 H          1 MOL1         0.0830
      14    H9      18.924390   19.078502   20.305017 H          1 MOL1         0.0830
      15    O1      20.830417   19.960191   22.874946 O.3        1 MOL1        -0.5512
      16    H10     20.120072   19.883224   23.544759 H          1 MOL1         0.3776
@<TRIPOS>BOND
    1     1     2    1
    2     1     3    1
    3     1     4    1
    4     4     5    1
    5     4     6    1
    6     4     7    1
    7     7     8    1
    8     7     9    1
    9     7    10    1
   10    10    11    1
   11     1    12    1
   12    10    12    1
   13    12    13    1
   14    12    14    1
   15    10    15    1
   16    15    16    1
@<TRIPOS>SUBSTRUCTURE
       1 MOL1            1 RESIDUE      1      MOL     
@<SCITEGIC>MOL_PROPERTY
VConf Rank
SciTegic.value.IntegerValue
969

@<SCITEGIC>MOL_PROPERTY
Conf_Id
SciTegic.value.IntegerValue
20

@<SCITEGIC>MOL_PROPERTY
Delta U+W
SciTegic.value.DoubleValue
-0.483

@<SCITEGIC>MOL_PROPERTY
U+W
SciTegic.value.DoubleValue
2.527

@<SCITEGIC>MOL_PROPERTY
Grad RMS
SciTegic.value.DoubleValue
0.000000

@<SCITEGIC>MOL_PROPERTY
U
SciTegic.value.DoubleValue
4.508

@<SCITEGIC>MOL_PROPERTY
W
SciTegic.value.DoubleValue
-1.981

@<SCITEGIC>MOL_PROPERTY
W(PB)
SciTegic.value.DoubleValue
-3.712

@<SCITEGIC>MOL_PROPERTY
W(SA)
SciTegic.value.DoubleValue
1.732

@<SCITEGIC>MOL_PROPERTY
Valence
SciTegic.value.DoubleValue
14.705

@<SCITEGIC>MOL_PROPERTY
Coulomb
SciTegic.value.DoubleValue
-10.687

@<SCITEGIC>MOL_PROPERTY
VdW
SciTegic.value.DoubleValue
0.490

@<SCITEGIC>MOL_PROPERTY
VdW6
SciTegic.value.DoubleValue
-3.745

@<SCITEGIC>MOL_PROPERTY
VdW12
SciTegic.value.DoubleValue
4.235

@<SCITEGIC>MOL_PROPERTY
Bond
SciTegic.value.DoubleValue
0.068

@<SCITEGIC>MOL_PROPERTY
Angle
SciTegic.value.DoubleValue
3.901

@<SCITEGIC>MOL_PROPERTY
Pdih
SciTegic.value.DoubleValue
10.737

@<SCITEGIC>MOL_PROPERTY
Idih
SciTegic.value.DoubleValue
0.000

@<SCITEGIC>MOL_PROPERTY
Tether
SciTegic.value.DoubleValue
0.000

@<TRIPOS>MOLECULE
guest-4_confgen4.mol2 : confsearch ligand conformer 970
          16          16           1
SMALL
USER_CHARGES
 
@<TRIPOS>ATOM
       1    C1      19.130268   19.961481   22.029413 C.3        1 MOL1        -0.1689
       2    H1      18.805001   20.395819   22.985044 H          1 MOL1         0.0830
       3    H2      19.199606   20.770496   21.289595 H          1 MOL1         0.0830
       4    C2      18.148766   18.860785   21.604147 C.3        1 MOL1        -0.1689
       5    H3      17.104240   19.128068   21.814587 H          1 MOL1         0.0830
       6    H4      18.245460   18.675971   20.525203 H          1 MOL1         0.0830
       7    C3      18.604729   17.616911   22.388642 C.3        1 MOL1        -0.1765
       8    H5      18.369740   16.692096   21.846108 H          1 MOL1         0.0830
       9    H6      18.081252   17.584151   23.353880 H          1 MOL1         0.0830
      10    C4      20.123964   17.774693   22.609343 C.3        1 MOL1         0.1214
      11    H7      20.673384   17.084935   21.952161 H          1 MOL1         0.0787
      12    C5      20.470044   19.228274   22.225723 C.3        1 MOL1        -0.1765
      13    H8      21.093891   19.721909   22.982797 H          1 MOL1         0.0830
      14    H9      21.030381   19.225615   21.281744 H          1 MOL1         0.0830
      15    O1      20.449183   17.536634   23.973693 O.3        1 MOL1        -0.5512
      16    H10     20.199657   16.607695   24.164331 H          1 MOL1         0.3776
@<TRIPOS>BOND
    1     1     2    1
    2     1     3    1
    3     1     4    1
    4     4     5    1
    5     4     6    1
    6     4     7    1
    7     7     8    1
    8     7     9    1
    9     7    10    1
   10    10    11    1
   11     1    12    1
   12    10    12    1
   13    12    13    1
   14    12    14    1
   15    10    15    1
   16    15    16    1
@<TRIPOS>SUBSTRUCTURE
       1 MOL1            1 RESIDUE      1      MOL     
@<SCITEGIC>MOL_PROPERTY
VConf Rank
SciTegic.value.IntegerValue
970

@<SCITEGIC>MOL_PROPERTY
Conf_Id
SciTegic.value.IntegerValue
59

@<SCITEGIC>MOL_PROPERTY
Delta U+W
SciTegic.value.DoubleValue
0.000

@<SCITEGIC>MOL_PROPERTY
U+W
SciTegic.value.DoubleValue
3.010

@<SCITEGIC>MOL_PROPERTY
Grad RMS
SciTegic.value.DoubleValue
0.000000

@<SCITEGIC>MOL_PROPERTY
U
SciTegic.value.DoubleValue
5.843

@<SCITEGIC>MOL_PROPERTY
W
SciTegic.value.DoubleValue
-2.833

@<SCITEGIC>MOL_PROPERTY
W(PB)
SciTegic.value.DoubleValue
-4.568

@<SCITEGIC>MOL_PROPERTY
W(SA)
SciTegic.value.DoubleValue
1.735

@<SCITEGIC>MOL_PROPERTY
Valence
SciTegic.value.DoubleValue
13.789

@<SCITEGIC>MOL_PROPERTY
Coulomb
SciTegic.value.DoubleValue
-8.574

@<SCITEGIC>MOL_PROPERTY
VdW
SciTegic.value.DoubleValue
0.628

@<SCITEGIC>MOL_PROPERTY
VdW6
SciTegic.value.DoubleValue
-3.284

@<SCITEGIC>MOL_PROPERTY
VdW12
SciTegic.value.DoubleValue
3.912

@<SCITEGIC>MOL_PROPERTY
Bond
SciTegic.value.DoubleValue
0.054

@<SCITEGIC>MOL_PROPERTY
Angle
SciTegic.value.DoubleValue
4.034

@<SCITEGIC>MOL_PROPERTY
Pdih
SciTegic.value.DoubleValue
9.702

@<SCITEGIC>MOL_PROPERTY
Idih
SciTegic.value.DoubleValue
0.000

@<SCITEGIC>MOL_PROPERTY
Tether
SciTegic.value.DoubleValue
0.000

@<TRIPOS>MOLECULE
guest-4_confgen4.mol2 : confsearch ligand conformer 971
          16          16           1
SMALL
USER_CHARGES
 
@<TRIPOS>ATOM
       1    C1      19.244914   19.644639   21.316787 C.3        1 MOL1        -0.1689
       2    H1      19.803237   20.458044   20.833665 H          1 MOL1         0.0830
       3    H2      18.275195   19.544946   20.809512 H          1 MOL1         0.0830
       4    C2      19.020748   19.898953   22.813718 C.3        1 MOL1        -0.1689
       5    H3      19.924670   20.345685   23.250792 H          1 MOL1         0.0830
       6    H4      18.176530   20.575946   23.002450 H          1 MOL1         0.0830
       7    C3      18.796247   18.498417   23.413029 C.3        1 MOL1        -0.1765
       8    H5      17.725996   18.255237   23.390435 H          1 MOL1         0.0830
       9    H6      19.127962   18.448169   24.458715 H          1 MOL1         0.0830
      10    C4      19.556710   17.506186   22.509163 C.3        1 MOL1         0.1214
      11    H7      18.879205   16.692188   22.212658 H          1 MOL1         0.0787
      12    C5      20.000262   18.303985   21.264770 C.3        1 MOL1        -0.1765
      13    H8      21.081548   18.494614   21.300297 H          1 MOL1         0.0830
      14    H9      19.784534   17.757819   20.337403 H          1 MOL1         0.0830
      15    O1      20.693073   16.991497   23.193028 O.3        1 MOL1        -0.5512
      16    H10     21.141784   16.379587   22.571937 H          1 MOL1         0.3776
@<TRIPOS>BOND
    1     1     2    1
    2     1     3    1
    3     1     4    1
    4     4     5    1
    5     4     6    1
    6     4     7    1
    7     7     8    1
    8     7     9    1
    9     7    10    1
   10    10    11    1
   11     1    12    1
   12    10    12    1
   13    12    13    1
   14    12    14    1
   15    10    15    1
   16    15    16    1
@<TRIPOS>SUBSTRUCTURE
       1 MOL1            1 RESIDUE      1      MOL     
@<SCITEGIC>MOL_PROPERTY
VConf Rank
SciTegic.value.IntegerValue
971

@<SCITEGIC>MOL_PROPERTY
Conf_Id
SciTegic.value.IntegerValue
33

@<SCITEGIC>MOL_PROPERTY
Delta U+W
SciTegic.value.DoubleValue
0.015

@<SCITEGIC>MOL_PROPERTY
U+W
SciTegic.value.DoubleValue
3.025

@<SCITEGIC>MOL_PROPERTY
Grad RMS
SciTegic.value.DoubleValue
0.000000

@<SCITEGIC>MOL_PROPERTY
U
SciTegic.value.DoubleValue
5.843

@<SCITEGIC>MOL_PROPERTY
W
SciTegic.value.DoubleValue
-2.819

@<SCITEGIC>MOL_PROPERTY
W(PB)
SciTegic.value.DoubleValue
-4.568

@<SCITEGIC>MOL_PROPERTY
W(SA)
SciTegic.value.DoubleValue
1.750

@<SCITEGIC>MOL_PROPERTY
Valence
SciTegic.value.DoubleValue
13.789

@<SCITEGIC>MOL_PROPERTY
Coulomb
SciTegic.value.DoubleValue
-8.574

@<SCITEGIC>MOL_PROPERTY
VdW
SciTegic.value.DoubleValue
0.628

@<SCITEGIC>MOL_PROPERTY
VdW6
SciTegic.value.DoubleValue
-3.284

@<SCITEGIC>MOL_PROPERTY
VdW12
SciTegic.value.DoubleValue
3.913

@<SCITEGIC>MOL_PROPERTY
Bond
SciTegic.value.DoubleValue
0.054

@<SCITEGIC>MOL_PROPERTY
Angle
SciTegic.value.DoubleValue
4.033

@<SCITEGIC>MOL_PROPERTY
Pdih
SciTegic.value.DoubleValue
9.702

@<SCITEGIC>MOL_PROPERTY
Idih
SciTegic.value.DoubleValue
0.000

@<SCITEGIC>MOL_PROPERTY
Tether
SciTegic.value.DoubleValue
0.000

@<TRIPOS>MOLECULE
guest-4_confgen4.mol2 : confsearch ligand conformer 972
          16          16           1
SMALL
USER_CHARGES
 
@<TRIPOS>ATOM
       1    C1      18.752524   18.603185   21.077701 C.3        1 MOL1        -0.1689
       2    H1      19.352680   18.996183   20.245479 H          1 MOL1         0.0830
       3    H2      17.780699   18.292540   20.670207 H          1 MOL1         0.0830
       4    C2      18.591650   19.686399   22.166640 C.3        1 MOL1        -0.1689
       5    H3      19.113043   20.603972   21.860964 H          1 MOL1         0.0830
       6    H4      17.535563   19.941661   22.329495 H          1 MOL1         0.0830
       7    C3      19.228434   19.113937   23.450863 C.3        1 MOL1        -0.1765
       8    H5      18.444092   18.689969   24.091705 H          1 MOL1         0.0830
       9    H6      19.755816   19.882103   24.032065 H          1 MOL1         0.0830
      10    C4      20.163562   17.985707   22.995204 C.3        1 MOL1         0.1214
      11    H7      20.283582   17.219892   23.775016 H          1 MOL1         0.0787
      12    C5      19.479384   17.416352   21.745128 C.3        1 MOL1        -0.1765
      13    H8      20.192106   16.929614   21.066071 H          1 MOL1         0.0830
      14    H9      18.743511   16.662107   22.053716 H          1 MOL1         0.0830
      15    O1      21.419833   18.538249   22.630119 O.3        1 MOL1        -0.5512
      16    H10     21.215274   19.201893   21.939543 H          1 MOL1         0.3776
@<TRIPOS>BOND
    1     1     2    1
    2     1     3    1
    3     1     4    1
    4     4     5    1
    5     4     6    1
    6     4     7    1
    7     7     8    1
    8     7     9    1
    9     7    10    1
   10    10    11    1
   11     1    12    1
   12    10    12    1
   13    12    13    1
   14    12    14    1
   15    10    15    1
   16    15    16    1
@<TRIPOS>SUBSTRUCTURE
       1 MOL1            1 RESIDUE      1      MOL     
@<SCITEGIC>MOL_PROPERTY
VConf Rank
SciTegic.value.IntegerValue
972

@<SCITEGIC>MOL_PROPERTY
Conf_Id
SciTegic.value.IntegerValue
20

@<SCITEGIC>MOL_PROPERTY
Delta U+W
SciTegic.value.DoubleValue
-0.483

@<SCITEGIC>MOL_PROPERTY
U+W
SciTegic.value.DoubleValue
2.527

@<SCITEGIC>MOL_PROPERTY
Grad RMS
SciTegic.value.DoubleValue
0.000000

@<SCITEGIC>MOL_PROPERTY
U
SciTegic.value.DoubleValue
4.508

@<SCITEGIC>MOL_PROPERTY
W
SciTegic.value.DoubleValue
-1.981

@<SCITEGIC>MOL_PROPERTY
W(PB)
SciTegic.value.DoubleValue
-3.712

@<SCITEGIC>MOL_PROPERTY
W(SA)
SciTegic.value.DoubleValue
1.732

@<SCITEGIC>MOL_PROPERTY
Valence
SciTegic.value.DoubleValue
14.705

@<SCITEGIC>MOL_PROPERTY
Coulomb
SciTegic.value.DoubleValue
-10.687

@<SCITEGIC>MOL_PROPERTY
VdW
SciTegic.value.DoubleValue
0.490

@<SCITEGIC>MOL_PROPERTY
VdW6
SciTegic.value.DoubleValue
-3.745

@<SCITEGIC>MOL_PROPERTY
VdW12
SciTegic.value.DoubleValue
4.235

@<SCITEGIC>MOL_PROPERTY
Bond
SciTegic.value.DoubleValue
0.068

@<SCITEGIC>MOL_PROPERTY
Angle
SciTegic.value.DoubleValue
3.901

@<SCITEGIC>MOL_PROPERTY
Pdih
SciTegic.value.DoubleValue
10.737

@<SCITEGIC>MOL_PROPERTY
Idih
SciTegic.value.DoubleValue
0.000

@<SCITEGIC>MOL_PROPERTY
Tether
SciTegic.value.DoubleValue
0.000

@<TRIPOS>MOLECULE
guest-4_confgen4.mol2 : confsearch ligand conformer 973
          16          16           1
SMALL
USER_CHARGES
 
@<TRIPOS>ATOM
       1    C1      19.691531   17.365677   23.082394 C.3        1 MOL1        -0.1689
       2    H1      20.287339   17.732810   23.929686 H          1 MOL1         0.0830
       3    H2      19.553729   16.282500   23.202321 H          1 MOL1         0.0830
       4    C2      20.393765   17.725038   21.765787 C.3        1 MOL1        -0.1689
       5    H3      21.483897   17.604090   21.826967 H          1 MOL1         0.0830
       6    H4      20.021000   17.078107   20.959467 H          1 MOL1         0.0830
       7    C3      19.980255   19.183522   21.496733 C.3        1 MOL1        -0.1765
       8    H5      19.958573   19.402441   20.421349 H          1 MOL1         0.0830
       9    H6      20.708932   19.859810   21.964119 H          1 MOL1         0.0830
      10    C4      18.590098   19.367374   22.141201 C.3        1 MOL1         0.1214
      11    H7      17.816266   19.410574   21.360921 H          1 MOL1         0.0787
      12    C5      18.353438   18.125532   23.025313 C.3        1 MOL1        -0.1765
      13    H8      17.995935   18.390629   24.029273 H          1 MOL1         0.0830
      14    H9      17.589740   17.492064   22.555670 H          1 MOL1         0.0830
      15    O1      18.569725   20.546852   22.936377 O.3        1 MOL1        -0.5512
      16    H10     18.735343   21.298513   22.328834 H          1 MOL1         0.3776
@<TRIPOS>BOND
    1     1     2    1
    2     1     3    1
    3     1     4    1
    4     4     5    1
    5     4     6    1
    6     4     7    1
    7     7     8    1
    8     7     9    1
    9     7    10    1
   10    10    11    1
   11     1    12    1
   12    10    12    1
   13    12    13    1
   14    12    14    1
   15    10    15    1
   16    15    16    1
@<TRIPOS>SUBSTRUCTURE
       1 MOL1            1 RESIDUE      1      MOL     
@<SCITEGIC>MOL_PROPERTY
VConf Rank
SciTegic.value.IntegerValue
973

@<SCITEGIC>MOL_PROPERTY
Conf_Id
SciTegic.value.IntegerValue
59

@<SCITEGIC>MOL_PROPERTY
Delta U+W
SciTegic.value.DoubleValue
0.000

@<SCITEGIC>MOL_PROPERTY
U+W
SciTegic.value.DoubleValue
3.010

@<SCITEGIC>MOL_PROPERTY
Grad RMS
SciTegic.value.DoubleValue
0.000000

@<SCITEGIC>MOL_PROPERTY
U
SciTegic.value.DoubleValue
5.843

@<SCITEGIC>MOL_PROPERTY
W
SciTegic.value.DoubleValue
-2.833

@<SCITEGIC>MOL_PROPERTY
W(PB)
SciTegic.value.DoubleValue
-4.568

@<SCITEGIC>MOL_PROPERTY
W(SA)
SciTegic.value.DoubleValue
1.735

@<SCITEGIC>MOL_PROPERTY
Valence
SciTegic.value.DoubleValue
13.789

@<SCITEGIC>MOL_PROPERTY
Coulomb
SciTegic.value.DoubleValue
-8.574

@<SCITEGIC>MOL_PROPERTY
VdW
SciTegic.value.DoubleValue
0.628

@<SCITEGIC>MOL_PROPERTY
VdW6
SciTegic.value.DoubleValue
-3.284

@<SCITEGIC>MOL_PROPERTY
VdW12
SciTegic.value.DoubleValue
3.912

@<SCITEGIC>MOL_PROPERTY
Bond
SciTegic.value.DoubleValue
0.054

@<SCITEGIC>MOL_PROPERTY
Angle
SciTegic.value.DoubleValue
4.034

@<SCITEGIC>MOL_PROPERTY
Pdih
SciTegic.value.DoubleValue
9.702

@<SCITEGIC>MOL_PROPERTY
Idih
SciTegic.value.DoubleValue
0.000

@<SCITEGIC>MOL_PROPERTY
Tether
SciTegic.value.DoubleValue
0.000

@<TRIPOS>MOLECULE
guest-4_confgen4.mol2 : confsearch ligand conformer 974
          16          16           1
SMALL
USER_CHARGES
 
@<TRIPOS>ATOM
       1    C1      19.545907   19.715616   21.378990 C.3        1 MOL1        -0.1689
       2    H1      18.997085   20.141135   20.527822 H          1 MOL1         0.0830
       3    H2      20.339543   20.420615   21.663136 H          1 MOL1         0.0830
       4    C2      20.162478   18.348694   21.051744 C.3        1 MOL1        -0.1689
       5    H3      19.460093   17.764596   20.440872 H          1 MOL1         0.0830
       6    H4      21.108128   18.436314   20.499736 H          1 MOL1         0.0830
       7    C3      20.342576   17.669365   22.421836 C.3        1 MOL1        -0.1765
       8    H5      21.333205   17.913715   22.826844 H          1 MOL1         0.0830
       9    H6      20.274523   16.576115   22.343136 H          1 MOL1         0.0830
      10    C4      19.260372   18.258089   23.350295 C.3        1 MOL1         0.1214
      11    H7      19.731895   18.613714   24.278043 H          1 MOL1         0.0787
      12    C5      18.632567   19.444350   22.588467 C.3        1 MOL1        -0.1765
      13    H8      17.627657   19.179218   22.232599 H          1 MOL1         0.0830
      14    H9      18.540430   20.331394   23.228398 H          1 MOL1         0.0830
      15    O1      18.269872   17.276829   23.633021 O.3        1 MOL1        -0.5512
      16    H10     17.606285   17.706152   24.213420 H          1 MOL1         0.3776
@<TRIPOS>BOND
    1     1     2    1
    2     1     3    1
    3     1     4    1
    4     4     5    1
    5     4     6    1
    6     4     7    1
    7     7     8    1
    8     7     9    1
    9     7    10    1
   10    10    11    1
   11     1    12    1
   12    10    12    1
   13    12    13    1
   14    12    14    1
   15    10    15    1
   16    15    16    1
@<TRIPOS>SUBSTRUCTURE
       1 MOL1            1 RESIDUE      1      MOL     
@<SCITEGIC>MOL_PROPERTY
VConf Rank
SciTegic.value.IntegerValue
974

@<SCITEGIC>MOL_PROPERTY
Conf_Id
SciTegic.value.IntegerValue
33

@<SCITEGIC>MOL_PROPERTY
Delta U+W
SciTegic.value.DoubleValue
0.015

@<SCITEGIC>MOL_PROPERTY
U+W
SciTegic.value.DoubleValue
3.025

@<SCITEGIC>MOL_PROPERTY
Grad RMS
SciTegic.value.DoubleValue
0.000000

@<SCITEGIC>MOL_PROPERTY
U
SciTegic.value.DoubleValue
5.843

@<SCITEGIC>MOL_PROPERTY
W
SciTegic.value.DoubleValue
-2.819

@<SCITEGIC>MOL_PROPERTY
W(PB)
SciTegic.value.DoubleValue
-4.568

@<SCITEGIC>MOL_PROPERTY
W(SA)
SciTegic.value.DoubleValue
1.750

@<SCITEGIC>MOL_PROPERTY
Valence
SciTegic.value.DoubleValue
13.789

@<SCITEGIC>MOL_PROPERTY
Coulomb
SciTegic.value.DoubleValue
-8.574

@<SCITEGIC>MOL_PROPERTY
VdW
SciTegic.value.DoubleValue
0.628

@<SCITEGIC>MOL_PROPERTY
VdW6
SciTegic.value.DoubleValue
-3.284

@<SCITEGIC>MOL_PROPERTY
VdW12
SciTegic.value.DoubleValue
3.913

@<SCITEGIC>MOL_PROPERTY
Bond
SciTegic.value.DoubleValue
0.054

@<SCITEGIC>MOL_PROPERTY
Angle
SciTegic.value.DoubleValue
4.033

@<SCITEGIC>MOL_PROPERTY
Pdih
SciTegic.value.DoubleValue
9.702

@<SCITEGIC>MOL_PROPERTY
Idih
SciTegic.value.DoubleValue
0.000

@<SCITEGIC>MOL_PROPERTY
Tether
SciTegic.value.DoubleValue
0.000

@<TRIPOS>MOLECULE
guest-4_confgen4.mol2 : confsearch ligand conformer 975
          16          16           1
SMALL
USER_CHARGES
 
@<TRIPOS>ATOM
       1    C1      20.001446   19.647733   21.692294 C.3        1 MOL1        -0.1689
       2    H1      19.333261   20.347099   21.171100 H          1 MOL1         0.0830
       3    H2      21.025335   20.035944   21.603191 H          1 MOL1         0.0830
       4    C2      19.872592   18.238528   21.073781 C.3        1 MOL1        -0.1689
       5    H3      19.142845   18.256108   20.252570 H          1 MOL1         0.0830
       6    H4      20.829353   17.889150   20.662025 H          1 MOL1         0.0830
       7    C3      19.381869   17.308017   22.203284 C.3        1 MOL1        -0.1765
       8    H5      20.238652   16.778781   22.640837 H          1 MOL1         0.0830
       9    H6      18.671890   16.552479   21.841211 H          1 MOL1         0.0830
      10    C4      18.763893   18.222731   23.269304 C.3        1 MOL1         0.1214
      11    H7      18.828446   17.776454   24.272127 H          1 MOL1         0.0787
      12    C5      19.584926   19.515602   23.172636 C.3        1 MOL1        -0.1765
      13    H8      19.025207   20.391333   23.527339 H          1 MOL1         0.0830
      14    H9      20.481565   19.416194   23.798558 H          1 MOL1         0.0830
      15    O1      17.414428   18.498709   22.923489 O.3        1 MOL1        -0.5512
      16    H10     17.456046   18.888901   22.026170 H          1 MOL1         0.3776
@<TRIPOS>BOND
    1     1     2    1
    2     1     3    1
    3     1     4    1
    4     4     5    1
    5     4     6    1
    6     4     7    1
    7     7     8    1
    8     7     9    1
    9     7    10    1
   10    10    11    1
   11     1    12    1
   12    10    12    1
   13    12    13    1
   14    12    14    1
   15    10    15    1
   16    15    16    1
@<TRIPOS>SUBSTRUCTURE
       1 MOL1            1 RESIDUE      1      MOL     
@<SCITEGIC>MOL_PROPERTY
VConf Rank
SciTegic.value.IntegerValue
975

@<SCITEGIC>MOL_PROPERTY
Conf_Id
SciTegic.value.IntegerValue
20

@<SCITEGIC>MOL_PROPERTY
Delta U+W
SciTegic.value.DoubleValue
-0.483

@<SCITEGIC>MOL_PROPERTY
U+W
SciTegic.value.DoubleValue
2.527

@<SCITEGIC>MOL_PROPERTY
Grad RMS
SciTegic.value.DoubleValue
0.000000

@<SCITEGIC>MOL_PROPERTY
U
SciTegic.value.DoubleValue
4.508

@<SCITEGIC>MOL_PROPERTY
W
SciTegic.value.DoubleValue
-1.981

@<SCITEGIC>MOL_PROPERTY
W(PB)
SciTegic.value.DoubleValue
-3.712

@<SCITEGIC>MOL_PROPERTY
W(SA)
SciTegic.value.DoubleValue
1.732

@<SCITEGIC>MOL_PROPERTY
Valence
SciTegic.value.DoubleValue
14.705

@<SCITEGIC>MOL_PROPERTY
Coulomb
SciTegic.value.DoubleValue
-10.687

@<SCITEGIC>MOL_PROPERTY
VdW
SciTegic.value.DoubleValue
0.490

@<SCITEGIC>MOL_PROPERTY
VdW6
SciTegic.value.DoubleValue
-3.745

@<SCITEGIC>MOL_PROPERTY
VdW12
SciTegic.value.DoubleValue
4.235

@<SCITEGIC>MOL_PROPERTY
Bond
SciTegic.value.DoubleValue
0.068

@<SCITEGIC>MOL_PROPERTY
Angle
SciTegic.value.DoubleValue
3.901

@<SCITEGIC>MOL_PROPERTY
Pdih
SciTegic.value.DoubleValue
10.737

@<SCITEGIC>MOL_PROPERTY
Idih
SciTegic.value.DoubleValue
0.000

@<SCITEGIC>MOL_PROPERTY
Tether
SciTegic.value.DoubleValue
0.000

@<TRIPOS>MOLECULE
guest-4_confgen4.mol2 : confsearch ligand conformer 976
          16          16           1
SMALL
USER_CHARGES
 
@<TRIPOS>ATOM
       1    C1      19.114420   19.821020   21.643898 C.3        1 MOL1        -0.1689
       2    H1      19.869498   19.870869   20.846999 H          1 MOL1         0.0830
       3    H2      18.469753   20.706743   21.563007 H          1 MOL1         0.0830
       4    C2      19.811689   19.726101   23.007912 C.3        1 MOL1        -0.1689
       5    H3      20.702334   20.366383   23.067494 H          1 MOL1         0.0830
       6    H4      19.115214   20.031592   23.801148 H          1 MOL1         0.0830
       7    C3      20.152573   18.232453   23.160782 C.3        1 MOL1        -0.1765
       8    H5      20.168791   17.930675   24.216013 H          1 MOL1         0.0830
       9    H6      21.149446   18.042467   22.740146 H          1 MOL1         0.0830
      10    C4      19.080245   17.458060   22.365730 C.3        1 MOL1         0.1214
      11    H7      18.377190   16.971429   23.057411 H          1 MOL1         0.0787
      12    C5      18.323366   18.505430   21.523125 C.3        1 MOL1        -0.1765
      13    H8      18.211506   18.195694   20.475474 H          1 MOL1         0.0830
      14    H9      17.317026   18.640982   21.940242 H          1 MOL1         0.0830
      15    O1      19.696937   16.497761   21.516373 O.3        1 MOL1        -0.5512
      16    H10     20.169579   15.867875   22.100656 H          1 MOL1         0.3776
@<TRIPOS>BOND
    1     1     2    1
    2     1     3    1
    3     1     4    1
    4     4     5    1
    5     4     6    1
    6     4     7    1
    7     7     8    1
    8     7     9    1
    9     7    10    1
   10    10    11    1
   11     1    12    1
   12    10    12    1
   13    12    13    1
   14    12    14    1
   15    10    15    1
   16    15    16    1
@<TRIPOS>SUBSTRUCTURE
       1 MOL1            1 RESIDUE      1      MOL     
@<SCITEGIC>MOL_PROPERTY
VConf Rank
SciTegic.value.IntegerValue
976

@<SCITEGIC>MOL_PROPERTY
Conf_Id
SciTegic.value.IntegerValue
59

@<SCITEGIC>MOL_PROPERTY
Delta U+W
SciTegic.value.DoubleValue
0.000

@<SCITEGIC>MOL_PROPERTY
U+W
SciTegic.value.DoubleValue
3.010

@<SCITEGIC>MOL_PROPERTY
Grad RMS
SciTegic.value.DoubleValue
0.000000

@<SCITEGIC>MOL_PROPERTY
U
SciTegic.value.DoubleValue
5.843

@<SCITEGIC>MOL_PROPERTY
W
SciTegic.value.DoubleValue
-2.833

@<SCITEGIC>MOL_PROPERTY
W(PB)
SciTegic.value.DoubleValue
-4.568

@<SCITEGIC>MOL_PROPERTY
W(SA)
SciTegic.value.DoubleValue
1.735

@<SCITEGIC>MOL_PROPERTY
Valence
SciTegic.value.DoubleValue
13.789

@<SCITEGIC>MOL_PROPERTY
Coulomb
SciTegic.value.DoubleValue
-8.574

@<SCITEGIC>MOL_PROPERTY
VdW
SciTegic.value.DoubleValue
0.628

@<SCITEGIC>MOL_PROPERTY
VdW6
SciTegic.value.DoubleValue
-3.284

@<SCITEGIC>MOL_PROPERTY
VdW12
SciTegic.value.DoubleValue
3.912

@<SCITEGIC>MOL_PROPERTY
Bond
SciTegic.value.DoubleValue
0.054

@<SCITEGIC>MOL_PROPERTY
Angle
SciTegic.value.DoubleValue
4.034

@<SCITEGIC>MOL_PROPERTY
Pdih
SciTegic.value.DoubleValue
9.702

@<SCITEGIC>MOL_PROPERTY
Idih
SciTegic.value.DoubleValue
0.000

@<SCITEGIC>MOL_PROPERTY
Tether
SciTegic.value.DoubleValue
0.000

@<TRIPOS>MOLECULE
guest-4_confgen4.mol2 : confsearch ligand conformer 977
          16          16           1
SMALL
USER_CHARGES
 
@<TRIPOS>ATOM
       1    C1      20.284305   19.240966   21.306194 C.3        1 MOL1        -0.1689
       2    H1      20.304256   19.414832   20.221698 H          1 MOL1         0.0830
       3    H2      21.098982   19.820650   21.762141 H          1 MOL1         0.0830
       4    C2      20.444502   17.756727   21.662705 C.3        1 MOL1        -0.1689
       5    H3      19.878207   17.143149   20.948204 H          1 MOL1         0.0830
       6    H4      21.493272   17.430785   21.640678 H          1 MOL1         0.0830
       7    C3      19.818169   17.627205   23.063422 C.3        1 MOL1        -0.1765
       8    H5      20.587375   17.796705   23.828064 H          1 MOL1         0.0830
       9    H6      19.399049   16.625550   23.227873 H          1 MOL1         0.0830
      10    C4      18.749176   18.734192   23.171273 C.3        1 MOL1         0.1214
      11    H7      18.913992   19.309761   24.093810 H          1 MOL1         0.0787
      12    C5      18.940163   19.644291   21.939616 C.3        1 MOL1        -0.1765
      13    H8      18.132196   19.477660   21.214216 H          1 MOL1         0.0830
      14    H9      18.930233   20.706206   22.217258 H          1 MOL1         0.0830
      15    O1      17.447022   18.161313   23.161130 O.3        1 MOL1        -0.5512
      16    H10     16.811715   18.905920   23.220077 H          1 MOL1         0.3776
@<TRIPOS>BOND
    1     1     2    1
    2     1     3    1
    3     1     4    1
    4     4     5    1
    5     4     6    1
    6     4     7    1
    7     7     8    1
    8     7     9    1
    9     7    10    1
   10    10    11    1
   11     1    12    1
   12    10    12    1
   13    12    13    1
   14    12    14    1
   15    10    15    1
   16    15    16    1
@<TRIPOS>SUBSTRUCTURE
       1 MOL1            1 RESIDUE      1      MOL     
@<SCITEGIC>MOL_PROPERTY
VConf Rank
SciTegic.value.IntegerValue
977

@<SCITEGIC>MOL_PROPERTY
Conf_Id
SciTegic.value.IntegerValue
33

@<SCITEGIC>MOL_PROPERTY
Delta U+W
SciTegic.value.DoubleValue
0.015

@<SCITEGIC>MOL_PROPERTY
U+W
SciTegic.value.DoubleValue
3.025

@<SCITEGIC>MOL_PROPERTY
Grad RMS
SciTegic.value.DoubleValue
0.000000

@<SCITEGIC>MOL_PROPERTY
U
SciTegic.value.DoubleValue
5.843

@<SCITEGIC>MOL_PROPERTY
W
SciTegic.value.DoubleValue
-2.819

@<SCITEGIC>MOL_PROPERTY
W(PB)
SciTegic.value.DoubleValue
-4.568

@<SCITEGIC>MOL_PROPERTY
W(SA)
SciTegic.value.DoubleValue
1.750

@<SCITEGIC>MOL_PROPERTY
Valence
SciTegic.value.DoubleValue
13.789

@<SCITEGIC>MOL_PROPERTY
Coulomb
SciTegic.value.DoubleValue
-8.574

@<SCITEGIC>MOL_PROPERTY
VdW
SciTegic.value.DoubleValue
0.628

@<SCITEGIC>MOL_PROPERTY
VdW6
SciTegic.value.DoubleValue
-3.284

@<SCITEGIC>MOL_PROPERTY
VdW12
SciTegic.value.DoubleValue
3.913

@<SCITEGIC>MOL_PROPERTY
Bond
SciTegic.value.DoubleValue
0.054

@<SCITEGIC>MOL_PROPERTY
Angle
SciTegic.value.DoubleValue
4.033

@<SCITEGIC>MOL_PROPERTY
Pdih
SciTegic.value.DoubleValue
9.702

@<SCITEGIC>MOL_PROPERTY
Idih
SciTegic.value.DoubleValue
0.000

@<SCITEGIC>MOL_PROPERTY
Tether
SciTegic.value.DoubleValue
0.000

@<TRIPOS>MOLECULE
guest-4_confgen4.mol2 : confsearch ligand conformer 978
          16          16           1
SMALL
USER_CHARGES
 
@<TRIPOS>ATOM
       1    C1      19.198580   17.295151   22.105705 C.3        1 MOL1        -0.1689
       2    H1      18.671742   17.014695   21.183201 H          1 MOL1         0.0830
       3    H2      19.446120   16.369266   22.642788 H          1 MOL1         0.0830
       4    C2      18.307126   18.224882   22.957722 C.3        1 MOL1        -0.1689
       5    H3      17.348456   18.393534   22.448080 H          1 MOL1         0.0830
       6    H4      18.089178   17.785772   23.940921 H          1 MOL1         0.0830
       7    C3      19.075359   19.555780   23.102515 C.3        1 MOL1        -0.1765
       8    H5      19.603096   19.571868   24.065248 H          1 MOL1         0.0830
       9    H6      18.407656   20.427158   23.072898 H          1 MOL1         0.0830
      10    C4      20.108203   19.576087   21.967696 C.3        1 MOL1         0.1214
      11    H7      20.989280   20.177907   22.233213 H          1 MOL1         0.0787
      12    C5      20.472563   18.098728   21.768677 C.3        1 MOL1        -0.1765
      13    H8      20.837822   17.893457   20.753564 H          1 MOL1         0.0830
      14    H9      21.272074   17.830816   22.471974 H          1 MOL1         0.0830
      15    O1      19.494850   20.069842   20.785829 O.3        1 MOL1        -0.5512
      16    H10     18.729647   19.478820   20.629882 H          1 MOL1         0.3776
@<TRIPOS>BOND
    1     1     2    1
    2     1     3    1
    3     1     4    1
    4     4     5    1
    5     4     6    1
    6     4     7    1
    7     7     8    1
    8     7     9    1
    9     7    10    1
   10    10    11    1
   11     1    12    1
   12    10    12    1
   13    12    13    1
   14    12    14    1
   15    10    15    1
   16    15    16    1
@<TRIPOS>SUBSTRUCTURE
       1 MOL1            1 RESIDUE      1      MOL     
@<SCITEGIC>MOL_PROPERTY
VConf Rank
SciTegic.value.IntegerValue
978

@<SCITEGIC>MOL_PROPERTY
Conf_Id
SciTegic.value.IntegerValue
20

@<SCITEGIC>MOL_PROPERTY
Delta U+W
SciTegic.value.DoubleValue
-0.483

@<SCITEGIC>MOL_PROPERTY
U+W
SciTegic.value.DoubleValue
2.527

@<SCITEGIC>MOL_PROPERTY
Grad RMS
SciTegic.value.DoubleValue
0.000000

@<SCITEGIC>MOL_PROPERTY
U
SciTegic.value.DoubleValue
4.508

@<SCITEGIC>MOL_PROPERTY
W
SciTegic.value.DoubleValue
-1.981

@<SCITEGIC>MOL_PROPERTY
W(PB)
SciTegic.value.DoubleValue
-3.712

@<SCITEGIC>MOL_PROPERTY
W(SA)
SciTegic.value.DoubleValue
1.732

@<SCITEGIC>MOL_PROPERTY
Valence
SciTegic.value.DoubleValue
14.705

@<SCITEGIC>MOL_PROPERTY
Coulomb
SciTegic.value.DoubleValue
-10.687

@<SCITEGIC>MOL_PROPERTY
VdW
SciTegic.value.DoubleValue
0.490

@<SCITEGIC>MOL_PROPERTY
VdW6
SciTegic.value.DoubleValue
-3.745

@<SCITEGIC>MOL_PROPERTY
VdW12
SciTegic.value.DoubleValue
4.235

@<SCITEGIC>MOL_PROPERTY
Bond
SciTegic.value.DoubleValue
0.068

@<SCITEGIC>MOL_PROPERTY
Angle
SciTegic.value.DoubleValue
3.901

@<SCITEGIC>MOL_PROPERTY
Pdih
SciTegic.value.DoubleValue
10.737

@<SCITEGIC>MOL_PROPERTY
Idih
SciTegic.value.DoubleValue
0.000

@<SCITEGIC>MOL_PROPERTY
Tether
SciTegic.value.DoubleValue
0.000

@<TRIPOS>MOLECULE
guest-4_confgen4.mol2 : confsearch ligand conformer 979
          16          16           1
SMALL
USER_CHARGES
 
@<TRIPOS>ATOM
       1    C1      20.772112   18.562005   22.652109 C.3        1 MOL1        -0.1689
       2    H1      21.268711   18.061896   21.808927 H          1 MOL1         0.0830
       3    H2      21.545312   18.901339   23.354718 H          1 MOL1         0.0830
       4    C2      19.770063   17.599007   23.303462 C.3        1 MOL1        -0.1689
       5    H3      20.154228   16.571403   23.360089 H          1 MOL1         0.0830
       6    H4      19.542030   17.937298   24.323847 H          1 MOL1         0.0830
       7    C3      18.509848   17.705847   22.425396 C.3        1 MOL1        -0.1765
       8    H5      17.598895   17.510059   23.005634 H          1 MOL1         0.0830
       9    H6      18.563813   16.960411   21.620288 H          1 MOL1         0.0830
      10    C4      18.510817   19.131686   21.834921 C.3        1 MOL1         0.1214
      11    H7      17.745785   19.745552   22.332329 H          1 MOL1         0.0787
      12    C5      19.906126   19.721632   22.126311 C.3        1 MOL1        -0.1765
      13    H8      20.353696   20.190797   21.239977 H          1 MOL1         0.0830
      14    H9      19.813684   20.493363   22.901531 H          1 MOL1         0.0830
      15    O1      18.282412   19.082061   20.431618 O.3        1 MOL1        -0.5512
      16    H10     17.392033   18.691179   20.305255 H          1 MOL1         0.3776
@<TRIPOS>BOND
    1     1     2    1
    2     1     3    1
    3     1     4    1
    4     4     5    1
    5     4     6    1
    6     4     7    1
    7     7     8    1
    8     7     9    1
    9     7    10    1
   10    10    11    1
   11     1    12    1
   12    10    12    1
   13    12    13    1
   14    12    14    1
   15    10    15    1
   16    15    16    1
@<TRIPOS>SUBSTRUCTURE
       1 MOL1            1 RESIDUE      1      MOL     
@<SCITEGIC>MOL_PROPERTY
VConf Rank
SciTegic.value.IntegerValue
979

@<SCITEGIC>MOL_PROPERTY
Conf_Id
SciTegic.value.IntegerValue
59

@<SCITEGIC>MOL_PROPERTY
Delta U+W
SciTegic.value.DoubleValue
0.000

@<SCITEGIC>MOL_PROPERTY
U+W
SciTegic.value.DoubleValue
3.010

@<SCITEGIC>MOL_PROPERTY
Grad RMS
SciTegic.value.DoubleValue
0.000000

@<SCITEGIC>MOL_PROPERTY
U
SciTegic.value.DoubleValue
5.843

@<SCITEGIC>MOL_PROPERTY
W
SciTegic.value.DoubleValue
-2.833

@<SCITEGIC>MOL_PROPERTY
W(PB)
SciTegic.value.DoubleValue
-4.568

@<SCITEGIC>MOL_PROPERTY
W(SA)
SciTegic.value.DoubleValue
1.735

@<SCITEGIC>MOL_PROPERTY
Valence
SciTegic.value.DoubleValue
13.789

@<SCITEGIC>MOL_PROPERTY
Coulomb
SciTegic.value.DoubleValue
-8.574

@<SCITEGIC>MOL_PROPERTY
VdW
SciTegic.value.DoubleValue
0.628

@<SCITEGIC>MOL_PROPERTY
VdW6
SciTegic.value.DoubleValue
-3.284

@<SCITEGIC>MOL_PROPERTY
VdW12
SciTegic.value.DoubleValue
3.912

@<SCITEGIC>MOL_PROPERTY
Bond
SciTegic.value.DoubleValue
0.054

@<SCITEGIC>MOL_PROPERTY
Angle
SciTegic.value.DoubleValue
4.034

@<SCITEGIC>MOL_PROPERTY
Pdih
SciTegic.value.DoubleValue
9.702

@<SCITEGIC>MOL_PROPERTY
Idih
SciTegic.value.DoubleValue
0.000

@<SCITEGIC>MOL_PROPERTY
Tether
SciTegic.value.DoubleValue
0.000

@<TRIPOS>MOLECULE
guest-4_confgen4.mol2 : confsearch ligand conformer 980
          16          16           1
SMALL
USER_CHARGES
 
@<TRIPOS>ATOM
       1    C1      19.205748   19.983484   21.946569 C.3        1 MOL1        -0.1689
       2    H1      19.086348   20.607899   21.050685 H          1 MOL1         0.0830
       3    H2      18.952242   20.592026   22.825792 H          1 MOL1         0.0830
       4    C2      20.632504   19.436529   22.091248 C.3        1 MOL1        -0.1689
       5    H3      21.017219   19.145441   21.103857 H          1 MOL1         0.0830
       6    H4      21.322064   20.172926   22.525838 H          1 MOL1         0.0830
       7    C3      20.477384   18.184322   22.973854 C.3        1 MOL1        -0.1765
       8    H5      20.578400   18.463643   24.030670 H          1 MOL1         0.0830
       9    H6      21.248662   17.434852   22.751494 H          1 MOL1         0.0830
      10    C4      19.051829   17.647806   22.729432 C.3        1 MOL1         0.1214
      11    H7      18.548003   17.501528   23.696015 H          1 MOL1         0.0787
      12    C5      18.315944   18.727542   21.908227 C.3        1 MOL1        -0.1765
      13    H8      18.196736   18.398439   20.866948 H          1 MOL1         0.0830
      14    H9      17.316575   18.931519   22.313814 H          1 MOL1         0.0830
      15    O1      19.105295   16.427688   21.999807 O.3        1 MOL1        -0.5512
      16    H10     18.177662   16.140267   21.864109 H          1 MOL1         0.3776
@<TRIPOS>BOND
    1     1     2    1
    2     1     3    1
    3     1     4    1
    4     4     5    1
    5     4     6    1
    6     4     7    1
    7     7     8    1
    8     7     9    1
    9     7    10    1
   10    10    11    1
   11     1    12    1
   12    10    12    1
   13    12    13    1
   14    12    14    1
   15    10    15    1
   16    15    16    1
@<TRIPOS>SUBSTRUCTURE
       1 MOL1            1 RESIDUE      1      MOL     
@<SCITEGIC>MOL_PROPERTY
VConf Rank
SciTegic.value.IntegerValue
980

@<SCITEGIC>MOL_PROPERTY
Conf_Id
SciTegic.value.IntegerValue
33

@<SCITEGIC>MOL_PROPERTY
Delta U+W
SciTegic.value.DoubleValue
0.015

@<SCITEGIC>MOL_PROPERTY
U+W
SciTegic.value.DoubleValue
3.025

@<SCITEGIC>MOL_PROPERTY
Grad RMS
SciTegic.value.DoubleValue
0.000000

@<SCITEGIC>MOL_PROPERTY
U
SciTegic.value.DoubleValue
5.843

@<SCITEGIC>MOL_PROPERTY
W
SciTegic.value.DoubleValue
-2.819

@<SCITEGIC>MOL_PROPERTY
W(PB)
SciTegic.value.DoubleValue
-4.568

@<SCITEGIC>MOL_PROPERTY
W(SA)
SciTegic.value.DoubleValue
1.750

@<SCITEGIC>MOL_PROPERTY
Valence
SciTegic.value.DoubleValue
13.789

@<SCITEGIC>MOL_PROPERTY
Coulomb
SciTegic.value.DoubleValue
-8.574

@<SCITEGIC>MOL_PROPERTY
VdW
SciTegic.value.DoubleValue
0.628

@<SCITEGIC>MOL_PROPERTY
VdW6
SciTegic.value.DoubleValue
-3.284

@<SCITEGIC>MOL_PROPERTY
VdW12
SciTegic.value.DoubleValue
3.913

@<SCITEGIC>MOL_PROPERTY
Bond
SciTegic.value.DoubleValue
0.054

@<SCITEGIC>MOL_PROPERTY
Angle
SciTegic.value.DoubleValue
4.033

@<SCITEGIC>MOL_PROPERTY
Pdih
SciTegic.value.DoubleValue
9.702

@<SCITEGIC>MOL_PROPERTY
Idih
SciTegic.value.DoubleValue
0.000

@<SCITEGIC>MOL_PROPERTY
Tether
SciTegic.value.DoubleValue
0.000

@<TRIPOS>MOLECULE
guest-4_confgen4.mol2 : confsearch ligand conformer 981
          16          16           1
SMALL
USER_CHARGES
 
@<TRIPOS>ATOM
       1    C1      19.438617   17.524679   23.034569 C.3        1 MOL1        -0.1689
       2    H1      19.329886   16.574850   22.493064 H          1 MOL1         0.0830
       3    H2      19.587881   17.287517   24.096865 H          1 MOL1         0.0830
       4    C2      18.183970   18.398921   22.818737 C.3        1 MOL1        -0.1689
       5    H3      17.467585   17.871773   22.173652 H          1 MOL1         0.0830
       6    H4      17.677480   18.619930   23.768275 H          1 MOL1         0.0830
       7    C3      18.666188   19.694669   22.132488 C.3        1 MOL1        -0.1765
       8    H5      18.795005   20.482819   22.886045 H          1 MOL1         0.0830
       9    H6      17.950074   20.061051   21.384858 H          1 MOL1         0.0830
      10    C4      20.032750   19.366198   21.516366 C.3        1 MOL1         0.1214
      11    H7      20.668355   20.260296   21.441681 H          1 MOL1         0.0787
      12    C5      20.632045   18.325505   22.471751 C.3        1 MOL1        -0.1765
      13    H8      21.369001   17.680432   21.974981 H          1 MOL1         0.0830
      14    H9      21.143317   18.846929   23.291714 H          1 MOL1         0.0830
      15    O1      19.840161   18.773469   20.240282 O.3        1 MOL1        -0.5512
      16    H10     19.269439   17.994725   20.404589 H          1 MOL1         0.3776
@<TRIPOS>BOND
    1     1     2    1
    2     1     3    1
    3     1     4    1
    4     4     5    1
    5     4     6    1
    6     4     7    1
    7     7     8    1
    8     7     9    1
    9     7    10    1
   10    10    11    1
   11     1    12    1
   12    10    12    1
   13    12    13    1
   14    12    14    1
   15    10    15    1
   16    15    16    1
@<TRIPOS>SUBSTRUCTURE
       1 MOL1            1 RESIDUE      1      MOL     
@<SCITEGIC>MOL_PROPERTY
VConf Rank
SciTegic.value.IntegerValue
981

@<SCITEGIC>MOL_PROPERTY
Conf_Id
SciTegic.value.IntegerValue
20

@<SCITEGIC>MOL_PROPERTY
Delta U+W
SciTegic.value.DoubleValue
-0.483

@<SCITEGIC>MOL_PROPERTY
U+W
SciTegic.value.DoubleValue
2.527

@<SCITEGIC>MOL_PROPERTY
Grad RMS
SciTegic.value.DoubleValue
0.000000

@<SCITEGIC>MOL_PROPERTY
U
SciTegic.value.DoubleValue
4.508

@<SCITEGIC>MOL_PROPERTY
W
SciTegic.value.DoubleValue
-1.981

@<SCITEGIC>MOL_PROPERTY
W(PB)
SciTegic.value.DoubleValue
-3.712

@<SCITEGIC>MOL_PROPERTY
W(SA)
SciTegic.value.DoubleValue
1.732

@<SCITEGIC>MOL_PROPERTY
Valence
SciTegic.value.DoubleValue
14.705

@<SCITEGIC>MOL_PROPERTY
Coulomb
SciTegic.value.DoubleValue
-10.687

@<SCITEGIC>MOL_PROPERTY
VdW
SciTegic.value.DoubleValue
0.490

@<SCITEGIC>MOL_PROPERTY
VdW6
SciTegic.value.DoubleValue
-3.745

@<SCITEGIC>MOL_PROPERTY
VdW12
SciTegic.value.DoubleValue
4.235

@<SCITEGIC>MOL_PROPERTY
Bond
SciTegic.value.DoubleValue
0.068

@<SCITEGIC>MOL_PROPERTY
Angle
SciTegic.value.DoubleValue
3.901

@<SCITEGIC>MOL_PROPERTY
Pdih
SciTegic.value.DoubleValue
10.737

@<SCITEGIC>MOL_PROPERTY
Idih
SciTegic.value.DoubleValue
0.000

@<SCITEGIC>MOL_PROPERTY
Tether
SciTegic.value.DoubleValue
0.000

@<TRIPOS>MOLECULE
guest-4_confgen4.mol2 : confsearch ligand conformer 982
          16          16           1
SMALL
USER_CHARGES
 
@<TRIPOS>ATOM
       1    C1      18.369660   17.854447   21.509665 C.3        1 MOL1        -0.1689
       2    H1      17.682397   18.637247   21.159564 H          1 MOL1         0.0830
       3    H2      18.058281   16.899293   21.065405 H          1 MOL1         0.0830
       4    C2      18.366602   17.815937   23.044016 C.3        1 MOL1        -0.1689
       5    H3      17.361801   17.960711   23.463748 H          1 MOL1         0.0830
       6    H4      18.746918   16.844771   23.390170 H          1 MOL1         0.0830
       7    C3      19.340904   18.934213   23.457236 C.3        1 MOL1        -0.1765
       8    H5      19.824797   18.710353   24.416705 H          1 MOL1         0.0830
       9    H6      18.786291   19.875669   23.570592 H          1 MOL1         0.0830
      10    C4      20.372831   19.055563   22.316149 C.3        1 MOL1         0.1214
      11    H7      21.336017   18.629567   22.632879 H          1 MOL1         0.0787
      12    C5      19.814967   18.232630   21.136572 C.3        1 MOL1        -0.1765
      13    H8      19.856519   18.783529   20.187465 H          1 MOL1         0.0830
      14    H9      20.415875   17.321366   21.020004 H          1 MOL1         0.0830
      15    O1      20.525633   20.417710   21.935233 O.3        1 MOL1        -0.5512
      16    H10     20.870071   20.892529   22.721007 H          1 MOL1         0.3776
@<TRIPOS>BOND
    1     1     2    1
    2     1     3    1
    3     1     4    1
    4     4     5    1
    5     4     6    1
    6     4     7    1
    7     7     8    1
    8     7     9    1
    9     7    10    1
   10    10    11    1
   11     1    12    1
   12    10    12    1
   13    12    13    1
   14    12    14    1
   15    10    15    1
   16    15    16    1
@<TRIPOS>SUBSTRUCTURE
       1 MOL1            1 RESIDUE      1      MOL     
@<SCITEGIC>MOL_PROPERTY
VConf Rank
SciTegic.value.IntegerValue
982

@<SCITEGIC>MOL_PROPERTY
Conf_Id
SciTegic.value.IntegerValue
59

@<SCITEGIC>MOL_PROPERTY
Delta U+W
SciTegic.value.DoubleValue
0.000

@<SCITEGIC>MOL_PROPERTY
U+W
SciTegic.value.DoubleValue
3.010

@<SCITEGIC>MOL_PROPERTY
Grad RMS
SciTegic.value.DoubleValue
0.000000

@<SCITEGIC>MOL_PROPERTY
U
SciTegic.value.DoubleValue
5.843

@<SCITEGIC>MOL_PROPERTY
W
SciTegic.value.DoubleValue
-2.833

@<SCITEGIC>MOL_PROPERTY
W(PB)
SciTegic.value.DoubleValue
-4.568

@<SCITEGIC>MOL_PROPERTY
W(SA)
SciTegic.value.DoubleValue
1.735

@<SCITEGIC>MOL_PROPERTY
Valence
SciTegic.value.DoubleValue
13.789

@<SCITEGIC>MOL_PROPERTY
Coulomb
SciTegic.value.DoubleValue
-8.574

@<SCITEGIC>MOL_PROPERTY
VdW
SciTegic.value.DoubleValue
0.628

@<SCITEGIC>MOL_PROPERTY
VdW6
SciTegic.value.DoubleValue
-3.284

@<SCITEGIC>MOL_PROPERTY
VdW12
SciTegic.value.DoubleValue
3.912

@<SCITEGIC>MOL_PROPERTY
Bond
SciTegic.value.DoubleValue
0.054

@<SCITEGIC>MOL_PROPERTY
Angle
SciTegic.value.DoubleValue
4.034

@<SCITEGIC>MOL_PROPERTY
Pdih
SciTegic.value.DoubleValue
9.702

@<SCITEGIC>MOL_PROPERTY
Idih
SciTegic.value.DoubleValue
0.000

@<SCITEGIC>MOL_PROPERTY
Tether
SciTegic.value.DoubleValue
0.000

@<TRIPOS>MOLECULE
guest-4_confgen4.mol2 : confsearch ligand conformer 983
          16          16           1
SMALL
USER_CHARGES
 
@<TRIPOS>ATOM
       1    C1      20.327633   17.485598   22.449102 C.3        1 MOL1        -0.1689
       2    H1      21.171614   17.008584   21.932467 H          1 MOL1         0.0830
       3    H2      20.204328   16.999587   23.426962 H          1 MOL1         0.0830
       4    C2      19.020260   17.380674   21.651923 C.3        1 MOL1        -0.1689
       5    H3      19.227843   17.528618   20.582951 H          1 MOL1         0.0830
       6    H4      18.530588   16.405192   21.775610 H          1 MOL1         0.0830
       7    C3      18.155812   18.542670   22.174965 C.3        1 MOL1        -0.1765
       8    H5      17.553789   18.199746   23.026467 H          1 MOL1         0.0830
       9    H6      17.465174   18.911339   21.404821 H          1 MOL1         0.0830
      10    C4      19.132529   19.635124   22.657008 C.3        1 MOL1         0.1214
      11    H7      18.865767   19.934821   23.680990 H          1 MOL1         0.0787
      12    C5      20.538321   18.998518   22.642217 C.3        1 MOL1        -0.1765
      13    H8      21.126265   19.393525   21.802532 H          1 MOL1         0.0830
      14    H9      21.087604   19.211977   23.568268 H          1 MOL1         0.0830
      15    O1      19.090635   20.753056   21.778163 O.3        1 MOL1        -0.5512
      16    H10     19.734451   21.406882   22.123912 H          1 MOL1         0.3776
@<TRIPOS>BOND
    1     1     2    1
    2     1     3    1
    3     1     4    1
    4     4     5    1
    5     4     6    1
    6     4     7    1
    7     7     8    1
    8     7     9    1
    9     7    10    1
   10    10    11    1
   11     1    12    1
   12    10    12    1
   13    12    13    1
   14    12    14    1
   15    10    15    1
   16    15    16    1
@<TRIPOS>SUBSTRUCTURE
       1 MOL1            1 RESIDUE      1      MOL     
@<SCITEGIC>MOL_PROPERTY
VConf Rank
SciTegic.value.IntegerValue
983

@<SCITEGIC>MOL_PROPERTY
Conf_Id
SciTegic.value.IntegerValue
33

@<SCITEGIC>MOL_PROPERTY
Delta U+W
SciTegic.value.DoubleValue
0.015

@<SCITEGIC>MOL_PROPERTY
U+W
SciTegic.value.DoubleValue
3.025

@<SCITEGIC>MOL_PROPERTY
Grad RMS
SciTegic.value.DoubleValue
0.000000

@<SCITEGIC>MOL_PROPERTY
U
SciTegic.value.DoubleValue
5.843

@<SCITEGIC>MOL_PROPERTY
W
SciTegic.value.DoubleValue
-2.819

@<SCITEGIC>MOL_PROPERTY
W(PB)
SciTegic.value.DoubleValue
-4.568

@<SCITEGIC>MOL_PROPERTY
W(SA)
SciTegic.value.DoubleValue
1.750

@<SCITEGIC>MOL_PROPERTY
Valence
SciTegic.value.DoubleValue
13.789

@<SCITEGIC>MOL_PROPERTY
Coulomb
SciTegic.value.DoubleValue
-8.574

@<SCITEGIC>MOL_PROPERTY
VdW
SciTegic.value.DoubleValue
0.628

@<SCITEGIC>MOL_PROPERTY
VdW6
SciTegic.value.DoubleValue
-3.284

@<SCITEGIC>MOL_PROPERTY
VdW12
SciTegic.value.DoubleValue
3.913

@<SCITEGIC>MOL_PROPERTY
Bond
SciTegic.value.DoubleValue
0.054

@<SCITEGIC>MOL_PROPERTY
Angle
SciTegic.value.DoubleValue
4.033

@<SCITEGIC>MOL_PROPERTY
Pdih
SciTegic.value.DoubleValue
9.702

@<SCITEGIC>MOL_PROPERTY
Idih
SciTegic.value.DoubleValue
0.000

@<SCITEGIC>MOL_PROPERTY
Tether
SciTegic.value.DoubleValue
0.000

@<TRIPOS>MOLECULE
guest-4_confgen4.mol2 : confsearch ligand conformer 984
          16          16           1
SMALL
USER_CHARGES
 
@<TRIPOS>ATOM
       1    C1      19.109048   19.912882   22.383028 C.3        1 MOL1        -0.1689
       2    H1      19.768582   20.568962   21.798391 H          1 MOL1         0.0830
       3    H2      18.382692   20.550433   22.905459 H          1 MOL1         0.0830
       4    C2      19.946051   19.075419   23.374543 C.3        1 MOL1        -0.1689
       5    H3      21.010540   19.326950   23.270514 H          1 MOL1         0.0830
       6    H4      19.656825   19.274146   24.415627 H          1 MOL1         0.0830
       7    C3      19.709422   17.595372   23.005890 C.3        1 MOL1        -0.1765
       8    H5      18.940332   17.171567   23.665063 H          1 MOL1         0.0830
       9    H6      20.617475   16.988087   23.118360 H          1 MOL1         0.0830
      10    C4      19.184906   17.595104   21.563712 C.3        1 MOL1         0.1214
      11    H7      18.546568   16.722054   21.365492 H          1 MOL1         0.0787
      12    C5      18.397104   18.907400   21.453244 C.3        1 MOL1        -0.1765
      13    H8      18.334951   19.269422   20.418314 H          1 MOL1         0.0830
      14    H9      17.372535   18.739336   21.810505 H          1 MOL1         0.0830
      15    O1      20.284706   17.632855   20.666038 O.3        1 MOL1        -0.5512
      16    H10     20.790016   18.433777   20.915734 H          1 MOL1         0.3776
@<TRIPOS>BOND
    1     1     2    1
    2     1     3    1
    3     1     4    1
    4     4     5    1
    5     4     6    1
    6     4     7    1
    7     7     8    1
    8     7     9    1
    9     7    10    1
   10    10    11    1
   11     1    12    1
   12    10    12    1
   13    12    13    1
   14    12    14    1
   15    10    15    1
   16    15    16    1
@<TRIPOS>SUBSTRUCTURE
       1 MOL1            1 RESIDUE      1      MOL     
@<SCITEGIC>MOL_PROPERTY
VConf Rank
SciTegic.value.IntegerValue
984

@<SCITEGIC>MOL_PROPERTY
Conf_Id
SciTegic.value.IntegerValue
20

@<SCITEGIC>MOL_PROPERTY
Delta U+W
SciTegic.value.DoubleValue
-0.483

@<SCITEGIC>MOL_PROPERTY
U+W
SciTegic.value.DoubleValue
2.527

@<SCITEGIC>MOL_PROPERTY
Grad RMS
SciTegic.value.DoubleValue
0.000000

@<SCITEGIC>MOL_PROPERTY
U
SciTegic.value.DoubleValue
4.508

@<SCITEGIC>MOL_PROPERTY
W
SciTegic.value.DoubleValue
-1.981

@<SCITEGIC>MOL_PROPERTY
W(PB)
SciTegic.value.DoubleValue
-3.712

@<SCITEGIC>MOL_PROPERTY
W(SA)
SciTegic.value.DoubleValue
1.732

@<SCITEGIC>MOL_PROPERTY
Valence
SciTegic.value.DoubleValue
14.705

@<SCITEGIC>MOL_PROPERTY
Coulomb
SciTegic.value.DoubleValue
-10.687

@<SCITEGIC>MOL_PROPERTY
VdW
SciTegic.value.DoubleValue
0.490

@<SCITEGIC>MOL_PROPERTY
VdW6
SciTegic.value.DoubleValue
-3.745

@<SCITEGIC>MOL_PROPERTY
VdW12
SciTegic.value.DoubleValue
4.235

@<SCITEGIC>MOL_PROPERTY
Bond
SciTegic.value.DoubleValue
0.068

@<SCITEGIC>MOL_PROPERTY
Angle
SciTegic.value.DoubleValue
3.901

@<SCITEGIC>MOL_PROPERTY
Pdih
SciTegic.value.DoubleValue
10.737

@<SCITEGIC>MOL_PROPERTY
Idih
SciTegic.value.DoubleValue
0.000

@<SCITEGIC>MOL_PROPERTY
Tether
SciTegic.value.DoubleValue
0.000

@<TRIPOS>MOLECULE
guest-4_confgen4.mol2 : confsearch ligand conformer 985
          16          16           1
SMALL
USER_CHARGES
 
@<TRIPOS>ATOM
       1    C1      20.026379   19.842740   22.233458 C.3        1 MOL1        -0.1689
       2    H1      19.911532   20.285577   23.232649 H          1 MOL1         0.0830
       3    H2      20.635741   20.523301   21.623410 H          1 MOL1         0.0830
       4    C2      18.642028   19.587722   21.621686 C.3        1 MOL1        -0.1689
       5    H3      17.933504   20.398801   21.838257 H          1 MOL1         0.0830
       6    H4      18.731945   19.492234   20.530621 H          1 MOL1         0.0830
       7    C3      18.197213   18.243878   22.227310 C.3        1 MOL1        -0.1765
       8    H5      17.529358   17.699054   21.547618 H          1 MOL1         0.0830
       9    H6      17.649548   18.429869   23.161256 H          1 MOL1         0.0830
      10    C4      19.487740   17.447511   22.513699 C.3        1 MOL1         0.1214
      11    H7      19.601081   16.637455   21.778523 H          1 MOL1         0.0787
      12    C5      20.655952   18.443098   22.359033 C.3        1 MOL1        -0.1765
      13    H8      21.361798   18.391176   23.198739 H          1 MOL1         0.0830
      14    H9      21.210294   18.204805   21.441971 H          1 MOL1         0.0830
      15    O1      19.459399   16.926115   23.837040 O.3        1 MOL1        -0.5512
      16    H10     18.696054   16.312199   23.881142 H          1 MOL1         0.3776
@<TRIPOS>BOND
    1     1     2    1
    2     1     3    1
    3     1     4    1
    4     4     5    1
    5     4     6    1
    6     4     7    1
    7     7     8    1
    8     7     9    1
    9     7    10    1
   10    10    11    1
   11     1    12    1
   12    10    12    1
   13    12    13    1
   14    12    14    1
   15    10    15    1
   16    15    16    1
@<TRIPOS>SUBSTRUCTURE
       1 MOL1            1 RESIDUE      1      MOL     
@<SCITEGIC>MOL_PROPERTY
VConf Rank
SciTegic.value.IntegerValue
985

@<SCITEGIC>MOL_PROPERTY
Conf_Id
SciTegic.value.IntegerValue
59

@<SCITEGIC>MOL_PROPERTY
Delta U+W
SciTegic.value.DoubleValue
0.000

@<SCITEGIC>MOL_PROPERTY
U+W
SciTegic.value.DoubleValue
3.010

@<SCITEGIC>MOL_PROPERTY
Grad RMS
SciTegic.value.DoubleValue
0.000000

@<SCITEGIC>MOL_PROPERTY
U
SciTegic.value.DoubleValue
5.843

@<SCITEGIC>MOL_PROPERTY
W
SciTegic.value.DoubleValue
-2.833

@<SCITEGIC>MOL_PROPERTY
W(PB)
SciTegic.value.DoubleValue
-4.568

@<SCITEGIC>MOL_PROPERTY
W(SA)
SciTegic.value.DoubleValue
1.735

@<SCITEGIC>MOL_PROPERTY
Valence
SciTegic.value.DoubleValue
13.789

@<SCITEGIC>MOL_PROPERTY
Coulomb
SciTegic.value.DoubleValue
-8.574

@<SCITEGIC>MOL_PROPERTY
VdW
SciTegic.value.DoubleValue
0.628

@<SCITEGIC>MOL_PROPERTY
VdW6
SciTegic.value.DoubleValue
-3.284

@<SCITEGIC>MOL_PROPERTY
VdW12
SciTegic.value.DoubleValue
3.912

@<SCITEGIC>MOL_PROPERTY
Bond
SciTegic.value.DoubleValue
0.054

@<SCITEGIC>MOL_PROPERTY
Angle
SciTegic.value.DoubleValue
4.034

@<SCITEGIC>MOL_PROPERTY
Pdih
SciTegic.value.DoubleValue
9.702

@<SCITEGIC>MOL_PROPERTY
Idih
SciTegic.value.DoubleValue
0.000

@<SCITEGIC>MOL_PROPERTY
Tether
SciTegic.value.DoubleValue
0.000

@<TRIPOS>MOLECULE
guest-4_confgen4.mol2 : confsearch ligand conformer 986
          16          16           1
SMALL
USER_CHARGES
 
@<TRIPOS>ATOM
       1    C1      18.307619   18.921482   21.482934 C.3        1 MOL1        -0.1689
       2    H1      17.801906   19.798272   21.056024 H          1 MOL1         0.0830
       3    H2      17.841323   18.018493   21.064841 H          1 MOL1         0.0830
       4    C2      18.220460   18.885469   23.014871 C.3        1 MOL1        -0.1689
       5    H3      18.345280   19.901407   23.414833 H          1 MOL1         0.0830
       6    H4      17.259185   18.491022   23.371247 H          1 MOL1         0.0830
       7    C3      19.411459   18.010846   23.448039 C.3        1 MOL1        -0.1765
       8    H5      19.097480   16.960209   23.499638 H          1 MOL1         0.0830
       9    H6      19.783419   18.297210   24.440843 H          1 MOL1         0.0830
      10    C4      20.488284   18.160852   22.353624 C.3        1 MOL1         0.1214
      11    H7      20.811566   17.163060   22.022840 H          1 MOL1         0.0787
      12    C5      19.818130   18.913451   21.184768 C.3        1 MOL1        -0.1765
      13    H8      20.184707   19.947967   21.138081 H          1 MOL1         0.0830
      14    H9      20.034064   18.435451   20.220541 H          1 MOL1         0.0830
      15    O1      21.591854   18.908611   22.850503 O.3        1 MOL1        -0.5512
      16    H10     22.235880   18.982111   22.114733 H          1 MOL1         0.3776
@<TRIPOS>BOND
    1     1     2    1
    2     1     3    1
    3     1     4    1
    4     4     5    1
    5     4     6    1
    6     4     7    1
    7     7     8    1
    8     7     9    1
    9     7    10    1
   10    10    11    1
   11     1    12    1
   12    10    12    1
   13    12    13    1
   14    12    14    1
   15    10    15    1
   16    15    16    1
@<TRIPOS>SUBSTRUCTURE
       1 MOL1            1 RESIDUE      1      MOL     
@<SCITEGIC>MOL_PROPERTY
VConf Rank
SciTegic.value.IntegerValue
986

@<SCITEGIC>MOL_PROPERTY
Conf_Id
SciTegic.value.IntegerValue
33

@<SCITEGIC>MOL_PROPERTY
Delta U+W
SciTegic.value.DoubleValue
0.015

@<SCITEGIC>MOL_PROPERTY
U+W
SciTegic.value.DoubleValue
3.025

@<SCITEGIC>MOL_PROPERTY
Grad RMS
SciTegic.value.DoubleValue
0.000000

@<SCITEGIC>MOL_PROPERTY
U
SciTegic.value.DoubleValue
5.843

@<SCITEGIC>MOL_PROPERTY
W
SciTegic.value.DoubleValue
-2.819

@<SCITEGIC>MOL_PROPERTY
W(PB)
SciTegic.value.DoubleValue
-4.568

@<SCITEGIC>MOL_PROPERTY
W(SA)
SciTegic.value.DoubleValue
1.750

@<SCITEGIC>MOL_PROPERTY
Valence
SciTegic.value.DoubleValue
13.789

@<SCITEGIC>MOL_PROPERTY
Coulomb
SciTegic.value.DoubleValue
-8.574

@<SCITEGIC>MOL_PROPERTY
VdW
SciTegic.value.DoubleValue
0.628

@<SCITEGIC>MOL_PROPERTY
VdW6
SciTegic.value.DoubleValue
-3.284

@<SCITEGIC>MOL_PROPERTY
VdW12
SciTegic.value.DoubleValue
3.913

@<SCITEGIC>MOL_PROPERTY
Bond
SciTegic.value.DoubleValue
0.054

@<SCITEGIC>MOL_PROPERTY
Angle
SciTegic.value.DoubleValue
4.033

@<SCITEGIC>MOL_PROPERTY
Pdih
SciTegic.value.DoubleValue
9.702

@<SCITEGIC>MOL_PROPERTY
Idih
SciTegic.value.DoubleValue
0.000

@<SCITEGIC>MOL_PROPERTY
Tether
SciTegic.value.DoubleValue
0.000

@<TRIPOS>MOLECULE
guest-4_confgen4.mol2 : confsearch ligand conformer 987
          16          16           1
SMALL
USER_CHARGES
 
@<TRIPOS>ATOM
       1    C1      18.743730   17.516667   21.826305 C.3        1 MOL1        -0.1689
       2    H1      19.177416   16.572032   22.182409 H          1 MOL1         0.0830
       3    H2      17.869613   17.270007   21.208182 H          1 MOL1         0.0830
       4    C2      19.799359   18.310536   21.026028 C.3        1 MOL1        -0.1689
       5    H3      20.743601   17.749642   20.993921 H          1 MOL1         0.0830
       6    H4      19.476980   18.480037   19.989524 H          1 MOL1         0.0830
       7    C3      19.998595   19.647743   21.770756 C.3        1 MOL1        -0.1765
       8    H5      19.393478   20.428430   21.291191 H          1 MOL1         0.0830
       9    H6      21.045139   19.980228   21.756476 H          1 MOL1         0.0830
      10    C4      19.480072   19.421263   23.197232 C.3        1 MOL1         0.1214
      11    H7      19.120606   20.356398   23.650321 H          1 MOL1         0.0787
      12    C5      18.343816   18.404489   23.023885 C.3        1 MOL1        -0.1765
      13    H8      18.167176   17.818583   23.935760 H          1 MOL1         0.0830
      14    H9      17.416463   18.942940   22.787855 H          1 MOL1         0.0830
      15    O1      20.510988   18.841118   23.983011 O.3        1 MOL1        -0.5512
      16    H10     20.764720   18.023652   23.507056 H          1 MOL1         0.3776
@<TRIPOS>BOND
    1     1     2    1
    2     1     3    1
    3     1     4    1
    4     4     5    1
    5     4     6    1
    6     4     7    1
    7     7     8    1
    8     7     9    1
    9     7    10    1
   10    10    11    1
   11     1    12    1
   12    10    12    1
   13    12    13    1
   14    12    14    1
   15    10    15    1
   16    15    16    1
@<TRIPOS>SUBSTRUCTURE
       1 MOL1            1 RESIDUE      1      MOL     
@<SCITEGIC>MOL_PROPERTY
VConf Rank
SciTegic.value.IntegerValue
987

@<SCITEGIC>MOL_PROPERTY
Conf_Id
SciTegic.value.IntegerValue
20

@<SCITEGIC>MOL_PROPERTY
Delta U+W
SciTegic.value.DoubleValue
-0.483

@<SCITEGIC>MOL_PROPERTY
U+W
SciTegic.value.DoubleValue
2.527

@<SCITEGIC>MOL_PROPERTY
Grad RMS
SciTegic.value.DoubleValue
0.000000

@<SCITEGIC>MOL_PROPERTY
U
SciTegic.value.DoubleValue
4.508

@<SCITEGIC>MOL_PROPERTY
W
SciTegic.value.DoubleValue
-1.981

@<SCITEGIC>MOL_PROPERTY
W(PB)
SciTegic.value.DoubleValue
-3.712

@<SCITEGIC>MOL_PROPERTY
W(SA)
SciTegic.value.DoubleValue
1.732

@<SCITEGIC>MOL_PROPERTY
Valence
SciTegic.value.DoubleValue
14.705

@<SCITEGIC>MOL_PROPERTY
Coulomb
SciTegic.value.DoubleValue
-10.687

@<SCITEGIC>MOL_PROPERTY
VdW
SciTegic.value.DoubleValue
0.490

@<SCITEGIC>MOL_PROPERTY
VdW6
SciTegic.value.DoubleValue
-3.745

@<SCITEGIC>MOL_PROPERTY
VdW12
SciTegic.value.DoubleValue
4.235

@<SCITEGIC>MOL_PROPERTY
Bond
SciTegic.value.DoubleValue
0.068

@<SCITEGIC>MOL_PROPERTY
Angle
SciTegic.value.DoubleValue
3.901

@<SCITEGIC>MOL_PROPERTY
Pdih
SciTegic.value.DoubleValue
10.737

@<SCITEGIC>MOL_PROPERTY
Idih
SciTegic.value.DoubleValue
0.000

@<SCITEGIC>MOL_PROPERTY
Tether
SciTegic.value.DoubleValue
0.000

@<TRIPOS>MOLECULE
guest-4_confgen4.mol2 : confsearch ligand conformer 988
          16          16           1
SMALL
USER_CHARGES
 
@<TRIPOS>ATOM
       1    C1      20.162254   18.679092   23.518901 C.3        1 MOL1        -0.1689
       2    H1      21.091451   18.135470   23.298119 H          1 MOL1         0.0830
       3    H2      20.254923   19.127622   24.517339 H          1 MOL1         0.0830
       4    C2      18.968362   17.720093   23.415600 C.3        1 MOL1        -0.1689
       5    H3      19.192734   16.727307   23.828871 H          1 MOL1         0.0830
       6    H4      18.112000   18.135420   23.964939 H          1 MOL1         0.0830
       7    C3      18.646866   17.669316   21.910735 C.3        1 MOL1        -0.1765
       8    H5      17.581561   17.471977   21.734587 H          1 MOL1         0.0830
       9    H6      19.222009   16.858295   21.443575 H          1 MOL1         0.0830
      10    C4      19.075091   19.032791   21.328293 C.3        1 MOL1         0.1214
      11    H7      18.187210   19.641579   21.103427 H          1 MOL1         0.0787
      12    C5      19.907530   19.730925   22.423504 C.3        1 MOL1        -0.1765
      13    H8      20.847301   20.143801   22.033138 H          1 MOL1         0.0830
      14    H9      19.325074   20.563010   22.839990 H          1 MOL1         0.0830
      15    O1      19.863630   18.841619   20.159727 O.3        1 MOL1        -0.5512
      16    H10     19.291568   18.387218   19.505665 H          1 MOL1         0.3776
@<TRIPOS>BOND
    1     1     2    1
    2     1     3    1
    3     1     4    1
    4     4     5    1
    5     4     6    1
    6     4     7    1
    7     7     8    1
    8     7     9    1
    9     7    10    1
   10    10    11    1
   11     1    12    1
   12    10    12    1
   13    12    13    1
   14    12    14    1
   15    10    15    1
   16    15    16    1
@<TRIPOS>SUBSTRUCTURE
       1 MOL1            1 RESIDUE      1      MOL     
@<SCITEGIC>MOL_PROPERTY
VConf Rank
SciTegic.value.IntegerValue
988

@<SCITEGIC>MOL_PROPERTY
Conf_Id
SciTegic.value.IntegerValue
59

@<SCITEGIC>MOL_PROPERTY
Delta U+W
SciTegic.value.DoubleValue
0.000

@<SCITEGIC>MOL_PROPERTY
U+W
SciTegic.value.DoubleValue
3.010

@<SCITEGIC>MOL_PROPERTY
Grad RMS
SciTegic.value.DoubleValue
0.000000

@<SCITEGIC>MOL_PROPERTY
U
SciTegic.value.DoubleValue
5.843

@<SCITEGIC>MOL_PROPERTY
W
SciTegic.value.DoubleValue
-2.833

@<SCITEGIC>MOL_PROPERTY
W(PB)
SciTegic.value.DoubleValue
-4.568

@<SCITEGIC>MOL_PROPERTY
W(SA)
SciTegic.value.DoubleValue
1.735

@<SCITEGIC>MOL_PROPERTY
Valence
SciTegic.value.DoubleValue
13.789

@<SCITEGIC>MOL_PROPERTY
Coulomb
SciTegic.value.DoubleValue
-8.574

@<SCITEGIC>MOL_PROPERTY
VdW
SciTegic.value.DoubleValue
0.628

@<SCITEGIC>MOL_PROPERTY
VdW6
SciTegic.value.DoubleValue
-3.284

@<SCITEGIC>MOL_PROPERTY
VdW12
SciTegic.value.DoubleValue
3.912

@<SCITEGIC>MOL_PROPERTY
Bond
SciTegic.value.DoubleValue
0.054

@<SCITEGIC>MOL_PROPERTY
Angle
SciTegic.value.DoubleValue
4.034

@<SCITEGIC>MOL_PROPERTY
Pdih
SciTegic.value.DoubleValue
9.702

@<SCITEGIC>MOL_PROPERTY
Idih
SciTegic.value.DoubleValue
0.000

@<SCITEGIC>MOL_PROPERTY
Tether
SciTegic.value.DoubleValue
0.000

@<TRIPOS>MOLECULE
guest-4_confgen4.mol2 : confsearch ligand conformer 989
          16          16           1
SMALL
USER_CHARGES
 
@<TRIPOS>ATOM
       1    C1      18.781740   17.343709   22.246871 C.3        1 MOL1        -0.1689
       2    H1      18.093465   16.788395   21.595209 H          1 MOL1         0.0830
       3    H2      19.128152   16.664913   23.038614 H          1 MOL1         0.0830
       4    C2      18.121501   18.577654   22.877102 C.3        1 MOL1        -0.1689
       5    H3      17.473209   19.066946   22.136838 H          1 MOL1         0.0830
       6    H4      17.511570   18.324777   23.754986 H          1 MOL1         0.0830
       7    C3      19.297896   19.507574   23.226988 C.3        1 MOL1        -0.1765
       8    H5      19.647908   19.291883   24.244855 H          1 MOL1         0.0830
       9    H6      19.001795   20.564538   23.192791 H          1 MOL1         0.0830
      10    C4      20.427264   19.183229   22.227424 C.3        1 MOL1         0.1214
      11    H7      21.358978   18.994868   22.780549 H          1 MOL1         0.0787
      12    C5      19.990797   17.906860   21.477681 C.3        1 MOL1        -0.1765
      13    H8      19.685705   18.153626   20.451617 H          1 MOL1         0.0830
      14    H9      20.806085   17.174179   21.419972 H          1 MOL1         0.0830
      15    O1      20.594562   20.258103   21.310606 O.3        1 MOL1        -0.5512
      16    H10     21.311987   19.994656   20.696255 H          1 MOL1         0.3776
@<TRIPOS>BOND
    1     1     2    1
    2     1     3    1
    3     1     4    1
    4     4     5    1
    5     4     6    1
    6     4     7    1
    7     7     8    1
    8     7     9    1
    9     7    10    1
   10    10    11    1
   11     1    12    1
   12    10    12    1
   13    12    13    1
   14    12    14    1
   15    10    15    1
   16    15    16    1
@<TRIPOS>SUBSTRUCTURE
       1 MOL1            1 RESIDUE      1      MOL     
@<SCITEGIC>MOL_PROPERTY
VConf Rank
SciTegic.value.IntegerValue
989

@<SCITEGIC>MOL_PROPERTY
Conf_Id
SciTegic.value.IntegerValue
33

@<SCITEGIC>MOL_PROPERTY
Delta U+W
SciTegic.value.DoubleValue
0.015

@<SCITEGIC>MOL_PROPERTY
U+W
SciTegic.value.DoubleValue
3.025

@<SCITEGIC>MOL_PROPERTY
Grad RMS
SciTegic.value.DoubleValue
0.000000

@<SCITEGIC>MOL_PROPERTY
U
SciTegic.value.DoubleValue
5.843

@<SCITEGIC>MOL_PROPERTY
W
SciTegic.value.DoubleValue
-2.819

@<SCITEGIC>MOL_PROPERTY
W(PB)
SciTegic.value.DoubleValue
-4.568

@<SCITEGIC>MOL_PROPERTY
W(SA)
SciTegic.value.DoubleValue
1.750

@<SCITEGIC>MOL_PROPERTY
Valence
SciTegic.value.DoubleValue
13.789

@<SCITEGIC>MOL_PROPERTY
Coulomb
SciTegic.value.DoubleValue
-8.574

@<SCITEGIC>MOL_PROPERTY
VdW
SciTegic.value.DoubleValue
0.628

@<SCITEGIC>MOL_PROPERTY
VdW6
SciTegic.value.DoubleValue
-3.284

@<SCITEGIC>MOL_PROPERTY
VdW12
SciTegic.value.DoubleValue
3.913

@<SCITEGIC>MOL_PROPERTY
Bond
SciTegic.value.DoubleValue
0.054

@<SCITEGIC>MOL_PROPERTY
Angle
SciTegic.value.DoubleValue
4.033

@<SCITEGIC>MOL_PROPERTY
Pdih
SciTegic.value.DoubleValue
9.702

@<SCITEGIC>MOL_PROPERTY
Idih
SciTegic.value.DoubleValue
0.000

@<SCITEGIC>MOL_PROPERTY
Tether
SciTegic.value.DoubleValue
0.000

@<TRIPOS>MOLECULE
guest-4_confgen4.mol2 : confsearch ligand conformer 990
          16          16           1
SMALL
USER_CHARGES
 
@<TRIPOS>ATOM
       1    C1      19.882091   19.777041   21.846241 C.3        1 MOL1        -0.1689
       2    H1      19.206985   20.359724   21.204416 H          1 MOL1         0.0830
       3    H2      20.803625   20.360644   21.977316 H          1 MOL1         0.0830
       4    C2      20.166704   18.403878   21.199372 C.3        1 MOL1        -0.1689
       5    H3      19.630200   18.322404   20.243992 H          1 MOL1         0.0830
       6    H4      21.237289   18.268760   20.992996 H          1 MOL1         0.0830
       7    C3      19.654109   17.338143   22.191286 C.3        1 MOL1        -0.1765
       8    H5      20.492800   16.963081   22.792574 H          1 MOL1         0.0830
       9    H6      19.198602   16.479173   21.680709 H          1 MOL1         0.0830
      10    C4      18.662190   18.058628   23.114320 C.3        1 MOL1         0.1214
      11    H7      18.610330   17.581603   24.103633 H          1 MOL1         0.0787
      12    C5      19.209316   19.489478   23.205299 C.3        1 MOL1        -0.1765
      13    H8      18.425240   20.220228   23.444534 H          1 MOL1         0.0830
      14    H9      19.961784   19.533373   24.003727 H          1 MOL1         0.0830
      15    O1      17.383500   18.085216   22.497028 O.3        1 MOL1        -0.5512
      16    H10     17.526988   18.522389   21.632474 H          1 MOL1         0.3776
@<TRIPOS>BOND
    1     1     2    1
    2     1     3    1
    3     1     4    1
    4     4     5    1
    5     4     6    1
    6     4     7    1
    7     7     8    1
    8     7     9    1
    9     7    10    1
   10    10    11    1
   11     1    12    1
   12    10    12    1
   13    12    13    1
   14    12    14    1
   15    10    15    1
   16    15    16    1
@<TRIPOS>SUBSTRUCTURE
       1 MOL1            1 RESIDUE      1      MOL     
@<SCITEGIC>MOL_PROPERTY
VConf Rank
SciTegic.value.IntegerValue
990

@<SCITEGIC>MOL_PROPERTY
Conf_Id
SciTegic.value.IntegerValue
20

@<SCITEGIC>MOL_PROPERTY
Delta U+W
SciTegic.value.DoubleValue
-0.483

@<SCITEGIC>MOL_PROPERTY
U+W
SciTegic.value.DoubleValue
2.527

@<SCITEGIC>MOL_PROPERTY
Grad RMS
SciTegic.value.DoubleValue
0.000000

@<SCITEGIC>MOL_PROPERTY
U
SciTegic.value.DoubleValue
4.508

@<SCITEGIC>MOL_PROPERTY
W
SciTegic.value.DoubleValue
-1.981

@<SCITEGIC>MOL_PROPERTY
W(PB)
SciTegic.value.DoubleValue
-3.712

@<SCITEGIC>MOL_PROPERTY
W(SA)
SciTegic.value.DoubleValue
1.732

@<SCITEGIC>MOL_PROPERTY
Valence
SciTegic.value.DoubleValue
14.705

@<SCITEGIC>MOL_PROPERTY
Coulomb
SciTegic.value.DoubleValue
-10.687

@<SCITEGIC>MOL_PROPERTY
VdW
SciTegic.value.DoubleValue
0.490

@<SCITEGIC>MOL_PROPERTY
VdW6
SciTegic.value.DoubleValue
-3.745

@<SCITEGIC>MOL_PROPERTY
VdW12
SciTegic.value.DoubleValue
4.235

@<SCITEGIC>MOL_PROPERTY
Bond
SciTegic.value.DoubleValue
0.068

@<SCITEGIC>MOL_PROPERTY
Angle
SciTegic.value.DoubleValue
3.901

@<SCITEGIC>MOL_PROPERTY
Pdih
SciTegic.value.DoubleValue
10.737

@<SCITEGIC>MOL_PROPERTY
Idih
SciTegic.value.DoubleValue
0.000

@<SCITEGIC>MOL_PROPERTY
Tether
SciTegic.value.DoubleValue
0.000

@<TRIPOS>MOLECULE
guest-4_confgen4.mol2 : confsearch ligand conformer 991
          16          16           1
SMALL
USER_CHARGES
 
@<TRIPOS>ATOM
       1    C1      18.616482   17.308469   22.203989 C.3        1 MOL1        -0.1689
       2    H1      19.144137   16.604307   22.862331 H          1 MOL1         0.0830
       3    H2      17.734312   16.799591   21.792331 H          1 MOL1         0.0830
       4    C2      19.571676   17.803482   21.109323 C.3        1 MOL1        -0.1689
       5    H3      20.223061   17.004251   20.730262 H          1 MOL1         0.0830
       6    H4      18.991781   18.203204   20.265776 H          1 MOL1         0.0830
       7    C3      20.366750   18.938980   21.779441 C.3        1 MOL1        -0.1765
       8    H5      20.686008   19.691594   21.046984 H          1 MOL1         0.0830
       9    H6      21.267834   18.522776   22.250191 H          1 MOL1         0.0830
      10    C4      19.436855   19.547991   22.849993 C.3        1 MOL1         0.1214
      11    H7      19.066854   20.527604   22.513875 H          1 MOL1         0.0787
      12    C5      18.247290   18.576616   22.995589 C.3        1 MOL1        -0.1765
      13    H8      18.023051   18.346671   24.045762 H          1 MOL1         0.0830
      14    H9      17.352924   19.037626   22.556658 H          1 MOL1         0.0830
      15    O1      20.126572   19.668159   24.088435 O.3        1 MOL1        -0.5512
      16    H10     20.873978   20.284210   23.935470 H          1 MOL1         0.3776
@<TRIPOS>BOND
    1     1     2    1
    2     1     3    1
    3     1     4    1
    4     4     5    1
    5     4     6    1
    6     4     7    1
    7     7     8    1
    8     7     9    1
    9     7    10    1
   10    10    11    1
   11     1    12    1
   12    10    12    1
   13    12    13    1
   14    12    14    1
   15    10    15    1
   16    15    16    1
@<TRIPOS>SUBSTRUCTURE
       1 MOL1            1 RESIDUE      1      MOL     
@<SCITEGIC>MOL_PROPERTY
VConf Rank
SciTegic.value.IntegerValue
991

@<SCITEGIC>MOL_PROPERTY
Conf_Id
SciTegic.value.IntegerValue
59

@<SCITEGIC>MOL_PROPERTY
Delta U+W
SciTegic.value.DoubleValue
0.000

@<SCITEGIC>MOL_PROPERTY
U+W
SciTegic.value.DoubleValue
3.010

@<SCITEGIC>MOL_PROPERTY
Grad RMS
SciTegic.value.DoubleValue
0.000000

@<SCITEGIC>MOL_PROPERTY
U
SciTegic.value.DoubleValue
5.843

@<SCITEGIC>MOL_PROPERTY
W
SciTegic.value.DoubleValue
-2.833

@<SCITEGIC>MOL_PROPERTY
W(PB)
SciTegic.value.DoubleValue
-4.568

@<SCITEGIC>MOL_PROPERTY
W(SA)
SciTegic.value.DoubleValue
1.735

@<SCITEGIC>MOL_PROPERTY
Valence
SciTegic.value.DoubleValue
13.789

@<SCITEGIC>MOL_PROPERTY
Coulomb
SciTegic.value.DoubleValue
-8.574

@<SCITEGIC>MOL_PROPERTY
VdW
SciTegic.value.DoubleValue
0.628

@<SCITEGIC>MOL_PROPERTY
VdW6
SciTegic.value.DoubleValue
-3.284

@<SCITEGIC>MOL_PROPERTY
VdW12
SciTegic.value.DoubleValue
3.912

@<SCITEGIC>MOL_PROPERTY
Bond
SciTegic.value.DoubleValue
0.054

@<SCITEGIC>MOL_PROPERTY
Angle
SciTegic.value.DoubleValue
4.034

@<SCITEGIC>MOL_PROPERTY
Pdih
SciTegic.value.DoubleValue
9.702

@<SCITEGIC>MOL_PROPERTY
Idih
SciTegic.value.DoubleValue
0.000

@<SCITEGIC>MOL_PROPERTY
Tether
SciTegic.value.DoubleValue
0.000

@<TRIPOS>MOLECULE
guest-4_confgen4.mol2 : confsearch ligand conformer 992
          16          16           1
SMALL
USER_CHARGES
 
@<TRIPOS>ATOM
       1    C1      19.891236   19.783578   21.588382 C.3        1 MOL1        -0.1689
       2    H1      19.613636   20.379136   20.708037 H          1 MOL1         0.0830
       3    H2      20.675526   20.324673   22.135855 H          1 MOL1         0.0830
       4    C2      20.396617   18.384304   21.211093 C.3        1 MOL1        -0.1689
       5    H3      19.791778   17.984574   20.385220 H          1 MOL1         0.0830
       6    H4      21.448919   18.389134   20.896006 H          1 MOL1         0.0830
       7    C3      20.165870   17.537299   22.476168 C.3        1 MOL1        -0.1765
       8    H5      21.055763   17.582734   23.117346 H          1 MOL1         0.0830
       9    H6      19.985875   16.482477   22.229244 H          1 MOL1         0.0830
      10    C4      18.975628   18.175505   23.221699 C.3        1 MOL1         0.1214
      11    H7      19.255617   18.350369   24.270768 H          1 MOL1         0.0787
      12    C5      18.693316   19.520279   22.519119 C.3        1 MOL1        -0.1765
      13    H8      17.775580   19.451114   21.919321 H          1 MOL1         0.0830
      14    H9      18.561917   20.334237   23.243725 H          1 MOL1         0.0830
      15    O1      17.834737   17.329639   23.139383 O.3        1 MOL1        -0.5512
      16    H10     17.110602   17.786856   23.616991 H          1 MOL1         0.3776
@<TRIPOS>BOND
    1     1     2    1
    2     1     3    1
    3     1     4    1
    4     4     5    1
    5     4     6    1
    6     4     7    1
    7     7     8    1
    8     7     9    1
    9     7    10    1
   10    10    11    1
   11     1    12    1
   12    10    12    1
   13    12    13    1
   14    12    14    1
   15    10    15    1
   16    15    16    1
@<TRIPOS>SUBSTRUCTURE
       1 MOL1            1 RESIDUE      1      MOL     
@<SCITEGIC>MOL_PROPERTY
VConf Rank
SciTegic.value.IntegerValue
992

@<SCITEGIC>MOL_PROPERTY
Conf_Id
SciTegic.value.IntegerValue
33

@<SCITEGIC>MOL_PROPERTY
Delta U+W
SciTegic.value.DoubleValue
0.015

@<SCITEGIC>MOL_PROPERTY
U+W
SciTegic.value.DoubleValue
3.025

@<SCITEGIC>MOL_PROPERTY
Grad RMS
SciTegic.value.DoubleValue
0.000000

@<SCITEGIC>MOL_PROPERTY
U
SciTegic.value.DoubleValue
5.843

@<SCITEGIC>MOL_PROPERTY
W
SciTegic.value.DoubleValue
-2.819

@<SCITEGIC>MOL_PROPERTY
W(PB)
SciTegic.value.DoubleValue
-4.568

@<SCITEGIC>MOL_PROPERTY
W(SA)
SciTegic.value.DoubleValue
1.750

@<SCITEGIC>MOL_PROPERTY
Valence
SciTegic.value.DoubleValue
13.789

@<SCITEGIC>MOL_PROPERTY
Coulomb
SciTegic.value.DoubleValue
-8.574

@<SCITEGIC>MOL_PROPERTY
VdW
SciTegic.value.DoubleValue
0.628

@<SCITEGIC>MOL_PROPERTY
VdW6
SciTegic.value.DoubleValue
-3.284

@<SCITEGIC>MOL_PROPERTY
VdW12
SciTegic.value.DoubleValue
3.913

@<SCITEGIC>MOL_PROPERTY
Bond
SciTegic.value.DoubleValue
0.054

@<SCITEGIC>MOL_PROPERTY
Angle
SciTegic.value.DoubleValue
4.033

@<SCITEGIC>MOL_PROPERTY
Pdih
SciTegic.value.DoubleValue
9.702

@<SCITEGIC>MOL_PROPERTY
Idih
SciTegic.value.DoubleValue
0.000

@<SCITEGIC>MOL_PROPERTY
Tether
SciTegic.value.DoubleValue
0.000

@<TRIPOS>MOLECULE
guest-4_confgen4.mol2 : confsearch ligand conformer 993
          16          16           1
SMALL
USER_CHARGES
 
@<TRIPOS>ATOM
       1    C1      20.531201   19.284263   22.221978 C.3        1 MOL1        -0.1689
       2    H1      21.387053   18.739086   22.643317 H          1 MOL1         0.0830
       3    H2      20.898065   20.256674   21.865852 H          1 MOL1         0.0830
       4    C2      19.433797   19.449987   23.295878 C.3        1 MOL1        -0.1689
       5    H3      19.758967   18.985954   24.237241 H          1 MOL1         0.0830
       6    H4      19.225882   20.509131   23.500783 H          1 MOL1         0.0830
       7    C3      18.179004   18.733118   22.753636 C.3        1 MOL1        -0.1765
       8    H5      17.506660   19.468738   22.292726 H          1 MOL1         0.0830
       9    H6      17.618707   18.218544   23.545651 H          1 MOL1         0.0830
      10    C4      18.676487   17.765794   21.671145 C.3        1 MOL1         0.1214
      11    H7      17.904312   17.576834   20.911525 H          1 MOL1         0.0787
      12    C5      19.897956   18.474530   21.070591 C.3        1 MOL1        -0.1765
      13    H8      20.607682   17.768942   20.618443 H          1 MOL1         0.0830
      14    H9      19.560422   19.160212   20.282217 H          1 MOL1         0.0830
      15    O1      19.092928   16.553615   22.282705 O.3        1 MOL1        -0.5512
      16    H10     19.772629   16.818340   22.936226 H          1 MOL1         0.3776
@<TRIPOS>BOND
    1     1     2    1
    2     1     3    1
    3     1     4    1
    4     4     5    1
    5     4     6    1
    6     4     7    1
    7     7     8    1
    8     7     9    1
    9     7    10    1
   10    10    11    1
   11     1    12    1
   12    10    12    1
   13    12    13    1
   14    12    14    1
   15    10    15    1
   16    15    16    1
@<TRIPOS>SUBSTRUCTURE
       1 MOL1            1 RESIDUE      1      MOL     
@<SCITEGIC>MOL_PROPERTY
VConf Rank
SciTegic.value.IntegerValue
993

@<SCITEGIC>MOL_PROPERTY
Conf_Id
SciTegic.value.IntegerValue
20

@<SCITEGIC>MOL_PROPERTY
Delta U+W
SciTegic.value.DoubleValue
-0.483

@<SCITEGIC>MOL_PROPERTY
U+W
SciTegic.value.DoubleValue
2.527

@<SCITEGIC>MOL_PROPERTY
Grad RMS
SciTegic.value.DoubleValue
0.000000

@<SCITEGIC>MOL_PROPERTY
U
SciTegic.value.DoubleValue
4.508

@<SCITEGIC>MOL_PROPERTY
W
SciTegic.value.DoubleValue
-1.981

@<SCITEGIC>MOL_PROPERTY
W(PB)
SciTegic.value.DoubleValue
-3.712

@<SCITEGIC>MOL_PROPERTY
W(SA)
SciTegic.value.DoubleValue
1.732

@<SCITEGIC>MOL_PROPERTY
Valence
SciTegic.value.DoubleValue
14.705

@<SCITEGIC>MOL_PROPERTY
Coulomb
SciTegic.value.DoubleValue
-10.687

@<SCITEGIC>MOL_PROPERTY
VdW
SciTegic.value.DoubleValue
0.490

@<SCITEGIC>MOL_PROPERTY
VdW6
SciTegic.value.DoubleValue
-3.745

@<SCITEGIC>MOL_PROPERTY
VdW12
SciTegic.value.DoubleValue
4.235

@<SCITEGIC>MOL_PROPERTY
Bond
SciTegic.value.DoubleValue
0.068

@<SCITEGIC>MOL_PROPERTY
Angle
SciTegic.value.DoubleValue
3.901

@<SCITEGIC>MOL_PROPERTY
Pdih
SciTegic.value.DoubleValue
10.737

@<SCITEGIC>MOL_PROPERTY
Idih
SciTegic.value.DoubleValue
0.000

@<SCITEGIC>MOL_PROPERTY
Tether
SciTegic.value.DoubleValue
0.000

@<TRIPOS>MOLECULE
guest-4_confgen4.mol2 : confsearch ligand conformer 994
          16          16           1
SMALL
USER_CHARGES
 
@<TRIPOS>ATOM
       1    C1      18.937034   19.757115   21.614748 C.3        1 MOL1        -0.1689
       2    H1      19.732728   20.490505   21.806285 H          1 MOL1         0.0830
       3    H2      18.200894   20.216141   20.940925 H          1 MOL1         0.0830
       4    C2      18.315953   19.312570   22.946050 C.3        1 MOL1        -0.1689
       5    H3      18.203692   20.145336   23.653622 H          1 MOL1         0.0830
       6    H4      17.322300   18.879901   22.764181 H          1 MOL1         0.0830
       7    C3      19.270414   18.223680   23.469385 C.3        1 MOL1        -0.1765
       8    H5      18.739432   17.487997   24.087183 H          1 MOL1         0.0830
       9    H6      20.046600   18.689519   24.091730 H          1 MOL1         0.0830
      10    C4      19.905140   17.567180   22.225275 C.3        1 MOL1         0.1214
      11    H7      19.474043   16.568077   22.065690 H          1 MOL1         0.0787
      12    C5      19.550289   18.472463   21.027621 C.3        1 MOL1        -0.1765
      13    H8      20.422991   18.692155   20.398218 H          1 MOL1         0.0830
      14    H9      18.807052   17.962323   20.401172 H          1 MOL1         0.0830
      15    O1      21.317236   17.487613   22.378713 O.3        1 MOL1        -0.5512
      16    H10     21.483769   16.912959   23.155612 H          1 MOL1         0.3776
@<TRIPOS>BOND
    1     1     2    1
    2     1     3    1
    3     1     4    1
    4     4     5    1
    5     4     6    1
    6     4     7    1
    7     7     8    1
    8     7     9    1
    9     7    10    1
   10    10    11    1
   11     1    12    1
   12    10    12    1
   13    12    13    1
   14    12    14    1
   15    10    15    1
   16    15    16    1
@<TRIPOS>SUBSTRUCTURE
       1 MOL1            1 RESIDUE      1      MOL     
@<SCITEGIC>MOL_PROPERTY
VConf Rank
SciTegic.value.IntegerValue
994

@<SCITEGIC>MOL_PROPERTY
Conf_Id
SciTegic.value.IntegerValue
59

@<SCITEGIC>MOL_PROPERTY
Delta U+W
SciTegic.value.DoubleValue
0.000

@<SCITEGIC>MOL_PROPERTY
U+W
SciTegic.value.DoubleValue
3.010

@<SCITEGIC>MOL_PROPERTY
Grad RMS
SciTegic.value.DoubleValue
0.000000

@<SCITEGIC>MOL_PROPERTY
U
SciTegic.value.DoubleValue
5.843

@<SCITEGIC>MOL_PROPERTY
W
SciTegic.value.DoubleValue
-2.833

@<SCITEGIC>MOL_PROPERTY
W(PB)
SciTegic.value.DoubleValue
-4.568

@<SCITEGIC>MOL_PROPERTY
W(SA)
SciTegic.value.DoubleValue
1.735

@<SCITEGIC>MOL_PROPERTY
Valence
SciTegic.value.DoubleValue
13.789

@<SCITEGIC>MOL_PROPERTY
Coulomb
SciTegic.value.DoubleValue
-8.574

@<SCITEGIC>MOL_PROPERTY
VdW
SciTegic.value.DoubleValue
0.628

@<SCITEGIC>MOL_PROPERTY
VdW6
SciTegic.value.DoubleValue
-3.284

@<SCITEGIC>MOL_PROPERTY
VdW12
SciTegic.value.DoubleValue
3.912

@<SCITEGIC>MOL_PROPERTY
Bond
SciTegic.value.DoubleValue
0.054

@<SCITEGIC>MOL_PROPERTY
Angle
SciTegic.value.DoubleValue
4.034

@<SCITEGIC>MOL_PROPERTY
Pdih
SciTegic.value.DoubleValue
9.702

@<SCITEGIC>MOL_PROPERTY
Idih
SciTegic.value.DoubleValue
0.000

@<SCITEGIC>MOL_PROPERTY
Tether
SciTegic.value.DoubleValue
0.000

@<TRIPOS>MOLECULE
guest-4_confgen4.mol2 : confsearch ligand conformer 995
          16          16           1
SMALL
USER_CHARGES
 
@<TRIPOS>ATOM
       1    C1      20.317198   18.156615   23.343328 C.3        1 MOL1        -0.1689
       2    H1      21.328721   18.343208   23.729025 H          1 MOL1         0.0830
       3    H2      19.794868   17.499476   24.052526 H          1 MOL1         0.0830
       4    C2      20.333041   17.506804   21.952925 C.3        1 MOL1        -0.1689
       5    H3      21.131184   17.955976   21.345560 H          1 MOL1         0.0830
       6    H4      20.503958   16.422664   21.998423 H          1 MOL1         0.0830
       7    C3      18.962547   17.860716   21.346651 C.3        1 MOL1        -0.1765
       8    H5      18.234668   17.078980   21.599958 H          1 MOL1         0.0830
       9    H6      19.010528   17.929973   20.251698 H          1 MOL1         0.0830
      10    C4      18.522702   19.187854   21.998602 C.3        1 MOL1         0.1214
      11    H7      17.504078   19.076373   22.397973 H          1 MOL1         0.0787
      12    C5      19.514948   19.456429   23.149710 C.3        1 MOL1        -0.1765
      13    H8      20.201429   20.270045   22.878500 H          1 MOL1         0.0830
      14    H9      18.994518   19.747564   24.071252 H          1 MOL1         0.0830
      15    O1      18.577554   20.243789   21.046820 O.3        1 MOL1        -0.5512
      16    H10     18.300676   21.059445   21.515407 H          1 MOL1         0.3776
@<TRIPOS>BOND
    1     1     2    1
    2     1     3    1
    3     1     4    1
    4     4     5    1
    5     4     6    1
    6     4     7    1
    7     7     8    1
    8     7     9    1
    9     7    10    1
   10    10    11    1
   11     1    12    1
   12    10    12    1
   13    12    13    1
   14    12    14    1
   15    10    15    1
   16    15    16    1
@<TRIPOS>SUBSTRUCTURE
       1 MOL1            1 RESIDUE      1      MOL     
@<SCITEGIC>MOL_PROPERTY
VConf Rank
SciTegic.value.IntegerValue
995

@<SCITEGIC>MOL_PROPERTY
Conf_Id
SciTegic.value.IntegerValue
33

@<SCITEGIC>MOL_PROPERTY
Delta U+W
SciTegic.value.DoubleValue
0.015

@<SCITEGIC>MOL_PROPERTY
U+W
SciTegic.value.DoubleValue
3.025

@<SCITEGIC>MOL_PROPERTY
Grad RMS
SciTegic.value.DoubleValue
0.000000

@<SCITEGIC>MOL_PROPERTY
U
SciTegic.value.DoubleValue
5.843

@<SCITEGIC>MOL_PROPERTY
W
SciTegic.value.DoubleValue
-2.819

@<SCITEGIC>MOL_PROPERTY
W(PB)
SciTegic.value.DoubleValue
-4.568

@<SCITEGIC>MOL_PROPERTY
W(SA)
SciTegic.value.DoubleValue
1.750

@<SCITEGIC>MOL_PROPERTY
Valence
SciTegic.value.DoubleValue
13.789

@<SCITEGIC>MOL_PROPERTY
Coulomb
SciTegic.value.DoubleValue
-8.574

@<SCITEGIC>MOL_PROPERTY
VdW
SciTegic.value.DoubleValue
0.628

@<SCITEGIC>MOL_PROPERTY
VdW6
SciTegic.value.DoubleValue
-3.284

@<SCITEGIC>MOL_PROPERTY
VdW12
SciTegic.value.DoubleValue
3.913

@<SCITEGIC>MOL_PROPERTY
Bond
SciTegic.value.DoubleValue
0.054

@<SCITEGIC>MOL_PROPERTY
Angle
SciTegic.value.DoubleValue
4.033

@<SCITEGIC>MOL_PROPERTY
Pdih
SciTegic.value.DoubleValue
9.702

@<SCITEGIC>MOL_PROPERTY
Idih
SciTegic.value.DoubleValue
0.000

@<SCITEGIC>MOL_PROPERTY
Tether
SciTegic.value.DoubleValue
0.000

@<TRIPOS>MOLECULE
guest-4_confgen4.mol2 : confsearch ligand conformer 996
          16          16           1
SMALL
USER_CHARGES
 
@<TRIPOS>ATOM
       1    C1      18.589800   17.816133   22.987999 C.3        1 MOL1        -0.1689
       2    H1      18.555576   18.071197   24.056175 H          1 MOL1         0.0830
       3    H2      17.923413   16.957290   22.828896 H          1 MOL1         0.0830
       4    C2      20.041436   17.493415   22.571314 C.3        1 MOL1        -0.1689
       5    H3      20.709590   17.591259   23.438045 H          1 MOL1         0.0830
       6    H4      20.134204   16.466050   22.193274 H          1 MOL1         0.0830
       7    C3      20.423611   18.520976   21.484807 C.3        1 MOL1        -0.1765
       8    H5      20.290003   18.071782   20.491835 H          1 MOL1         0.0830
       9    H6      21.469892   18.844252   21.567248 H          1 MOL1         0.0830
      10    C4      19.440416   19.689019   21.639712 C.3        1 MOL1         0.1214
      11    H7      19.284236   20.215479   20.687120 H          1 MOL1         0.0787
      12    C5      18.148880   19.025816   22.136756 C.3        1 MOL1        -0.1765
      13    H8      17.513956   19.722254   22.700538 H          1 MOL1         0.0830
      14    H9      17.572419   18.674441   21.270817 H          1 MOL1         0.0830
      15    O1      19.923353   20.577809   22.636522 O.3        1 MOL1        -0.5512
      16    H10     20.030966   20.026592   23.438857 H          1 MOL1         0.3776
@<TRIPOS>BOND
    1     1     2    1
    2     1     3    1
    3     1     4    1
    4     4     5    1
    5     4     6    1
    6     4     7    1
    7     7     8    1
    8     7     9    1
    9     7    10    1
   10    10    11    1
   11     1    12    1
   12    10    12    1
   13    12    13    1
   14    12    14    1
   15    10    15    1
   16    15    16    1
@<TRIPOS>SUBSTRUCTURE
       1 MOL1            1 RESIDUE      1      MOL     
@<SCITEGIC>MOL_PROPERTY
VConf Rank
SciTegic.value.IntegerValue
996

@<SCITEGIC>MOL_PROPERTY
Conf_Id
SciTegic.value.IntegerValue
20

@<SCITEGIC>MOL_PROPERTY
Delta U+W
SciTegic.value.DoubleValue
-0.483

@<SCITEGIC>MOL_PROPERTY
U+W
SciTegic.value.DoubleValue
2.527

@<SCITEGIC>MOL_PROPERTY
Grad RMS
SciTegic.value.DoubleValue
0.000000

@<SCITEGIC>MOL_PROPERTY
U
SciTegic.value.DoubleValue
4.508

@<SCITEGIC>MOL_PROPERTY
W
SciTegic.value.DoubleValue
-1.981

@<SCITEGIC>MOL_PROPERTY
W(PB)
SciTegic.value.DoubleValue
-3.712

@<SCITEGIC>MOL_PROPERTY
W(SA)
SciTegic.value.DoubleValue
1.732

@<SCITEGIC>MOL_PROPERTY
Valence
SciTegic.value.DoubleValue
14.705

@<SCITEGIC>MOL_PROPERTY
Coulomb
SciTegic.value.DoubleValue
-10.687

@<SCITEGIC>MOL_PROPERTY
VdW
SciTegic.value.DoubleValue
0.490

@<SCITEGIC>MOL_PROPERTY
VdW6
SciTegic.value.DoubleValue
-3.745

@<SCITEGIC>MOL_PROPERTY
VdW12
SciTegic.value.DoubleValue
4.235

@<SCITEGIC>MOL_PROPERTY
Bond
SciTegic.value.DoubleValue
0.068

@<SCITEGIC>MOL_PROPERTY
Angle
SciTegic.value.DoubleValue
3.901

@<SCITEGIC>MOL_PROPERTY
Pdih
SciTegic.value.DoubleValue
10.737

@<SCITEGIC>MOL_PROPERTY
Idih
SciTegic.value.DoubleValue
0.000

@<SCITEGIC>MOL_PROPERTY
Tether
SciTegic.value.DoubleValue
0.000

@<TRIPOS>MOLECULE
guest-4_confgen4.mol2 : confsearch ligand conformer 997
          16          16           1
SMALL
USER_CHARGES
 
@<TRIPOS>ATOM
       1    C1      18.834843   17.901499   21.125018 C.3        1 MOL1        -0.1689
       2    H1      18.313911   17.008200   21.496939 H          1 MOL1         0.0830
       3    H2      18.694178   17.953802   20.036845 H          1 MOL1         0.0830
       4    C2      20.315960   17.835853   21.522144 C.3        1 MOL1        -0.1689
       5    H3      20.728590   16.821859   21.430982 H          1 MOL1         0.0830
       6    H4      20.901840   18.504577   20.876250 H          1 MOL1         0.0830
       7    C3      20.347106   18.352933   22.972046 C.3        1 MOL1        -0.1765
       8    H5      21.304789   18.835997   23.205153 H          1 MOL1         0.0830
       9    H6      20.218759   17.507754   23.661962 H          1 MOL1         0.0830
      10    C4      19.166959   19.338063   23.107888 C.3        1 MOL1         0.1214
      11    H7      19.541314   20.371666   23.140178 H          1 MOL1         0.0787
      12    C5      18.297087   19.150333   21.847764 C.3        1 MOL1        -0.1765
      13    H8      17.230383   19.049977   22.088792 H          1 MOL1         0.0830
      14    H9      18.411487   20.028969   21.199696 H          1 MOL1         0.0830
      15    O1      18.410417   19.039865   24.275198 O.3        1 MOL1        -0.5512
      16    H10     19.011944   19.164187   25.039555 H          1 MOL1         0.3776
@<TRIPOS>BOND
    1     1     2    1
    2     1     3    1
    3     1     4    1
    4     4     5    1
    5     4     6    1
    6     4     7    1
    7     7     8    1
    8     7     9    1
    9     7    10    1
   10    10    11    1
   11     1    12    1
   12    10    12    1
   13    12    13    1
   14    12    14    1
   15    10    15    1
   16    15    16    1
@<TRIPOS>SUBSTRUCTURE
       1 MOL1            1 RESIDUE      1      MOL     
@<SCITEGIC>MOL_PROPERTY
VConf Rank
SciTegic.value.IntegerValue
997

@<SCITEGIC>MOL_PROPERTY
Conf_Id
SciTegic.value.IntegerValue
59

@<SCITEGIC>MOL_PROPERTY
Delta U+W
SciTegic.value.DoubleValue
0.000

@<SCITEGIC>MOL_PROPERTY
U+W
SciTegic.value.DoubleValue
3.010

@<SCITEGIC>MOL_PROPERTY
Grad RMS
SciTegic.value.DoubleValue
0.000000

@<SCITEGIC>MOL_PROPERTY
U
SciTegic.value.DoubleValue
5.843

@<SCITEGIC>MOL_PROPERTY
W
SciTegic.value.DoubleValue
-2.833

@<SCITEGIC>MOL_PROPERTY
W(PB)
SciTegic.value.DoubleValue
-4.568

@<SCITEGIC>MOL_PROPERTY
W(SA)
SciTegic.value.DoubleValue
1.735

@<SCITEGIC>MOL_PROPERTY
Valence
SciTegic.value.DoubleValue
13.789

@<SCITEGIC>MOL_PROPERTY
Coulomb
SciTegic.value.DoubleValue
-8.574

@<SCITEGIC>MOL_PROPERTY
VdW
SciTegic.value.DoubleValue
0.628

@<SCITEGIC>MOL_PROPERTY
VdW6
SciTegic.value.DoubleValue
-3.284

@<SCITEGIC>MOL_PROPERTY
VdW12
SciTegic.value.DoubleValue
3.912

@<SCITEGIC>MOL_PROPERTY
Bond
SciTegic.value.DoubleValue
0.054

@<SCITEGIC>MOL_PROPERTY
Angle
SciTegic.value.DoubleValue
4.034

@<SCITEGIC>MOL_PROPERTY
Pdih
SciTegic.value.DoubleValue
9.702

@<SCITEGIC>MOL_PROPERTY
Idih
SciTegic.value.DoubleValue
0.000

@<SCITEGIC>MOL_PROPERTY
Tether
SciTegic.value.DoubleValue
0.000

@<TRIPOS>MOLECULE
guest-4_confgen4.mol2 : confsearch ligand conformer 998
          16          16           1
SMALL
USER_CHARGES
 
@<TRIPOS>ATOM
       1    C1      19.632259   17.714854   21.186610 C.3        1 MOL1        -0.1689
       2    H1      19.400427   17.657402   20.114364 H          1 MOL1         0.0830
       3    H2      20.289752   16.872061   21.441610 H          1 MOL1         0.0830
       4    C2      18.371051   17.668373   22.060063 C.3        1 MOL1        -0.1689
       5    H3      17.574166   18.259847   21.588034 H          1 MOL1         0.0830
       6    H4      17.999468   16.645053   22.206293 H          1 MOL1         0.0830
       7    C3      18.793465   18.334752   23.382403 C.3        1 MOL1        -0.1765
       8    H5      19.183630   17.573504   24.070413 H          1 MOL1         0.0830
       9    H6      17.945103   18.827378   23.875982 H          1 MOL1         0.0830
      10    C4      19.923990   19.325002   23.034386 C.3        1 MOL1         0.1214
      11    H7      20.783893   19.141426   23.694981 H          1 MOL1         0.0787
      12    C5      20.314089   19.041494   21.568377 C.3        1 MOL1        -0.1765
      13    H8      19.943025   19.842107   20.914074 H          1 MOL1         0.0830
      14    H9      21.403189   18.982763   21.444855 H          1 MOL1         0.0830
      15    O1      19.462204   20.663820   23.169359 O.3        1 MOL1        -0.5512
      16    H10     20.212905   21.246076   22.926553 H          1 MOL1         0.3776
@<TRIPOS>BOND
    1     1     2    1
    2     1     3    1
    3     1     4    1
    4     4     5    1
    5     4     6    1
    6     4     7    1
    7     7     8    1
    8     7     9    1
    9     7    10    1
   10    10    11    1
   11     1    12    1
   12    10    12    1
   13    12    13    1
   14    12    14    1
   15    10    15    1
   16    15    16    1
@<TRIPOS>SUBSTRUCTURE
       1 MOL1            1 RESIDUE      1      MOL     
@<SCITEGIC>MOL_PROPERTY
VConf Rank
SciTegic.value.IntegerValue
998

@<SCITEGIC>MOL_PROPERTY
Conf_Id
SciTegic.value.IntegerValue
33

@<SCITEGIC>MOL_PROPERTY
Delta U+W
SciTegic.value.DoubleValue
0.015

@<SCITEGIC>MOL_PROPERTY
U+W
SciTegic.value.DoubleValue
3.025

@<SCITEGIC>MOL_PROPERTY
Grad RMS
SciTegic.value.DoubleValue
0.000000

@<SCITEGIC>MOL_PROPERTY
U
SciTegic.value.DoubleValue
5.843

@<SCITEGIC>MOL_PROPERTY
W
SciTegic.value.DoubleValue
-2.819

@<SCITEGIC>MOL_PROPERTY
W(PB)
SciTegic.value.DoubleValue
-4.568

@<SCITEGIC>MOL_PROPERTY
W(SA)
SciTegic.value.DoubleValue
1.750

@<SCITEGIC>MOL_PROPERTY
Valence
SciTegic.value.DoubleValue
13.789

@<SCITEGIC>MOL_PROPERTY
Coulomb
SciTegic.value.DoubleValue
-8.574

@<SCITEGIC>MOL_PROPERTY
VdW
SciTegic.value.DoubleValue
0.628

@<SCITEGIC>MOL_PROPERTY
VdW6
SciTegic.value.DoubleValue
-3.284

@<SCITEGIC>MOL_PROPERTY
VdW12
SciTegic.value.DoubleValue
3.913

@<SCITEGIC>MOL_PROPERTY
Bond
SciTegic.value.DoubleValue
0.054

@<SCITEGIC>MOL_PROPERTY
Angle
SciTegic.value.DoubleValue
4.033

@<SCITEGIC>MOL_PROPERTY
Pdih
SciTegic.value.DoubleValue
9.702

@<SCITEGIC>MOL_PROPERTY
Idih
SciTegic.value.DoubleValue
0.000

@<SCITEGIC>MOL_PROPERTY
Tether
SciTegic.value.DoubleValue
0.000

@<TRIPOS>MOLECULE
guest-4_confgen4.mol2 : confsearch ligand conformer 999
          16          16           1
SMALL
USER_CHARGES
 
@<TRIPOS>ATOM
       1    C1      20.284098   18.152453   23.126911 C.3        1 MOL1        -0.1689
       2    H1      19.914972   17.355608   23.787222 H          1 MOL1         0.0830
       3    H2      21.338714   18.331200   23.377574 H          1 MOL1         0.0830
       4    C2      19.431986   19.426732   23.314367 C.3        1 MOL1        -0.1689
       5    H3      18.651142   19.246939   24.066154 H          1 MOL1         0.0830
       6    H4      20.041071   20.272355   23.662126 H          1 MOL1         0.0830
       7    C3      18.791970   19.730888   21.943125 C.3        1 MOL1        -0.1765
       8    H5      19.387074   20.491868   21.421223 H          1 MOL1         0.0830
       9    H6      17.767517   20.114962   22.037936 H          1 MOL1         0.0830
      10    C4      18.850037   18.420356   21.146804 C.3        1 MOL1         0.1214
      11    H7      18.889580   18.606360   20.063835 H          1 MOL1         0.0787
      12    C5      20.127973   17.735151   21.649129 C.3        1 MOL1        -0.1765
      13    H8      20.091019   16.644492   21.526241 H          1 MOL1         0.0830
      14    H9      20.983418   18.107785   21.070354 H          1 MOL1         0.0830
      15    O1      17.726736   17.618925   21.482527 O.3        1 MOL1        -0.5512
      16    H10     17.774446   17.507689   22.454387 H          1 MOL1         0.3776
@<TRIPOS>BOND
    1     1     2    1
    2     1     3    1
    3     1     4    1
    4     4     5    1
    5     4     6    1
    6     4     7    1
    7     7     8    1
    8     7     9    1
    9     7    10    1
   10    10    11    1
   11     1    12    1
   12    10    12    1
   13    12    13    1
   14    12    14    1
   15    10    15    1
   16    15    16    1
@<TRIPOS>SUBSTRUCTURE
       1 MOL1            1 RESIDUE      1      MOL     
@<SCITEGIC>MOL_PROPERTY
VConf Rank
SciTegic.value.IntegerValue
999

@<SCITEGIC>MOL_PROPERTY
Conf_Id
SciTegic.value.IntegerValue
20

@<SCITEGIC>MOL_PROPERTY
Delta U+W
SciTegic.value.DoubleValue
-0.483

@<SCITEGIC>MOL_PROPERTY
U+W
SciTegic.value.DoubleValue
2.527

@<SCITEGIC>MOL_PROPERTY
Grad RMS
SciTegic.value.DoubleValue
0.000000

@<SCITEGIC>MOL_PROPERTY
U
SciTegic.value.DoubleValue
4.508

@<SCITEGIC>MOL_PROPERTY
W
SciTegic.value.DoubleValue
-1.981

@<SCITEGIC>MOL_PROPERTY
W(PB)
SciTegic.value.DoubleValue
-3.712

@<SCITEGIC>MOL_PROPERTY
W(SA)
SciTegic.value.DoubleValue
1.732

@<SCITEGIC>MOL_PROPERTY
Valence
SciTegic.value.DoubleValue
14.705

@<SCITEGIC>MOL_PROPERTY
Coulomb
SciTegic.value.DoubleValue
-10.687

@<SCITEGIC>MOL_PROPERTY
VdW
SciTegic.value.DoubleValue
0.490

@<SCITEGIC>MOL_PROPERTY
VdW6
SciTegic.value.DoubleValue
-3.745

@<SCITEGIC>MOL_PROPERTY
VdW12
SciTegic.value.DoubleValue
4.235

@<SCITEGIC>MOL_PROPERTY
Bond
SciTegic.value.DoubleValue
0.068

@<SCITEGIC>MOL_PROPERTY
Angle
SciTegic.value.DoubleValue
3.901

@<SCITEGIC>MOL_PROPERTY
Pdih
SciTegic.value.DoubleValue
10.737

@<SCITEGIC>MOL_PROPERTY
Idih
SciTegic.value.DoubleValue
0.000

@<SCITEGIC>MOL_PROPERTY
Tether
SciTegic.value.DoubleValue
0.000

