VeraChem MOL file


 16 16  0  0  0  0  0  0  0  0999 V2000     
   19.5353   19.3603   21.1173 C   0  0  0  0  0  0  0  0  0  0  0  0
   19.0731   20.3284   21.3556 H   0  0  0  0  0  0  0  0  0  0  0  0
   19.9784   19.4281   20.1145 H   0  0  0  0  0  0  0  0  0  0  0  0
   18.4820   18.2485   21.2188 C   0  0  0  0  0  0  0  0  0  0  0  0
   17.5065   18.5594   20.8207 H   0  0  0  0  0  0  0  0  0  0  0  0
   18.8186   17.3677   20.6544 H   0  0  0  0  0  0  0  0  0  0  0  0
   18.4222   17.9134   22.7204 C   0  0  0  0  0  0  0  0  0  0  0  0
   18.1394   16.8659   22.8866 H   0  0  0  0  0  0  0  0  0  0  0  0
   17.6670   18.5477   23.2043 H   0  0  0  0  0  0  0  0  0  0  0  0
   19.8231   18.2201   23.2906 C   0  0  0  0  0  0  0  0  0  0  0  0
   20.3588   17.2822   23.4975 H   0  0  0  0  0  0  0  0  0  0  0  0
   20.5750   19.0057   22.1964 C   0  0  0  0  0  0  0  0  0  0  0  0
   21.0688   19.9031   22.5924 H   0  0  0  0  0  0  0  0  0  0  0  0
   21.3512   18.3617   21.7628 H   0  0  0  0  0  0  0  0  0  0  0  0
   19.7114   19.0070   24.4705 O   0  0  0  0  0  0  0  0  0  0  0  0
   19.2187   18.4663   25.1236 H   0  0  0  0  0  0  0  0  0  0  0  0
  1  2  1  0  0  0  0
  1  3  1  0  0  0  0
  1  4  1  0  0  0  0
  4  5  1  0  0  0  0
  4  6  1  0  0  0  0
  4  7  1  0  0  0  0
  7  8  1  0  0  0  0
  7  9  1  0  0  0  0
  7 10  1  0  0  0  0
 10 11  1  0  0  0  0
  1 12  1  0  0  0  0
 10 12  1  0  0  0  0
 12 13  1  0  0  0  0
 12 14  1  0  0  0  0
 10 15  1  0  0  0  0
 15 16  1  0  0  0  0
M  END
> <VConfSearch Rank>
1

> <Conf_Id>
59

> <Delta U+W>
0.000

> <U+W>
3.010

> <U>
5.843

> <W>
-2.833

> <W(PB)>
-4.568

> <W(SA)>
1.735

> <Valence>
13.789

> <Coulomb>
-8.574

> <VdW>
0.628

> <VdW6>
-3.284

> <VdW12>
3.912

> <Bond>
0.054

> <Angle>
4.034

> <Pdih>
9.702

> <Idih>
0.000

> <Tether>
0.000

$$$$
VeraChem MOL file


 16 16  0  0  0  0  0  0  0  0999 V2000     
   19.7039   19.0061   20.9352 C   0  0  0  0  0  0  0  0  0  0  0  0
   19.6888   19.9124   20.3145 H   0  0  0  0  0  0  0  0  0  0  0  0
   20.1487   18.1928   20.3450 H   0  0  0  0  0  0  0  0  0  0  0  0
   18.3012   18.5960   21.4043 C   0  0  0  0  0  0  0  0  0  0  0  0
   17.7248   19.4932   21.6699 H   0  0  0  0  0  0  0  0  0  0  0  0
   17.7452   18.0456   20.6332 H   0  0  0  0  0  0  0  0  0  0  0  0
   18.5492   17.7499   22.6667 C   0  0  0  0  0  0  0  0  0  0  0  0
   18.6613   16.6944   22.3866 H   0  0  0  0  0  0  0  0  0  0  0  0
   17.7106   17.8208   23.3721 H   0  0  0  0  0  0  0  0  0  0  0  0
   19.8735   18.2511   23.2790 C   0  0  0  0  0  0  0  0  0  0  0  0
   20.5391   17.3939   23.4564 H   0  0  0  0  0  0  0  0  0  0  0  0
   20.5017   19.2011   22.2375 C   0  0  0  0  0  0  0  0  0  0  0  0
   20.4077   20.2444   22.5684 H   0  0  0  0  0  0  0  0  0  0  0  0
   21.5685   18.9891   22.0899 H   0  0  0  0  0  0  0  0  0  0  0  0
   19.6195   18.9508   24.4914 O   0  0  0  0  0  0  0  0  0  0  0  0
   20.4889   19.2544   24.8283 H   0  0  0  0  0  0  0  0  0  0  0  0
  1  2  1  0  0  0  0
  1  3  1  0  0  0  0
  1  4  1  0  0  0  0
  4  5  1  0  0  0  0
  4  6  1  0  0  0  0
  4  7  1  0  0  0  0
  7  8  1  0  0  0  0
  7  9  1  0  0  0  0
  7 10  1  0  0  0  0
 10 11  1  0  0  0  0
  1 12  1  0  0  0  0
 10 12  1  0  0  0  0
 12 13  1  0  0  0  0
 12 14  1  0  0  0  0
 10 15  1  0  0  0  0
 15 16  1  0  0  0  0
M  END
> <VConfSearch Rank>
2

> <Conf_Id>
33

> <Delta U+W>
0.015

> <U+W>
3.025

> <U>
5.843

> <W>
-2.819

> <W(PB)>
-4.568

> <W(SA)>
1.750

> <Valence>
13.789

> <Coulomb>
-8.574

> <VdW>
0.628

> <VdW6>
-3.284

> <VdW12>
3.913

> <Bond>
0.054

> <Angle>
4.033

> <Pdih>
9.702

> <Idih>
0.000

> <Tether>
0.000

$$$$
VeraChem MOL file


 16 16  0  0  0  0  0  0  0  0999 V2000     
   19.5912   19.3578   21.1715 C   0  0  0  0  0  0  0  0  0  0  0  0
   19.4089   20.4313   21.3184 H   0  0  0  0  0  0  0  0  0  0  0  0
   19.9249   19.2153   20.1345 H   0  0  0  0  0  0  0  0  0  0  0  0
   18.3020   18.5608   21.4678 C   0  0  0  0  0  0  0  0  0  0  0  0
   17.4955   19.2486   21.7571 H   0  0  0  0  0  0  0  0  0  0  0  0
   17.9619   18.0005   20.5861 H   0  0  0  0  0  0  0  0  0  0  0  0
   18.6351   17.6083   22.6359 C   0  0  0  0  0  0  0  0  0  0  0  0
   18.8765   16.6130   22.2402 H   0  0  0  0  0  0  0  0  0  0  0  0
   17.7946   17.4956   23.3336 H   0  0  0  0  0  0  0  0  0  0  0  0
   19.8815   18.1899   23.3164 C   0  0  0  0  0  0  0  0  0  0  0  0
   20.4781   17.4064   23.8056 H   0  0  0  0  0  0  0  0  0  0  0  0
   20.6552   18.8562   22.1708 C   0  0  0  0  0  0  0  0  0  0  0  0
   21.3079   19.6652   22.5250 H   0  0  0  0  0  0  0  0  0  0  0  0
   21.2898   18.1038   21.6841 H   0  0  0  0  0  0  0  0  0  0  0  0
   19.4840   19.1820   24.2515 O   0  0  0  0  0  0  0  0  0  0  0  0
   18.9645   19.8290   23.7311 H   0  0  0  0  0  0  0  0  0  0  0  0
  1  2  1  0  0  0  0
  1  3  1  0  0  0  0
  1  4  1  0  0  0  0
  4  5  1  0  0  0  0
  4  6  1  0  0  0  0
  4  7  1  0  0  0  0
  7  8  1  0  0  0  0
  7  9  1  0  0  0  0
  7 10  1  0  0  0  0
 10 11  1  0  0  0  0
  1 12  1  0  0  0  0
 10 12  1  0  0  0  0
 12 13  1  0  0  0  0
 12 14  1  0  0  0  0
 10 15  1  0  0  0  0
 15 16  1  0  0  0  0
M  END
> <VConfSearch Rank>
3

> <Conf_Id>
20

> <Delta U+W>
-0.483

> <U+W>
2.527

> <U>
4.508

> <W>
-1.981

> <W(PB)>
-3.712

> <W(SA)>
1.732

> <Valence>
14.705

> <Coulomb>
-10.687

> <VdW>
0.490

> <VdW6>
-3.745

> <VdW12>
4.235

> <Bond>
0.068

> <Angle>
3.901

> <Pdih>
10.737

> <Idih>
0.000

> <Tether>
0.000

$$$$
VeraChem MOL file


 16 16  0  0  0  0  0  0  0  0999 V2000     
   19.3265   19.9719   21.9941 C   0  0  0  0  0  0  0  0  0  0  0  0
   20.3498   20.2141   21.6749 H   0  0  0  0  0  0  0  0  0  0  0  0
   18.7092   20.8739   21.8842 H   0  0  0  0  0  0  0  0  0  0  0  0
   19.3481   19.4486   23.4368 C   0  0  0  0  0  0  0  0  0  0  0  0
   20.0577   19.9983   24.0702 H   0  0  0  0  0  0  0  0  0  0  0  0
   18.3469   19.5440   23.8797 H   0  0  0  0  0  0  0  0  0  0  0  0
   19.7172   17.9602   23.2989 C   0  0  0  0  0  0  0  0  0  0  0  0
   19.2883   17.3634   24.1143 H   0  0  0  0  0  0  0  0  0  0  0  0
   20.8095   17.8515   23.3397 H   0  0  0  0  0  0  0  0  0  0  0  0
   19.1856   17.5060   21.9231 C   0  0  0  0  0  0  0  0  0  0  0  0
   18.2946   16.8746   22.0537 H   0  0  0  0  0  0  0  0  0  0  0  0
   18.7934   18.7901   21.1634 C   0  0  0  0  0  0  0  0  0  0  0  0
   19.1883   18.8053   20.1388 H   0  0  0  0  0  0  0  0  0  0  0  0
   17.6990   18.8483   21.1000 H   0  0  0  0  0  0  0  0  0  0  0  0
   20.1993   16.8055   21.2121 O   0  0  0  0  0  0  0  0  0  0  0  0
   20.4162   16.0098   21.7425 H   0  0  0  0  0  0  0  0  0  0  0  0
  1  2  1  0  0  0  0
  1  3  1  0  0  0  0
  1  4  1  0  0  0  0
  4  5  1  0  0  0  0
  4  6  1  0  0  0  0
  4  7  1  0  0  0  0
  7  8  1  0  0  0  0
  7  9  1  0  0  0  0
  7 10  1  0  0  0  0
 10 11  1  0  0  0  0
  1 12  1  0  0  0  0
 10 12  1  0  0  0  0
 12 13  1  0  0  0  0
 12 14  1  0  0  0  0
 10 15  1  0  0  0  0
 15 16  1  0  0  0  0
M  END
> <VConfSearch Rank>
4

> <Conf_Id>
59

> <Delta U+W>
0.000

> <U+W>
3.010

> <U>
5.843

> <W>
-2.833

> <W(PB)>
-4.568

> <W(SA)>
1.735

> <Valence>
13.789

> <Coulomb>
-8.574

> <VdW>
0.628

> <VdW6>
-3.284

> <VdW12>
3.912

> <Bond>
0.054

> <Angle>
4.034

> <Pdih>
9.702

> <Idih>
0.000

> <Tether>
0.000

$$$$
VeraChem MOL file


 16 16  0  0  0  0  0  0  0  0999 V2000     
   19.4573   18.8630   20.8790 C   0  0  0  0  0  0  0  0  0  0  0  0
   18.7995   18.7367   20.0083 H   0  0  0  0  0  0  0  0  0  0  0  0
   20.3292   19.4553   20.5679 H   0  0  0  0  0  0  0  0  0  0  0  0
   19.9250   17.5204   21.4572 C   0  0  0  0  0  0  0  0  0  0  0  0
   19.0951   16.8004   21.4342 H   0  0  0  0  0  0  0  0  0  0  0  0
   20.7673   17.0927   20.8966 H   0  0  0  0  0  0  0  0  0  0  0  0
   20.2924   17.8373   22.9186 C   0  0  0  0  0  0  0  0  0  0  0  0
   21.3502   18.1243   22.9787 H   0  0  0  0  0  0  0  0  0  0  0  0
   20.1453   16.9659   23.5706 H   0  0  0  0  0  0  0  0  0  0  0  0
   19.4207   19.0381   23.3407 C   0  0  0  0  0  0  0  0  0  0  0  0
   20.0631   19.8194   23.7724 H   0  0  0  0  0  0  0  0  0  0  0  0
   18.7468   19.5596   22.0540 C   0  0  0  0  0  0  0  0  0  0  0  0
   17.6819   19.2899   22.0459 H   0  0  0  0  0  0  0  0  0  0  0  0
   18.8185   20.6520   21.9753 H   0  0  0  0  0  0  0  0  0  0  0  0
   18.4342   18.6228   24.2779 O   0  0  0  0  0  0  0  0  0  0  0  0
   17.9058   19.4181   24.5010 H   0  0  0  0  0  0  0  0  0  0  0  0
  1  2  1  0  0  0  0
  1  3  1  0  0  0  0
  1  4  1  0  0  0  0
  4  5  1  0  0  0  0
  4  6  1  0  0  0  0
  4  7  1  0  0  0  0
  7  8  1  0  0  0  0
  7  9  1  0  0  0  0
  7 10  1  0  0  0  0
 10 11  1  0  0  0  0
  1 12  1  0  0  0  0
 10 12  1  0  0  0  0
 12 13  1  0  0  0  0
 12 14  1  0  0  0  0
 10 15  1  0  0  0  0
 15 16  1  0  0  0  0
M  END
> <VConfSearch Rank>
5

> <Conf_Id>
33

> <Delta U+W>
0.015

> <U+W>
3.025

> <U>
5.843

> <W>
-2.819

> <W(PB)>
-4.568

> <W(SA)>
1.750

> <Valence>
13.789

> <Coulomb>
-8.574

> <VdW>
0.628

> <VdW6>
-3.284

> <VdW12>
3.913

> <Bond>
0.054

> <Angle>
4.033

> <Pdih>
9.702

> <Idih>
0.000

> <Tether>
0.000

$$$$
VeraChem MOL file


 16 16  0  0  0  0  0  0  0  0999 V2000     
   20.4182   18.2032   22.9914 C   0  0  0  0  0  0  0  0  0  0  0  0
   20.7304   18.9153   23.7677 H   0  0  0  0  0  0  0  0  0  0  0  0
   21.0720   17.3233   23.0639 H   0  0  0  0  0  0  0  0  0  0  0  0
   20.5125   18.8677   21.6005 C   0  0  0  0  0  0  0  0  0  0  0  0
   20.8713   19.9011   21.7036 H   0  0  0  0  0  0  0  0  0  0  0  0
   21.2149   18.3348   20.9451 H   0  0  0  0  0  0  0  0  0  0  0  0
   19.0857   18.8549   21.0118 C   0  0  0  0  0  0  0  0  0  0  0  0
   18.9766   17.9987   20.3331 H   0  0  0  0  0  0  0  0  0  0  0  0
   18.8635   19.7654   20.4394 H   0  0  0  0  0  0  0  0  0  0  0  0
   18.1359   18.6708   22.2030 C   0  0  0  0  0  0  0  0  0  0  0  0
   17.2016   18.1751   21.9026 H   0  0  0  0  0  0  0  0  0  0  0  0
   18.9382   17.8127   23.1904 C   0  0  0  0  0  0  0  0  0  0  0  0
   18.6067   17.9527   24.2279 H   0  0  0  0  0  0  0  0  0  0  0  0
   18.8008   16.7536   22.9358 H   0  0  0  0  0  0  0  0  0  0  0  0
   17.8718   19.9364   22.7905 O   0  0  0  0  0  0  0  0  0  0  0  0
   18.7517   20.2980   23.0231 H   0  0  0  0  0  0  0  0  0  0  0  0
  1  2  1  0  0  0  0
  1  3  1  0  0  0  0
  1  4  1  0  0  0  0
  4  5  1  0  0  0  0
  4  6  1  0  0  0  0
  4  7  1  0  0  0  0
  7  8  1  0  0  0  0
  7  9  1  0  0  0  0
  7 10  1  0  0  0  0
 10 11  1  0  0  0  0
  1 12  1  0  0  0  0
 10 12  1  0  0  0  0
 12 13  1  0  0  0  0
 12 14  1  0  0  0  0
 10 15  1  0  0  0  0
 15 16  1  0  0  0  0
M  END
> <VConfSearch Rank>
6

> <Conf_Id>
20

> <Delta U+W>
-0.483

> <U+W>
2.527

> <U>
4.508

> <W>
-1.981

> <W(PB)>
-3.712

> <W(SA)>
1.732

> <Valence>
14.705

> <Coulomb>
-10.687

> <VdW>
0.490

> <VdW6>
-3.745

> <VdW12>
4.235

> <Bond>
0.068

> <Angle>
3.901

> <Pdih>
10.737

> <Idih>
0.000

> <Tether>
0.000

$$$$
VeraChem MOL file


 16 16  0  0  0  0  0  0  0  0999 V2000     
   20.1452   17.3931   21.9317 C   0  0  0  0  0  0  0  0  0  0  0  0
   19.5182   16.8494   21.2113 H   0  0  0  0  0  0  0  0  0  0  0  0
   21.1076   16.8699   22.0139 H   0  0  0  0  0  0  0  0  0  0  0  0
   19.4146   17.4917   23.2779 C   0  0  0  0  0  0  0  0  0  0  0  0
   18.8780   16.5672   23.5309 H   0  0  0  0  0  0  0  0  0  0  0  0
   20.1395   17.6981   24.0776 H   0  0  0  0  0  0  0  0  0  0  0  0
   18.4660   18.6930   23.1119 C   0  0  0  0  0  0  0  0  0  0  0  0
   18.2772   19.1907   24.0718 H   0  0  0  0  0  0  0  0  0  0  0  0
   17.5021   18.3430   22.7179 H   0  0  0  0  0  0  0  0  0  0  0  0
   19.1422   19.6449   22.1028 C   0  0  0  0  0  0  0  0  0  0  0  0
   19.5415   20.5261   22.6259 H   0  0  0  0  0  0  0  0  0  0  0  0
   20.3080   18.8542   21.4737 C   0  0  0  0  0  0  0  0  0  0  0  0
   20.3235   18.9353   20.3786 H   0  0  0  0  0  0  0  0  0  0  0  0
   21.2575   19.2552   21.8514 H   0  0  0  0  0  0  0  0  0  0  0  0
   18.2142   20.0341   21.0972 O   0  0  0  0  0  0  0  0  0  0  0  0
   17.4940   20.5198   21.5520 H   0  0  0  0  0  0  0  0  0  0  0  0
  1  2  1  0  0  0  0
  1  3  1  0  0  0  0
  1  4  1  0  0  0  0
  4  5  1  0  0  0  0
  4  6  1  0  0  0  0
  4  7  1  0  0  0  0
  7  8  1  0  0  0  0
  7  9  1  0  0  0  0
  7 10  1  0  0  0  0
 10 11  1  0  0  0  0
  1 12  1  0  0  0  0
 10 12  1  0  0  0  0
 12 13  1  0  0  0  0
 12 14  1  0  0  0  0
 10 15  1  0  0  0  0
 15 16  1  0  0  0  0
M  END
> <VConfSearch Rank>
7

> <Conf_Id>
59

> <Delta U+W>
0.000

> <U+W>
3.010

> <U>
5.843

> <W>
-2.833

> <W(PB)>
-4.568

> <W(SA)>
1.735

> <Valence>
13.789

> <Coulomb>
-8.574

> <VdW>
0.628

> <VdW6>
-3.284

> <VdW12>
3.912

> <Bond>
0.054

> <Angle>
4.034

> <Pdih>
9.702

> <Idih>
0.000

> <Tether>
0.000

$$$$
VeraChem MOL file


 16 16  0  0  0  0  0  0  0  0999 V2000     
   19.1317   17.3940   21.6041 C   0  0  0  0  0  0  0  0  0  0  0  0
   19.4606   16.3465   21.5683 H   0  0  0  0  0  0  0  0  0  0  0  0
   18.2158   17.4872   21.0041 H   0  0  0  0  0  0  0  0  0  0  0  0
   20.1987   18.3597   21.0709 C   0  0  0  0  0  0  0  0  0  0  0  0
   21.1924   18.0332   21.4079 H   0  0  0  0  0  0  0  0  0  0  0  0
   20.2072   18.4113   19.9736 H   0  0  0  0  0  0  0  0  0  0  0  0
   19.8529   19.7125   21.7201 C   0  0  0  0  0  0  0  0  0  0  0  0
   19.1622   20.2667   21.0713 H   0  0  0  0  0  0  0  0  0  0  0  0
   20.7476   20.3331   21.8625 H   0  0  0  0  0  0  0  0  0  0  0  0
   19.1441   19.3926   23.0524 C   0  0  0  0  0  0  0  0  0  0  0  0
   18.1974   19.9500   23.1032 H   0  0  0  0  0  0  0  0  0  0  0  0
   18.8637   17.8750   23.0420 C   0  0  0  0  0  0  0  0  0  0  0  0
   19.5447   17.3573   23.7311 H   0  0  0  0  0  0  0  0  0  0  0  0
   17.8351   17.6527   23.3541 H   0  0  0  0  0  0  0  0  0  0  0  0
   19.9858   19.7287   24.1489 O   0  0  0  0  0  0  0  0  0  0  0  0
   19.4927   19.4955   24.9638 H   0  0  0  0  0  0  0  0  0  0  0  0
  1  2  1  0  0  0  0
  1  3  1  0  0  0  0
  1  4  1  0  0  0  0
  4  5  1  0  0  0  0
  4  6  1  0  0  0  0
  4  7  1  0  0  0  0
  7  8  1  0  0  0  0
  7  9  1  0  0  0  0
  7 10  1  0  0  0  0
 10 11  1  0  0  0  0
  1 12  1  0  0  0  0
 10 12  1  0  0  0  0
 12 13  1  0  0  0  0
 12 14  1  0  0  0  0
 10 15  1  0  0  0  0
 15 16  1  0  0  0  0
M  END
> <VConfSearch Rank>
8

> <Conf_Id>
33

> <Delta U+W>
0.015

> <U+W>
3.025

> <U>
5.843

> <W>
-2.819

> <W(PB)>
-4.568

> <W(SA)>
1.750

> <Valence>
13.789

> <Coulomb>
-8.574

> <VdW>
0.628

> <VdW6>
-3.284

> <VdW12>
3.913

> <Bond>
0.054

> <Angle>
4.033

> <Pdih>
9.702

> <Idih>
0.000

> <Tether>
0.000

$$$$
VeraChem MOL file


 16 16  0  0  0  0  0  0  0  0999 V2000     
   19.9554   18.4868   23.4567 C   0  0  0  0  0  0  0  0  0  0  0  0
   19.7642   19.3264   24.1392 H   0  0  0  0  0  0  0  0  0  0  0  0
   20.5772   17.7566   23.9926 H   0  0  0  0  0  0  0  0  0  0  0  0
   20.6543   18.9980   22.1780 C   0  0  0  0  0  0  0  0  0  0  0  0
   20.8024   20.0849   22.2421 H   0  0  0  0  0  0  0  0  0  0  0  0
   21.6414   18.5345   22.0444 H   0  0  0  0  0  0  0  0  0  0  0  0
   19.7169   18.6562   21.0004 C   0  0  0  0  0  0  0  0  0  0  0  0
   20.0502   17.7243   20.5247 H   0  0  0  0  0  0  0  0  0  0  0  0
   19.7114   19.4403   20.2315 H   0  0  0  0  0  0  0  0  0  0  0  0
   18.3279   18.4335   21.6135 C   0  0  0  0  0  0  0  0  0  0  0  0
   17.7238   17.7433   21.0071 H   0  0  0  0  0  0  0  0  0  0  0  0
   18.6224   17.8541   23.0036 C   0  0  0  0  0  0  0  0  0  0  0  0
   17.8079   18.0451   23.7150 H   0  0  0  0  0  0  0  0  0  0  0  0
   18.7431   16.7661   22.9181 H   0  0  0  0  0  0  0  0  0  0  0  0
   17.6741   19.6860   21.7577 O   0  0  0  0  0  0  0  0  0  0  0  0
   18.2791   20.2276   22.3052 H   0  0  0  0  0  0  0  0  0  0  0  0
  1  2  1  0  0  0  0
  1  3  1  0  0  0  0
  1  4  1  0  0  0  0
  4  5  1  0  0  0  0
  4  6  1  0  0  0  0
  4  7  1  0  0  0  0
  7  8  1  0  0  0  0
  7  9  1  0  0  0  0
  7 10  1  0  0  0  0
 10 11  1  0  0  0  0
  1 12  1  0  0  0  0
 10 12  1  0  0  0  0
 12 13  1  0  0  0  0
 12 14  1  0  0  0  0
 10 15  1  0  0  0  0
 15 16  1  0  0  0  0
M  END
> <VConfSearch Rank>
9

> <Conf_Id>
20

> <Delta U+W>
-0.483

> <U+W>
2.527

> <U>
4.508

> <W>
-1.981

> <W(PB)>
-3.712

> <W(SA)>
1.732

> <Valence>
14.705

> <Coulomb>
-10.687

> <VdW>
0.490

> <VdW6>
-3.745

> <VdW12>
4.235

> <Bond>
0.068

> <Angle>
3.901

> <Pdih>
10.737

> <Idih>
0.000

> <Tether>
0.000

$$$$
VeraChem MOL file


 16 16  0  0  0  0  0  0  0  0999 V2000     
   20.0576   18.3276   23.5684 C   0  0  0  0  0  0  0  0  0  0  0  0
   20.0748   17.2357   23.6911 H   0  0  0  0  0  0  0  0  0  0  0  0
   20.6159   18.7763   24.4012 H   0  0  0  0  0  0  0  0  0  0  0  0
   18.6036   18.8154   23.5071 C   0  0  0  0  0  0  0  0  0  0  0  0
   17.9540   18.2832   24.2152 H   0  0  0  0  0  0  0  0  0  0  0  0
   18.5633   19.8879   23.7433 H   0  0  0  0  0  0  0  0  0  0  0  0
   18.1847   18.5883   22.0430 C   0  0  0  0  0  0  0  0  0  0  0  0
   17.4239   19.3134   21.7264 H   0  0  0  0  0  0  0  0  0  0  0  0
   17.7557   17.5823   21.9399 H   0  0  0  0  0  0  0  0  0  0  0  0
   19.4708   18.7103   21.1988 C   0  0  0  0  0  0  0  0  0  0  0  0
   19.4697   19.6614   20.6466 H   0  0  0  0  0  0  0  0  0  0  0  0
   20.6477   18.7016   22.1961 C   0  0  0  0  0  0  0  0  0  0  0  0
   21.4437   18.0073   21.8956 H   0  0  0  0  0  0  0  0  0  0  0  0
   21.0835   19.7080   22.2444 H   0  0  0  0  0  0  0  0  0  0  0  0
   19.5774   17.6090   20.3045 O   0  0  0  0  0  0  0  0  0  0  0  0
   18.8031   17.6577   19.7049 H   0  0  0  0  0  0  0  0  0  0  0  0
  1  2  1  0  0  0  0
  1  3  1  0  0  0  0
  1  4  1  0  0  0  0
  4  5  1  0  0  0  0
  4  6  1  0  0  0  0
  4  7  1  0  0  0  0
  7  8  1  0  0  0  0
  7  9  1  0  0  0  0
  7 10  1  0  0  0  0
 10 11  1  0  0  0  0
  1 12  1  0  0  0  0
 10 12  1  0  0  0  0
 12 13  1  0  0  0  0
 12 14  1  0  0  0  0
 10 15  1  0  0  0  0
 15 16  1  0  0  0  0
M  END
> <VConfSearch Rank>
10

> <Conf_Id>
59

> <Delta U+W>
0.000

> <U+W>
3.010

> <U>
5.843

> <W>
-2.833

> <W(PB)>
-4.568

> <W(SA)>
1.735

> <Valence>
13.789

> <Coulomb>
-8.574

> <VdW>
0.628

> <VdW6>
-3.284

> <VdW12>
3.912

> <Bond>
0.054

> <Angle>
4.034

> <Pdih>
9.702

> <Idih>
0.000

> <Tether>
0.000

$$$$
VeraChem MOL file


 16 16  0  0  0  0  0  0  0  0999 V2000     
   20.4409   18.3551   21.2842 C   0  0  0  0  0  0  0  0  0  0  0  0
   20.6533   17.6226   20.4935 H   0  0  0  0  0  0  0  0  0  0  0  0
   21.1543   19.1850   21.1842 H   0  0  0  0  0  0  0  0  0  0  0  0
   20.5505   17.7465   22.6889 C   0  0  0  0  0  0  0  0  0  0  0  0
   20.1282   16.7319   22.6846 H   0  0  0  0  0  0  0  0  0  0  0  0
   21.5896   17.6852   23.0397 H   0  0  0  0  0  0  0  0  0  0  0  0
   19.6845   18.6617   23.5739 C   0  0  0  0  0  0  0  0  0  0  0  0
   20.3021   19.4733   23.9801 H   0  0  0  0  0  0  0  0  0  0  0  0
   19.2534   18.1137   24.4224 H   0  0  0  0  0  0  0  0  0  0  0  0
   18.6016   19.2651   22.6556 C   0  0  0  0  0  0  0  0  0  0  0  0
   18.5921   20.3583   22.7749 H   0  0  0  0  0  0  0  0  0  0  0  0
   19.0007   18.8947   21.2116 C   0  0  0  0  0  0  0  0  0  0  0  0
   18.3378   18.1096   20.8229 H   0  0  0  0  0  0  0  0  0  0  0  0
   18.9297   19.7592   20.5391 H   0  0  0  0  0  0  0  0  0  0  0  0
   17.3287   18.7132   22.9700 O   0  0  0  0  0  0  0  0  0  0  0  0
   16.6851   19.1209   22.3526 H   0  0  0  0  0  0  0  0  0  0  0  0
  1  2  1  0  0  0  0
  1  3  1  0  0  0  0
  1  4  1  0  0  0  0
  4  5  1  0  0  0  0
  4  6  1  0  0  0  0
  4  7  1  0  0  0  0
  7  8  1  0  0  0  0
  7  9  1  0  0  0  0
  7 10  1  0  0  0  0
 10 11  1  0  0  0  0
  1 12  1  0  0  0  0
 10 12  1  0  0  0  0
 12 13  1  0  0  0  0
 12 14  1  0  0  0  0
 10 15  1  0  0  0  0
 15 16  1  0  0  0  0
M  END
> <VConfSearch Rank>
11

> <Conf_Id>
33

> <Delta U+W>
0.015

> <U+W>
3.025

> <U>
5.843

> <W>
-2.819

> <W(PB)>
-4.568

> <W(SA)>
1.750

> <Valence>
13.789

> <Coulomb>
-8.574

> <VdW>
0.628

> <VdW6>
-3.284

> <VdW12>
3.913

> <Bond>
0.054

> <Angle>
4.033

> <Pdih>
9.702

> <Idih>
0.000

> <Tether>
0.000

$$$$
VeraChem MOL file


 16 16  0  0  0  0  0  0  0  0999 V2000     
   19.7128   19.9010   22.1748 C   0  0  0  0  0  0  0  0  0  0  0  0
   20.7954   20.0886   22.1786 H   0  0  0  0  0  0  0  0  0  0  0  0
   19.2067   20.8717   22.0827 H   0  0  0  0  0  0  0  0  0  0  0  0
   19.3024   19.1672   23.4702 C   0  0  0  0  0  0  0  0  0  0  0  0
   20.1862   19.0006   24.1015 H   0  0  0  0  0  0  0  0  0  0  0  0
   18.5807   19.7536   24.0553 H   0  0  0  0  0  0  0  0  0  0  0  0
   18.6960   17.8163   23.0346 C   0  0  0  0  0  0  0  0  0  0  0  0
   17.6010   17.8953   23.0140 H   0  0  0  0  0  0  0  0  0  0  0  0
   18.9593   17.0010   23.7216 H   0  0  0  0  0  0  0  0  0  0  0  0
   19.2042   17.5621   21.6091 C   0  0  0  0  0  0  0  0  0  0  0  0
   18.5031   16.9396   21.0346 H   0  0  0  0  0  0  0  0  0  0  0  0
   19.3379   18.9665   21.0050 C   0  0  0  0  0  0  0  0  0  0  0  0
   20.0752   19.0010   20.1919 H   0  0  0  0  0  0  0  0  0  0  0  0
   18.3679   19.2698   20.5896 H   0  0  0  0  0  0  0  0  0  0  0  0
   20.4867   16.9555   21.6710 O   0  0  0  0  0  0  0  0  0  0  0  0
   21.0361   17.5740   22.1952 H   0  0  0  0  0  0  0  0  0  0  0  0
  1  2  1  0  0  0  0
  1  3  1  0  0  0  0
  1  4  1  0  0  0  0
  4  5  1  0  0  0  0
  4  6  1  0  0  0  0
  4  7  1  0  0  0  0
  7  8  1  0  0  0  0
  7  9  1  0  0  0  0
  7 10  1  0  0  0  0
 10 11  1  0  0  0  0
  1 12  1  0  0  0  0
 10 12  1  0  0  0  0
 12 13  1  0  0  0  0
 12 14  1  0  0  0  0
 10 15  1  0  0  0  0
 15 16  1  0  0  0  0
M  END
> <VConfSearch Rank>
12

> <Conf_Id>
20

> <Delta U+W>
-0.483

> <U+W>
2.527

> <U>
4.508

> <W>
-1.981

> <W(PB)>
-3.712

> <W(SA)>
1.732

> <Valence>
14.705

> <Coulomb>
-10.687

> <VdW>
0.490

> <VdW6>
-3.745

> <VdW12>
4.235

> <Bond>
0.068

> <Angle>
3.901

> <Pdih>
10.737

> <Idih>
0.000

> <Tether>
0.000

$$$$
VeraChem MOL file


 16 16  0  0  0  0  0  0  0  0999 V2000     
   20.4679   17.7036   22.7128 C   0  0  0  0  0  0  0  0  0  0  0  0
   21.1545   18.3681   23.2556 H   0  0  0  0  0  0  0  0  0  0  0  0
   20.8750   16.6841   22.7492 H   0  0  0  0  0  0  0  0  0  0  0  0
   20.2885   18.2123   21.2758 C   0  0  0  0  0  0  0  0  0  0  0  0
   21.2277   18.5835   20.8435 H   0  0  0  0  0  0  0  0  0  0  0  0
   19.9156   17.3978   20.6392 H   0  0  0  0  0  0  0  0  0  0  0  0
   19.2200   19.3149   21.3903 C   0  0  0  0  0  0  0  0  0  0  0  0
   18.6355   19.4046   20.4655 H   0  0  0  0  0  0  0  0  0  0  0  0
   19.7120   20.2799   21.5734 H   0  0  0  0  0  0  0  0  0  0  0  0
   18.3280   18.9331   22.5904 C   0  0  0  0  0  0  0  0  0  0  0  0
   17.3549   18.5649   22.2340 H   0  0  0  0  0  0  0  0  0  0  0  0
   19.0616   17.7973   23.3331 C   0  0  0  0  0  0  0  0  0  0  0  0
   19.1084   17.9699   24.4166 H   0  0  0  0  0  0  0  0  0  0  0  0
   18.5227   16.8553   23.1682 H   0  0  0  0  0  0  0  0  0  0  0  0
   18.1580   20.0528   23.4514 O   0  0  0  0  0  0  0  0  0  0  0  0
   17.6997   20.7434   22.9275 H   0  0  0  0  0  0  0  0  0  0  0  0
  1  2  1  0  0  0  0
  1  3  1  0  0  0  0
  1  4  1  0  0  0  0
  4  5  1  0  0  0  0
  4  6  1  0  0  0  0
  4  7  1  0  0  0  0
  7  8  1  0  0  0  0
  7  9  1  0  0  0  0
  7 10  1  0  0  0  0
 10 11  1  0  0  0  0
  1 12  1  0  0  0  0
 10 12  1  0  0  0  0
 12 13  1  0  0  0  0
 12 14  1  0  0  0  0
 10 15  1  0  0  0  0
 15 16  1  0  0  0  0
M  END
> <VConfSearch Rank>
13

> <Conf_Id>
59

> <Delta U+W>
0.000

> <U+W>
3.010

> <U>
5.843

> <W>
-2.833

> <W(PB)>
-4.568

> <W(SA)>
1.735

> <Valence>
13.789

> <Coulomb>
-8.574

> <VdW>
0.628

> <VdW6>
-3.284

> <VdW12>
3.912

> <Bond>
0.054

> <Angle>
4.034

> <Pdih>
9.702

> <Idih>
0.000

> <Tether>
0.000

$$$$
VeraChem MOL file


 16 16  0  0  0  0  0  0  0  0999 V2000     
   19.0580   19.9728   22.5250 C   0  0  0  0  0  0  0  0  0  0  0  0
   19.4367   20.9900   22.3560 H   0  0  0  0  0  0  0  0  0  0  0  0
   18.0219   20.0471   22.8839 H   0  0  0  0  0  0  0  0  0  0  0  0
   19.9031   19.1970   23.5446 C   0  0  0  0  0  0  0  0  0  0  0  0
   20.9675   19.4202   23.3867 H   0  0  0  0  0  0  0  0  0  0  0  0
   19.6481   19.4526   24.5821 H   0  0  0  0  0  0  0  0  0  0  0  0
   19.6334   17.7159   23.2211 C   0  0  0  0  0  0  0  0  0  0  0  0
   18.7741   17.3617   23.8053 H   0  0  0  0  0  0  0  0  0  0  0  0
   20.4940   17.0831   23.4760 H   0  0  0  0  0  0  0  0  0  0  0  0
   19.2826   17.6503   21.7203 C   0  0  0  0  0  0  0  0  0  0  0  0
   18.3406   17.0977   21.5911 H   0  0  0  0  0  0  0  0  0  0  0  0
   19.1073   19.1100   21.2508 C   0  0  0  0  0  0  0  0  0  0  0  0
   19.9644   19.4179   20.6365 H   0  0  0  0  0  0  0  0  0  0  0  0
   18.1986   19.2333   20.6475 H   0  0  0  0  0  0  0  0  0  0  0  0
   20.3362   17.0253   20.9971 O   0  0  0  0  0  0  0  0  0  0  0  0
   20.0664   17.0210   20.0544 H   0  0  0  0  0  0  0  0  0  0  0  0
  1  2  1  0  0  0  0
  1  3  1  0  0  0  0
  1  4  1  0  0  0  0
  4  5  1  0  0  0  0
  4  6  1  0  0  0  0
  4  7  1  0  0  0  0
  7  8  1  0  0  0  0
  7  9  1  0  0  0  0
  7 10  1  0  0  0  0
 10 11  1  0  0  0  0
  1 12  1  0  0  0  0
 10 12  1  0  0  0  0
 12 13  1  0  0  0  0
 12 14  1  0  0  0  0
 10 15  1  0  0  0  0
 15 16  1  0  0  0  0
M  END
> <VConfSearch Rank>
14

> <Conf_Id>
33

> <Delta U+W>
0.015

> <U+W>
3.025

> <U>
5.843

> <W>
-2.819

> <W(PB)>
-4.568

> <W(SA)>
1.750

> <Valence>
13.789

> <Coulomb>
-8.574

> <VdW>
0.628

> <VdW6>
-3.284

> <VdW12>
3.913

> <Bond>
0.054

> <Angle>
4.033

> <Pdih>
9.702

> <Idih>
0.000

> <Tether>
0.000

$$$$
VeraChem MOL file


 16 16  0  0  0  0  0  0  0  0999 V2000     
   19.1650   17.3059   22.4535 C   0  0  0  0  0  0  0  0  0  0  0  0
   19.0167   16.7287   21.5304 H   0  0  0  0  0  0  0  0  0  0  0  0
   19.1080   16.6050   23.2976 H   0  0  0  0  0  0  0  0  0  0  0  0
   18.0919   18.4114   22.5599 C   0  0  0  0  0  0  0  0  0  0  0  0
   17.4236   18.3686   21.6888 H   0  0  0  0  0  0  0  0  0  0  0  0
   17.4742   18.2894   23.4601 H   0  0  0  0  0  0  0  0  0  0  0  0
   18.8496   19.7559   22.5850 C   0  0  0  0  0  0  0  0  0  0  0  0
   18.9615   20.0945   23.6235 H   0  0  0  0  0  0  0  0  0  0  0  0
   18.3195   20.5429   22.0322 H   0  0  0  0  0  0  0  0  0  0  0  0
   20.2400   19.4713   22.0011 C   0  0  0  0  0  0  0  0  0  0  0  0
   20.9948   20.1663   22.3964 H   0  0  0  0  0  0  0  0  0  0  0  0
   20.5310   18.0238   22.4196 C   0  0  0  0  0  0  0  0  0  0  0  0
   21.2436   17.5310   21.7449 H   0  0  0  0  0  0  0  0  0  0  0  0
   20.9698   18.0250   23.4261 H   0  0  0  0  0  0  0  0  0  0  0  0
   20.1763   19.5447   20.5843 O   0  0  0  0  0  0  0  0  0  0  0  0
   19.4861   18.8994   20.3265 H   0  0  0  0  0  0  0  0  0  0  0  0
  1  2  1  0  0  0  0
  1  3  1  0  0  0  0
  1  4  1  0  0  0  0
  4  5  1  0  0  0  0
  4  6  1  0  0  0  0
  4  7  1  0  0  0  0
  7  8  1  0  0  0  0
  7  9  1  0  0  0  0
  7 10  1  0  0  0  0
 10 11  1  0  0  0  0
  1 12  1  0  0  0  0
 10 12  1  0  0  0  0
 12 13  1  0  0  0  0
 12 14  1  0  0  0  0
 10 15  1  0  0  0  0
 15 16  1  0  0  0  0
M  END
> <VConfSearch Rank>
15

> <Conf_Id>
20

> <Delta U+W>
-0.483

> <U+W>
2.527

> <U>
4.508

> <W>
-1.981

> <W(PB)>
-3.712

> <W(SA)>
1.732

> <Valence>
14.705

> <Coulomb>
-10.687

> <VdW>
0.490

> <VdW6>
-3.745

> <VdW12>
4.235

> <Bond>
0.068

> <Angle>
3.901

> <Pdih>
10.737

> <Idih>
0.000

> <Tether>
0.000

$$$$
VeraChem MOL file


 16 16  0  0  0  0  0  0  0  0999 V2000     
   19.8675   19.7905   22.8847 C   0  0  0  0  0  0  0  0  0  0  0  0
   19.4539   20.5875   22.2510 H   0  0  0  0  0  0  0  0  0  0  0  0
   20.4342   20.2590   23.7007 H   0  0  0  0  0  0  0  0  0  0  0  0
   20.7335   18.8530   22.0322 C   0  0  0  0  0  0  0  0  0  0  0  0
   21.3323   19.3973   21.2893 H   0  0  0  0  0  0  0  0  0  0  0  0
   21.4194   18.2912   22.6815 H   0  0  0  0  0  0  0  0  0  0  0  0
   19.7262   17.8884   21.3799 C   0  0  0  0  0  0  0  0  0  0  0  0
   20.1793   16.9082   21.1829 H   0  0  0  0  0  0  0  0  0  0  0  0
   19.3935   18.3054   20.4197 H   0  0  0  0  0  0  0  0  0  0  0  0
   18.5359   17.7773   22.3559 C   0  0  0  0  0  0  0  0  0  0  0  0
   18.5542   16.8011   22.8622 H   0  0  0  0  0  0  0  0  0  0  0  0
   18.7246   18.8967   23.4005 C   0  0  0  0  0  0  0  0  0  0  0  0
   17.8041   19.4724   23.5654 H   0  0  0  0  0  0  0  0  0  0  0  0
   19.0130   18.4466   24.3593 H   0  0  0  0  0  0  0  0  0  0  0  0
   17.3099   17.9594   21.6576 O   0  0  0  0  0  0  0  0  0  0  0  0
   17.2479   17.2315   21.0036 H   0  0  0  0  0  0  0  0  0  0  0  0
  1  2  1  0  0  0  0
  1  3  1  0  0  0  0
  1  4  1  0  0  0  0
  4  5  1  0  0  0  0
  4  6  1  0  0  0  0
  4  7  1  0  0  0  0
  7  8  1  0  0  0  0
  7  9  1  0  0  0  0
  7 10  1  0  0  0  0
 10 11  1  0  0  0  0
  1 12  1  0  0  0  0
 10 12  1  0  0  0  0
 12 13  1  0  0  0  0
 12 14  1  0  0  0  0
 10 15  1  0  0  0  0
 15 16  1  0  0  0  0
M  END
> <VConfSearch Rank>
16

> <Conf_Id>
59

> <Delta U+W>
0.000

> <U+W>
3.010

> <U>
5.843

> <W>
-2.833

> <W(PB)>
-4.568

> <W(SA)>
1.735

> <Valence>
13.789

> <Coulomb>
-8.574

> <VdW>
0.628

> <VdW6>
-3.284

> <VdW12>
3.912

> <Bond>
0.054

> <Angle>
4.034

> <Pdih>
9.702

> <Idih>
0.000

> <Tether>
0.000

$$$$
VeraChem MOL file


 16 16  0  0  0  0  0  0  0  0999 V2000     
   20.8290   19.0068   22.3868 C   0  0  0  0  0  0  0  0  0  0  0  0
   21.4412   19.9163   22.3185 H   0  0  0  0  0  0  0  0  0  0  0  0
   21.4707   18.1861   22.7364 H   0  0  0  0  0  0  0  0  0  0  0  0
   20.1934   18.6283   21.0420 C   0  0  0  0  0  0  0  0  0  0  0  0
   19.8576   19.5377   20.5244 H   0  0  0  0  0  0  0  0  0  0  0  0
   20.8922   18.0954   20.3829 H   0  0  0  0  0  0  0  0  0  0  0  0
   18.9724   17.7700   21.4209 C   0  0  0  0  0  0  0  0  0  0  0  0
   19.2663   16.7136   21.4721 H   0  0  0  0  0  0  0  0  0  0  0  0
   18.1699   17.8575   20.6764 H   0  0  0  0  0  0  0  0  0  0  0  0
   18.5249   18.2361   22.8218 C   0  0  0  0  0  0  0  0  0  0  0  0
   18.4317   17.3621   23.4828 H   0  0  0  0  0  0  0  0  0  0  0  0
   19.6331   19.1759   23.3417 C   0  0  0  0  0  0  0  0  0  0  0  0
   19.2911   20.2195   23.3143 H   0  0  0  0  0  0  0  0  0  0  0  0
   19.9100   18.9390   24.3771 H   0  0  0  0  0  0  0  0  0  0  0  0
   17.2891   18.9354   22.7345 O   0  0  0  0  0  0  0  0  0  0  0  0
   17.0600   19.2162   23.6456 H   0  0  0  0  0  0  0  0  0  0  0  0
  1  2  1  0  0  0  0
  1  3  1  0  0  0  0
  1  4  1  0  0  0  0
  4  5  1  0  0  0  0
  4  6  1  0  0  0  0
  4  7  1  0  0  0  0
  7  8  1  0  0  0  0
  7  9  1  0  0  0  0
  7 10  1  0  0  0  0
 10 11  1  0  0  0  0
  1 12  1  0  0  0  0
 10 12  1  0  0  0  0
 12 13  1  0  0  0  0
 12 14  1  0  0  0  0
 10 15  1  0  0  0  0
 15 16  1  0  0  0  0
M  END
> <VConfSearch Rank>
17

> <Conf_Id>
33

> <Delta U+W>
0.015

> <U+W>
3.025

> <U>
5.843

> <W>
-2.819

> <W(PB)>
-4.568

> <W(SA)>
1.750

> <Valence>
13.789

> <Coulomb>
-8.574

> <VdW>
0.628

> <VdW6>
-3.284

> <VdW12>
3.913

> <Bond>
0.054

> <Angle>
4.033

> <Pdih>
9.702

> <Idih>
0.000

> <Tether>
0.000

$$$$
VeraChem MOL file


 16 16  0  0  0  0  0  0  0  0999 V2000     
   18.8252   18.4744   23.4667 C   0  0  0  0  0  0  0  0  0  0  0  0
   17.8464   17.9753   23.4625 H   0  0  0  0  0  0  0  0  0  0  0  0
   19.0759   18.7078   24.5106 H   0  0  0  0  0  0  0  0  0  0  0  0
   18.7684   19.7496   22.5975 C   0  0  0  0  0  0  0  0  0  0  0  0
   17.7617   19.8683   22.1735 H   0  0  0  0  0  0  0  0  0  0  0  0
   18.9903   20.6501   23.1864 H   0  0  0  0  0  0  0  0  0  0  0  0
   19.8030   19.5562   21.4685 C   0  0  0  0  0  0  0  0  0  0  0  0
   20.7377   20.0664   21.7362 H   0  0  0  0  0  0  0  0  0  0  0  0
   19.4579   19.9712   20.5121 H   0  0  0  0  0  0  0  0  0  0  0  0
   20.0653   18.0464   21.3863 C   0  0  0  0  0  0  0  0  0  0  0  0
   21.0735   17.8311   21.0041 H   0  0  0  0  0  0  0  0  0  0  0  0
   19.8930   17.5588   22.8311 C   0  0  0  0  0  0  0  0  0  0  0  0
   19.6149   16.4976   22.8816 H   0  0  0  0  0  0  0  0  0  0  0  0
   20.8451   17.6804   23.3643 H   0  0  0  0  0  0  0  0  0  0  0  0
   19.0737   17.4434   20.5677 O   0  0  0  0  0  0  0  0  0  0  0  0
   18.2198   17.6867   20.9809 H   0  0  0  0  0  0  0  0  0  0  0  0
  1  2  1  0  0  0  0
  1  3  1  0  0  0  0
  1  4  1  0  0  0  0
  4  5  1  0  0  0  0
  4  6  1  0  0  0  0
  4  7  1  0  0  0  0
  7  8  1  0  0  0  0
  7  9  1  0  0  0  0
  7 10  1  0  0  0  0
 10 11  1  0  0  0  0
  1 12  1  0  0  0  0
 10 12  1  0  0  0  0
 12 13  1  0  0  0  0
 12 14  1  0  0  0  0
 10 15  1  0  0  0  0
 15 16  1  0  0  0  0
M  END
> <VConfSearch Rank>
18

> <Conf_Id>
20

> <Delta U+W>
-0.483

> <U+W>
2.527

> <U>
4.508

> <W>
-1.981

> <W(PB)>
-3.712

> <W(SA)>
1.732

> <Valence>
14.705

> <Coulomb>
-10.687

> <VdW>
0.490

> <VdW6>
-3.745

> <VdW12>
4.235

> <Bond>
0.068

> <Angle>
3.901

> <Pdih>
10.737

> <Idih>
0.000

> <Tether>
0.000

$$$$
VeraChem MOL file


 16 16  0  0  0  0  0  0  0  0999 V2000     
   20.2972   19.3812   21.5740 C   0  0  0  0  0  0  0  0  0  0  0  0
   21.0002   19.7587   22.3295 H   0  0  0  0  0  0  0  0  0  0  0  0
   20.6283   19.7354   20.5883 H   0  0  0  0  0  0  0  0  0  0  0  0
   18.8752   19.8462   21.9168 C   0  0  0  0  0  0  0  0  0  0  0  0
   18.8520   20.8784   22.2920 H   0  0  0  0  0  0  0  0  0  0  0  0
   18.2424   19.7924   21.0199 H   0  0  0  0  0  0  0  0  0  0  0  0
   18.3821   18.8309   22.9639 C   0  0  0  0  0  0  0  0  0  0  0  0
   17.2920   18.7092   22.9224 H   0  0  0  0  0  0  0  0  0  0  0  0
   18.6435   19.1894   23.9688 H   0  0  0  0  0  0  0  0  0  0  0  0
   19.1127   17.5054   22.6622 C   0  0  0  0  0  0  0  0  0  0  0  0
   18.4164   16.7876   22.2045 H   0  0  0  0  0  0  0  0  0  0  0  0
   20.2300   17.8449   21.6542 C   0  0  0  0  0  0  0  0  0  0  0  0
   21.1973   17.4125   21.9429 H   0  0  0  0  0  0  0  0  0  0  0  0
   19.9618   17.4360   20.6714 H   0  0  0  0  0  0  0  0  0  0  0  0
   19.6739   16.9716   23.8555 O   0  0  0  0  0  0  0  0  0  0  0  0
   18.9247   16.7858   24.4601 H   0  0  0  0  0  0  0  0  0  0  0  0
  1  2  1  0  0  0  0
  1  3  1  0  0  0  0
  1  4  1  0  0  0  0
  4  5  1  0  0  0  0
  4  6  1  0  0  0  0
  4  7  1  0  0  0  0
  7  8  1  0  0  0  0
  7  9  1  0  0  0  0
  7 10  1  0  0  0  0
 10 11  1  0  0  0  0
  1 12  1  0  0  0  0
 10 12  1  0  0  0  0
 12 13  1  0  0  0  0
 12 14  1  0  0  0  0
 10 15  1  0  0  0  0
 15 16  1  0  0  0  0
M  END
> <VConfSearch Rank>
19

> <Conf_Id>
59

> <Delta U+W>
0.000

> <U+W>
3.010

> <U>
5.843

> <W>
-2.833

> <W(PB)>
-4.568

> <W(SA)>
1.735

> <Valence>
13.789

> <Coulomb>
-8.574

> <VdW>
0.628

> <VdW6>
-3.284

> <VdW12>
3.912

> <Bond>
0.054

> <Angle>
4.034

> <Pdih>
9.702

> <Idih>
0.000

> <Tether>
0.000

$$$$
VeraChem MOL file


 16 16  0  0  0  0  0  0  0  0999 V2000     
   19.5892   18.2018   20.9237 C   0  0  0  0  0  0  0  0  0  0  0  0
   18.9712   17.8014   20.1084 H   0  0  0  0  0  0  0  0  0  0  0  0
   20.5775   18.4531   20.5142 H   0  0  0  0  0  0  0  0  0  0  0  0
   19.7477   17.2048   22.0799 C   0  0  0  0  0  0  0  0  0  0  0  0
   18.7947   16.6853   22.2516 H   0  0  0  0  0  0  0  0  0  0  0  0
   20.5201   16.4498   21.8798 H   0  0  0  0  0  0  0  0  0  0  0  0
   20.0847   18.0810   23.3005 C   0  0  0  0  0  0  0  0  0  0  0  0
   21.1731   18.2005   23.3791 H   0  0  0  0  0  0  0  0  0  0  0  0
   19.7305   17.6257   24.2351 H   0  0  0  0  0  0  0  0  0  0  0  0
   19.4445   19.4605   23.0419 C   0  0  0  0  0  0  0  0  0  0  0  0
   20.2024   20.2449   23.1827 H   0  0  0  0  0  0  0  0  0  0  0  0
   18.9631   19.4482   21.5757 C   0  0  0  0  0  0  0  0  0  0  0  0
   17.8682   19.3682   21.5351 H   0  0  0  0  0  0  0  0  0  0  0  0
   19.2538   20.3657   21.0479 H   0  0  0  0  0  0  0  0  0  0  0  0
   18.3425   19.6620   23.9187 O   0  0  0  0  0  0  0  0  0  0  0  0
   17.9696   20.5431   23.7039 H   0  0  0  0  0  0  0  0  0  0  0  0
  1  2  1  0  0  0  0
  1  3  1  0  0  0  0
  1  4  1  0  0  0  0
  4  5  1  0  0  0  0
  4  6  1  0  0  0  0
  4  7  1  0  0  0  0
  7  8  1  0  0  0  0
  7  9  1  0  0  0  0
  7 10  1  0  0  0  0
 10 11  1  0  0  0  0
  1 12  1  0  0  0  0
 10 12  1  0  0  0  0
 12 13  1  0  0  0  0
 12 14  1  0  0  0  0
 10 15  1  0  0  0  0
 15 16  1  0  0  0  0
M  END
> <VConfSearch Rank>
20

> <Conf_Id>
33

> <Delta U+W>
0.015

> <U+W>
3.025

> <U>
5.843

> <W>
-2.819

> <W(PB)>
-4.568

> <W(SA)>
1.750

> <Valence>
13.789

> <Coulomb>
-8.574

> <VdW>
0.628

> <VdW6>
-3.284

> <VdW12>
3.913

> <Bond>
0.054

> <Angle>
4.033

> <Pdih>
9.702

> <Idih>
0.000

> <Tether>
0.000

$$$$
VeraChem MOL file


 16 16  0  0  0  0  0  0  0  0999 V2000     
   18.3304   17.9898   22.8078 C   0  0  0  0  0  0  0  0  0  0  0  0
   18.1318   18.2750   23.8501 H   0  0  0  0  0  0  0  0  0  0  0  0
   17.5648   17.2602   22.5101 H   0  0  0  0  0  0  0  0  0  0  0  0
   19.7531   17.4014   22.6863 C   0  0  0  0  0  0  0  0  0  0  0  0
   20.2426   17.4009   23.6700 H   0  0  0  0  0  0  0  0  0  0  0  0
   19.7318   16.3644   22.3241 H   0  0  0  0  0  0  0  0  0  0  0  0
   20.5225   18.3148   21.7084 C   0  0  0  0  0  0  0  0  0  0  0  0
   20.5095   17.8707   20.7043 H   0  0  0  0  0  0  0  0  0  0  0  0
   21.5725   18.4475   22.0014 H   0  0  0  0  0  0  0  0  0  0  0  0
   19.7558   19.6437   21.6755 C   0  0  0  0  0  0  0  0  0  0  0  0
   19.8893   20.1642   20.7162 H   0  0  0  0  0  0  0  0  0  0  0  0
   18.2931   19.2359   21.8978 C   0  0  0  0  0  0  0  0  0  0  0  0
   17.6956   20.0495   22.3303 H   0  0  0  0  0  0  0  0  0  0  0  0
   17.8460   18.9707   20.9306 H   0  0  0  0  0  0  0  0  0  0  0  0
   20.1840   20.4577   22.7575 O   0  0  0  0  0  0  0  0  0  0  0  0
   20.0289   19.9175   23.5596 H   0  0  0  0  0  0  0  0  0  0  0  0
  1  2  1  0  0  0  0
  1  3  1  0  0  0  0
  1  4  1  0  0  0  0
  4  5  1  0  0  0  0
  4  6  1  0  0  0  0
  4  7  1  0  0  0  0
  7  8  1  0  0  0  0
  7  9  1  0  0  0  0
  7 10  1  0  0  0  0
 10 11  1  0  0  0  0
  1 12  1  0  0  0  0
 10 12  1  0  0  0  0
 12 13  1  0  0  0  0
 12 14  1  0  0  0  0
 10 15  1  0  0  0  0
 15 16  1  0  0  0  0
M  END
> <VConfSearch Rank>
21

> <Conf_Id>
20

> <Delta U+W>
-0.483

> <U+W>
2.527

> <U>
4.508

> <W>
-1.981

> <W(PB)>
-3.712

> <W(SA)>
1.732

> <Valence>
14.705

> <Coulomb>
-10.687

> <VdW>
0.490

> <VdW6>
-3.745

> <VdW12>
4.235

> <Bond>
0.068

> <Angle>
3.901

> <Pdih>
10.737

> <Idih>
0.000

> <Tether>
0.000

$$$$
VeraChem MOL file


 16 16  0  0  0  0  0  0  0  0999 V2000     
   20.3959   17.7095   22.8828 C   0  0  0  0  0  0  0  0  0  0  0  0
   20.3187   17.8566   23.9691 H   0  0  0  0  0  0  0  0  0  0  0  0
   21.1728   16.9568   22.6918 H   0  0  0  0  0  0  0  0  0  0  0  0
   20.7001   19.0513   22.2024 C   0  0  0  0  0  0  0  0  0  0  0  0
   21.4139   19.6583   22.7758 H   0  0  0  0  0  0  0  0  0  0  0  0
   21.1249   18.8721   21.2049 H   0  0  0  0  0  0  0  0  0  0  0  0
   19.3261   19.7331   22.0686 C   0  0  0  0  0  0  0  0  0  0  0  0
   19.2933   20.4022   21.1991 H   0  0  0  0  0  0  0  0  0  0  0  0
   19.1309   20.3362   22.9659 H   0  0  0  0  0  0  0  0  0  0  0  0
   18.2871   18.5982   21.9507 C   0  0  0  0  0  0  0  0  0  0  0  0
   17.9217   18.5284   20.9158 H   0  0  0  0  0  0  0  0  0  0  0  0
   19.0242   17.2942   22.3198 C   0  0  0  0  0  0  0  0  0  0  0  0
   18.4597   16.6854   23.0386 H   0  0  0  0  0  0  0  0  0  0  0  0
   19.1651   16.6935   21.4119 H   0  0  0  0  0  0  0  0  0  0  0  0
   17.2090   18.8240   22.8511 O   0  0  0  0  0  0  0  0  0  0  0  0
   16.7862   19.6656   22.5781 H   0  0  0  0  0  0  0  0  0  0  0  0
  1  2  1  0  0  0  0
  1  3  1  0  0  0  0
  1  4  1  0  0  0  0
  4  5  1  0  0  0  0
  4  6  1  0  0  0  0
  4  7  1  0  0  0  0
  7  8  1  0  0  0  0
  7  9  1  0  0  0  0
  7 10  1  0  0  0  0
 10 11  1  0  0  0  0
  1 12  1  0  0  0  0
 10 12  1  0  0  0  0
 12 13  1  0  0  0  0
 12 14  1  0  0  0  0
 10 15  1  0  0  0  0
 15 16  1  0  0  0  0
M  END
> <VConfSearch Rank>
22

> <Conf_Id>
59

> <Delta U+W>
0.000

> <U+W>
3.010

> <U>
5.843

> <W>
-2.833

> <W(PB)>
-4.568

> <W(SA)>
1.735

> <Valence>
13.789

> <Coulomb>
-8.574

> <VdW>
0.628

> <VdW6>
-3.284

> <VdW12>
3.912

> <Bond>
0.054

> <Angle>
4.034

> <Pdih>
9.702

> <Idih>
0.000

> <Tether>
0.000

$$$$
VeraChem MOL file


 16 16  0  0  0  0  0  0  0  0999 V2000     
   19.6779   17.1957   22.2384 C   0  0  0  0  0  0  0  0  0  0  0  0
   19.7874   16.3977   21.4915 H   0  0  0  0  0  0  0  0  0  0  0  0
   19.9231   16.7787   23.2252 H   0  0  0  0  0  0  0  0  0  0  0  0
   18.2594   17.7814   22.2635 C   0  0  0  0  0  0  0  0  0  0  0  0
   17.8783   17.8674   21.2363 H   0  0  0  0  0  0  0  0  0  0  0  0
   17.5594   17.1610   22.8395 H   0  0  0  0  0  0  0  0  0  0  0  0
   18.4336   19.1868   22.8681 C   0  0  0  0  0  0  0  0  0  0  0  0
   18.3293   19.1338   23.9597 H   0  0  0  0  0  0  0  0  0  0  0  0
   17.6733   19.8852   22.4937 H   0  0  0  0  0  0  0  0  0  0  0  0
   19.8667   19.6403   22.5213 C   0  0  0  0  0  0  0  0  0  0  0  0
   20.3733   19.9762   23.4378 H   0  0  0  0  0  0  0  0  0  0  0  0
   20.5860   18.4034   21.9430 C   0  0  0  0  0  0  0  0  0  0  0  0
   20.7093   18.5081   20.8565 H   0  0  0  0  0  0  0  0  0  0  0  0
   21.5826   18.2733   22.3844 H   0  0  0  0  0  0  0  0  0  0  0  0
   19.8307   20.6837   21.5548 O   0  0  0  0  0  0  0  0  0  0  0  0
   20.7623   20.9232   21.3647 H   0  0  0  0  0  0  0  0  0  0  0  0
  1  2  1  0  0  0  0
  1  3  1  0  0  0  0
  1  4  1  0  0  0  0
  4  5  1  0  0  0  0
  4  6  1  0  0  0  0
  4  7  1  0  0  0  0
  7  8  1  0  0  0  0
  7  9  1  0  0  0  0
  7 10  1  0  0  0  0
 10 11  1  0  0  0  0
  1 12  1  0  0  0  0
 10 12  1  0  0  0  0
 12 13  1  0  0  0  0
 12 14  1  0  0  0  0
 10 15  1  0  0  0  0
 15 16  1  0  0  0  0
M  END
> <VConfSearch Rank>
23

> <Conf_Id>
33

> <Delta U+W>
0.015

> <U+W>
3.025

> <U>
5.843

> <W>
-2.819

> <W(PB)>
-4.568

> <W(SA)>
1.750

> <Valence>
13.789

> <Coulomb>
-8.574

> <VdW>
0.628

> <VdW6>
-3.284

> <VdW12>
3.913

> <Bond>
0.054

> <Angle>
4.033

> <Pdih>
9.702

> <Idih>
0.000

> <Tether>
0.000

$$$$
VeraChem MOL file


 16 16  0  0  0  0  0  0  0  0999 V2000     
   18.7070   17.5096   21.9074 C   0  0  0  0  0  0  0  0  0  0  0  0
   17.6917   17.6993   21.5327 H   0  0  0  0  0  0  0  0  0  0  0  0
   18.8811   16.4257   21.8643 H   0  0  0  0  0  0  0  0  0  0  0  0
   18.8448   18.0500   23.3476 C   0  0  0  0  0  0  0  0  0  0  0  0
   17.8959   18.5004   23.6701 H   0  0  0  0  0  0  0  0  0  0  0  0
   19.0920   17.2490   24.0577 H   0  0  0  0  0  0  0  0  0  0  0  0
   19.9568   19.1198   23.3090 C   0  0  0  0  0  0  0  0  0  0  0  0
   20.9052   18.6752   23.6384 H   0  0  0  0  0  0  0  0  0  0  0  0
   19.7394   19.9702   23.9690 H   0  0  0  0  0  0  0  0  0  0  0  0
   20.0887   19.5432   21.8399 C   0  0  0  0  0  0  0  0  0  0  0  0
   21.1042   19.8967   21.6102 H   0  0  0  0  0  0  0  0  0  0  0  0
   19.7418   18.2722   21.0530 C   0  0  0  0  0  0  0  0  0  0  0  0
   19.3659   18.4961   20.0457 H   0  0  0  0  0  0  0  0  0  0  0  0
   20.6481   17.6622   20.9434 H   0  0  0  0  0  0  0  0  0  0  0  0
   19.1260   20.5474   21.5543 O   0  0  0  0  0  0  0  0  0  0  0  0
   18.2631   20.1468   21.7871 H   0  0  0  0  0  0  0  0  0  0  0  0
  1  2  1  0  0  0  0
  1  3  1  0  0  0  0
  1  4  1  0  0  0  0
  4  5  1  0  0  0  0
  4  6  1  0  0  0  0
  4  7  1  0  0  0  0
  7  8  1  0  0  0  0
  7  9  1  0  0  0  0
  7 10  1  0  0  0  0
 10 11  1  0  0  0  0
  1 12  1  0  0  0  0
 10 12  1  0  0  0  0
 12 13  1  0  0  0  0
 12 14  1  0  0  0  0
 10 15  1  0  0  0  0
 15 16  1  0  0  0  0
M  END
> <VConfSearch Rank>
24

> <Conf_Id>
20

> <Delta U+W>
-0.483

> <U+W>
2.527

> <U>
4.508

> <W>
-1.981

> <W(PB)>
-3.712

> <W(SA)>
1.732

> <Valence>
14.705

> <Coulomb>
-10.687

> <VdW>
0.490

> <VdW6>
-3.745

> <VdW12>
4.235

> <Bond>
0.068

> <Angle>
3.901

> <Pdih>
10.737

> <Idih>
0.000

> <Tether>
0.000

$$$$
VeraChem MOL file


 16 16  0  0  0  0  0  0  0  0999 V2000     
   20.1492   17.7092   21.4343 C   0  0  0  0  0  0  0  0  0  0  0  0
   19.5576   17.6267   20.5119 H   0  0  0  0  0  0  0  0  0  0  0  0
   21.0973   17.1752   21.2840 H   0  0  0  0  0  0  0  0  0  0  0  0
   19.3424   17.1504   22.6144 C   0  0  0  0  0  0  0  0  0  0  0  0
   18.7784   16.2472   22.3447 H   0  0  0  0  0  0  0  0  0  0  0  0
   20.0221   16.8974   23.4400 H   0  0  0  0  0  0  0  0  0  0  0  0
   18.4229   18.3119   23.0340 C   0  0  0  0  0  0  0  0  0  0  0  0
   18.1854   18.2688   24.1048 H   0  0  0  0  0  0  0  0  0  0  0  0
   17.4788   18.2475   22.4761 H   0  0  0  0  0  0  0  0  0  0  0  0
   19.1710   19.6119   22.6708 C   0  0  0  0  0  0  0  0  0  0  0  0
   19.5518   20.0944   23.5828 H   0  0  0  0  0  0  0  0  0  0  0  0
   20.3599   19.1947   21.7806 C   0  0  0  0  0  0  0  0  0  0  0  0
   20.4410   19.8130   20.8767 H   0  0  0  0  0  0  0  0  0  0  0  0
   21.2914   19.3119   22.3496 H   0  0  0  0  0  0  0  0  0  0  0  0
   18.3094   20.4914   21.9580 O   0  0  0  0  0  0  0  0  0  0  0  0
   17.5709   20.7136   22.5637 H   0  0  0  0  0  0  0  0  0  0  0  0
  1  2  1  0  0  0  0
  1  3  1  0  0  0  0
  1  4  1  0  0  0  0
  4  5  1  0  0  0  0
  4  6  1  0  0  0  0
  4  7  1  0  0  0  0
  7  8  1  0  0  0  0
  7  9  1  0  0  0  0
  7 10  1  0  0  0  0
 10 11  1  0  0  0  0
  1 12  1  0  0  0  0
 10 12  1  0  0  0  0
 12 13  1  0  0  0  0
 12 14  1  0  0  0  0
 10 15  1  0  0  0  0
 15 16  1  0  0  0  0
M  END
> <VConfSearch Rank>
25

> <Conf_Id>
59

> <Delta U+W>
0.000

> <U+W>
3.010

> <U>
5.843

> <W>
-2.833

> <W(PB)>
-4.568

> <W(SA)>
1.735

> <Valence>
13.789

> <Coulomb>
-8.574

> <VdW>
0.628

> <VdW6>
-3.284

> <VdW12>
3.912

> <Bond>
0.054

> <Angle>
4.034

> <Pdih>
9.702

> <Idih>
0.000

> <Tether>
0.000

$$$$
VeraChem MOL file


 16 16  0  0  0  0  0  0  0  0999 V2000     
   19.2941   17.2196   21.9825 C   0  0  0  0  0  0  0  0  0  0  0  0
   19.8425   16.2742   22.0937 H   0  0  0  0  0  0  0  0  0  0  0  0
   18.2828   16.9894   21.6193 H   0  0  0  0  0  0  0  0  0  0  0  0
   19.9850   18.1845   21.0093 C   0  0  0  0  0  0  0  0  0  0  0  0
   21.0732   18.1381   21.1550 H   0  0  0  0  0  0  0  0  0  0  0  0
   19.7680   17.9477   19.9588 H   0  0  0  0  0  0  0  0  0  0  0  0
   19.4691   19.5771   21.4163 C   0  0  0  0  0  0  0  0  0  0  0  0
   18.5567   19.8113   20.8526 H   0  0  0  0  0  0  0  0  0  0  0  0
   20.2066   20.3611   21.1983 H   0  0  0  0  0  0  0  0  0  0  0  0
   19.1259   19.4973   22.9182 C   0  0  0  0  0  0  0  0  0  0  0  0
   18.1046   19.8726   23.0779 H   0  0  0  0  0  0  0  0  0  0  0  0
   19.2068   18.0052   23.3038 C   0  0  0  0  0  0  0  0  0  0  0  0
   20.1095   17.8145   23.9001 H   0  0  0  0  0  0  0  0  0  0  0  0
   18.3381   17.6945   23.8985 H   0  0  0  0  0  0  0  0  0  0  0  0
   20.0638   20.2518   23.6764 O   0  0  0  0  0  0  0  0  0  0  0  0
   19.8058   20.1569   24.6177 H   0  0  0  0  0  0  0  0  0  0  0  0
  1  2  1  0  0  0  0
  1  3  1  0  0  0  0
  1  4  1  0  0  0  0
  4  5  1  0  0  0  0
  4  6  1  0  0  0  0
  4  7  1  0  0  0  0
  7  8  1  0  0  0  0
  7  9  1  0  0  0  0
  7 10  1  0  0  0  0
 10 11  1  0  0  0  0
  1 12  1  0  0  0  0
 10 12  1  0  0  0  0
 12 13  1  0  0  0  0
 12 14  1  0  0  0  0
 10 15  1  0  0  0  0
 15 16  1  0  0  0  0
M  END
> <VConfSearch Rank>
26

> <Conf_Id>
33

> <Delta U+W>
0.015

> <U+W>
3.025

> <U>
5.843

> <W>
-2.819

> <W(PB)>
-4.568

> <W(SA)>
1.750

> <Valence>
13.789

> <Coulomb>
-8.574

> <VdW>
0.628

> <VdW6>
-3.284

> <VdW12>
3.913

> <Bond>
0.054

> <Angle>
4.033

> <Pdih>
9.702

> <Idih>
0.000

> <Tether>
0.000

$$$$
VeraChem MOL file


 16 16  0  0  0  0  0  0  0  0999 V2000     
   19.5504   19.3429   23.3620 C   0  0  0  0  0  0  0  0  0  0  0  0
   19.9195   20.3610   23.1759 H   0  0  0  0  0  0  0  0  0  0  0  0
   19.4109   19.2319   24.4460 H   0  0  0  0  0  0  0  0  0  0  0  0
   20.5573   18.3101   22.8102 C   0  0  0  0  0  0  0  0  0  0  0  0
   21.4143   18.8283   22.3581 H   0  0  0  0  0  0  0  0  0  0  0  0
   20.9438   17.6582   23.6056 H   0  0  0  0  0  0  0  0  0  0  0  0
   19.8035   17.4924   21.7400 C   0  0  0  0  0  0  0  0  0  0  0  0
   19.4444   16.5534   22.1813 H   0  0  0  0  0  0  0  0  0  0  0  0
   20.4430   17.2366   20.8847 H   0  0  0  0  0  0  0  0  0  0  0  0
   18.5949   18.3436   21.3279 C   0  0  0  0  0  0  0  0  0  0  0  0
   17.7614   17.7190   20.9754 H   0  0  0  0  0  0  0  0  0  0  0  0
   18.2255   19.1097   22.6052 C   0  0  0  0  0  0  0  0  0  0  0  0
   17.6986   20.0488   22.3894 H   0  0  0  0  0  0  0  0  0  0  0  0
   17.5595   18.4855   23.2154 H   0  0  0  0  0  0  0  0  0  0  0  0
   18.9937   19.2684   20.3266 O   0  0  0  0  0  0  0  0  0  0  0  0
   19.7311   19.7741   20.7261 H   0  0  0  0  0  0  0  0  0  0  0  0
  1  2  1  0  0  0  0
  1  3  1  0  0  0  0
  1  4  1  0  0  0  0
  4  5  1  0  0  0  0
  4  6  1  0  0  0  0
  4  7  1  0  0  0  0
  7  8  1  0  0  0  0
  7  9  1  0  0  0  0
  7 10  1  0  0  0  0
 10 11  1  0  0  0  0
  1 12  1  0  0  0  0
 10 12  1  0  0  0  0
 12 13  1  0  0  0  0
 12 14  1  0  0  0  0
 10 15  1  0  0  0  0
 15 16  1  0  0  0  0
M  END
> <VConfSearch Rank>
27

> <Conf_Id>
20

> <Delta U+W>
-0.483

> <U+W>
2.527

> <U>
4.508

> <W>
-1.981

> <W(PB)>
-3.712

> <W(SA)>
1.732

> <Valence>
14.705

> <Coulomb>
-10.687

> <VdW>
0.490

> <VdW6>
-3.745

> <VdW12>
4.235

> <Bond>
0.068

> <Angle>
3.901

> <Pdih>
10.737

> <Idih>
0.000

> <Tether>
0.000

$$$$
VeraChem MOL file


 16 16  0  0  0  0  0  0  0  0999 V2000     
   19.9949   19.6990   22.9445 C   0  0  0  0  0  0  0  0  0  0  0  0
   19.7225   19.6266   24.0067 H   0  0  0  0  0  0  0  0  0  0  0  0
   20.6680   20.5581   22.8196 H   0  0  0  0  0  0  0  0  0  0  0  0
   18.7228   19.8225   22.0946 C   0  0  0  0  0  0  0  0  0  0  0  0
   17.9680   20.4683   22.5635 H   0  0  0  0  0  0  0  0  0  0  0  0
   18.9744   20.2455   21.1121 H   0  0  0  0  0  0  0  0  0  0  0  0
   18.2316   18.3730   21.9274 C   0  0  0  0  0  0  0  0  0  0  0  0
   17.6860   18.2406   20.9842 H   0  0  0  0  0  0  0  0  0  0  0  0
   17.5479   18.1239   22.7505 H   0  0  0  0  0  0  0  0  0  0  0  0
   19.4878   17.4785   21.9865 C   0  0  0  0  0  0  0  0  0  0  0  0
   19.7302   17.1032   20.9815 H   0  0  0  0  0  0  0  0  0  0  0  0
   20.6379   18.3771   22.4859 C   0  0  0  0  0  0  0  0  0  0  0  0
   21.2142   17.9063   23.2935 H   0  0  0  0  0  0  0  0  0  0  0  0
   21.3271   18.5719   21.6539 H   0  0  0  0  0  0  0  0  0  0  0  0
   19.2802   16.3996   22.8903 O   0  0  0  0  0  0  0  0  0  0  0  0
   18.5360   15.8714   22.5316 H   0  0  0  0  0  0  0  0  0  0  0  0
  1  2  1  0  0  0  0
  1  3  1  0  0  0  0
  1  4  1  0  0  0  0
  4  5  1  0  0  0  0
  4  6  1  0  0  0  0
  4  7  1  0  0  0  0
  7  8  1  0  0  0  0
  7  9  1  0  0  0  0
  7 10  1  0  0  0  0
 10 11  1  0  0  0  0
  1 12  1  0  0  0  0
 10 12  1  0  0  0  0
 12 13  1  0  0  0  0
 12 14  1  0  0  0  0
 10 15  1  0  0  0  0
 15 16  1  0  0  0  0
M  END
> <VConfSearch Rank>
28

> <Conf_Id>
59

> <Delta U+W>
0.000

> <U+W>
3.010

> <U>
5.843

> <W>
-2.833

> <W(PB)>
-4.568

> <W(SA)>
1.735

> <Valence>
13.789

> <Coulomb>
-8.574

> <VdW>
0.628

> <VdW6>
-3.284

> <VdW12>
3.912

> <Bond>
0.054

> <Angle>
4.034

> <Pdih>
9.702

> <Idih>
0.000

> <Tether>
0.000

$$$$
VeraChem MOL file


 16 16  0  0  0  0  0  0  0  0999 V2000     
   19.2790   19.8252   21.5446 C   0  0  0  0  0  0  0  0  0  0  0  0
   18.5595   20.6500   21.4503 H   0  0  0  0  0  0  0  0  0  0  0  0
   20.1736   20.0812   20.9601 H   0  0  0  0  0  0  0  0  0  0  0  0
   18.7047   18.4901   21.0514 C   0  0  0  0  0  0  0  0  0  0  0  0
   17.6535   18.4048   21.3602 H   0  0  0  0  0  0  0  0  0  0  0  0
   18.7514   18.3914   19.9584 H   0  0  0  0  0  0  0  0  0  0  0  0
   19.5430   17.4197   21.7744 C   0  0  0  0  0  0  0  0  0  0  0  0
   20.4173   17.1614   21.1630 H   0  0  0  0  0  0  0  0  0  0  0  0
   18.9675   16.4990   21.9397 H   0  0  0  0  0  0  0  0  0  0  0  0
   20.0230   18.0552   23.0955 C   0  0  0  0  0  0  0  0  0  0  0  0
   21.1116   17.9275   23.1856 H   0  0  0  0  0  0  0  0  0  0  0  0
   19.6727   19.5557   23.0085 C   0  0  0  0  0  0  0  0  0  0  0  0
   18.8205   19.7862   23.6622 H   0  0  0  0  0  0  0  0  0  0  0  0
   20.5161   20.1856   23.3194 H   0  0  0  0  0  0  0  0  0  0  0  0
   19.3529   17.4579   24.1992 O   0  0  0  0  0  0  0  0  0  0  0  0
   19.6861   17.9049   25.0059 H   0  0  0  0  0  0  0  0  0  0  0  0
  1  2  1  0  0  0  0
  1  3  1  0  0  0  0
  1  4  1  0  0  0  0
  4  5  1  0  0  0  0
  4  6  1  0  0  0  0
  4  7  1  0  0  0  0
  7  8  1  0  0  0  0
  7  9  1  0  0  0  0
  7 10  1  0  0  0  0
 10 11  1  0  0  0  0
  1 12  1  0  0  0  0
 10 12  1  0  0  0  0
 12 13  1  0  0  0  0
 12 14  1  0  0  0  0
 10 15  1  0  0  0  0
 15 16  1  0  0  0  0
M  END
> <VConfSearch Rank>
29

> <Conf_Id>
33

> <Delta U+W>
0.015

> <U+W>
3.025

> <U>
5.843

> <W>
-2.819

> <W(PB)>
-4.568

> <W(SA)>
1.750

> <Valence>
13.789

> <Coulomb>
-8.574

> <VdW>
0.628

> <VdW6>
-3.284

> <VdW12>
3.913

> <Bond>
0.054

> <Angle>
4.033

> <Pdih>
9.702

> <Idih>
0.000

> <Tether>
0.000

$$$$
VeraChem MOL file


 16 16  0  0  0  0  0  0  0  0999 V2000     
   19.3649   19.0035   23.5349 C   0  0  0  0  0  0  0  0  0  0  0  0
   20.1945   19.6685   23.8119 H   0  0  0  0  0  0  0  0  0  0  0  0
   18.7351   18.8679   24.4248 H   0  0  0  0  0  0  0  0  0  0  0  0
   19.9201   17.6569   23.0215 C   0  0  0  0  0  0  0  0  0  0  0  0
   21.0184   17.6698   23.0510 H   0  0  0  0  0  0  0  0  0  0  0  0
   19.5799   16.8168   23.6423 H   0  0  0  0  0  0  0  0  0  0  0  0
   19.4275   17.5066   21.5664 C   0  0  0  0  0  0  0  0  0  0  0  0
   18.5306   16.8736   21.5463 H   0  0  0  0  0  0  0  0  0  0  0  0
   20.1808   17.0394   20.9182 H   0  0  0  0  0  0  0  0  0  0  0  0
   19.0517   18.9185   21.0969 C   0  0  0  0  0  0  0  0  0  0  0  0
   18.2730   18.8929   20.3211 H   0  0  0  0  0  0  0  0  0  0  0  0
   18.5567   19.6158   22.3712 C   0  0  0  0  0  0  0  0  0  0  0  0
   18.6660   20.7072   22.3174 H   0  0  0  0  0  0  0  0  0  0  0  0
   17.4903   19.3931   22.5081 H   0  0  0  0  0  0  0  0  0  0  0  0
   20.2163   19.5797   20.6242 O   0  0  0  0  0  0  0  0  0  0  0  0
   20.8460   19.5536   21.3739 H   0  0  0  0  0  0  0  0  0  0  0  0
  1  2  1  0  0  0  0
  1  3  1  0  0  0  0
  1  4  1  0  0  0  0
  4  5  1  0  0  0  0
  4  6  1  0  0  0  0
  4  7  1  0  0  0  0
  7  8  1  0  0  0  0
  7  9  1  0  0  0  0
  7 10  1  0  0  0  0
 10 11  1  0  0  0  0
  1 12  1  0  0  0  0
 10 12  1  0  0  0  0
 12 13  1  0  0  0  0
 12 14  1  0  0  0  0
 10 15  1  0  0  0  0
 15 16  1  0  0  0  0
M  END
> <VConfSearch Rank>
30

> <Conf_Id>
20

> <Delta U+W>
-0.483

> <U+W>
2.527

> <U>
4.508

> <W>
-1.981

> <W(PB)>
-3.712

> <W(SA)>
1.732

> <Valence>
14.705

> <Coulomb>
-10.687

> <VdW>
0.490

> <VdW6>
-3.745

> <VdW12>
4.235

> <Bond>
0.068

> <Angle>
3.901

> <Pdih>
10.737

> <Idih>
0.000

> <Tether>
0.000

$$$$
VeraChem MOL file


 16 16  0  0  0  0  0  0  0  0999 V2000     
   19.4096   19.1469   23.6407 C   0  0  0  0  0  0  0  0  0  0  0  0
   20.1515   18.5505   24.1899 H   0  0  0  0  0  0  0  0  0  0  0  0
   19.0683   19.9597   24.2959 H   0  0  0  0  0  0  0  0  0  0  0  0
   18.2587   18.2408   23.1824 C   0  0  0  0  0  0  0  0  0  0  0  0
   17.9836   17.4975   23.9430 H   0  0  0  0  0  0  0  0  0  0  0  0
   17.3722   18.8519   22.9626 H   0  0  0  0  0  0  0  0  0  0  0  0
   18.7765   17.5894   21.8869 C   0  0  0  0  0  0  0  0  0  0  0  0
   17.9531   17.3491   21.2019 H   0  0  0  0  0  0  0  0  0  0  0  0
   19.2947   16.6527   22.1334 H   0  0  0  0  0  0  0  0  0  0  0  0
   19.7623   18.5964   21.2577 C   0  0  0  0  0  0  0  0  0  0  0  0
   19.3044   19.0717   20.3780 H   0  0  0  0  0  0  0  0  0  0  0  0
   20.0334   19.6687   22.3331 C   0  0  0  0  0  0  0  0  0  0  0  0
   21.1048   19.8785   22.4518 H   0  0  0  0  0  0  0  0  0  0  0  0
   19.5409   20.6043   22.0377 H   0  0  0  0  0  0  0  0  0  0  0  0
   20.9738   17.9407   20.9024 O   0  0  0  0  0  0  0  0  0  0  0  0
   20.7418   17.2668   20.2289 H   0  0  0  0  0  0  0  0  0  0  0  0
  1  2  1  0  0  0  0
  1  3  1  0  0  0  0
  1  4  1  0  0  0  0
  4  5  1  0  0  0  0
  4  6  1  0  0  0  0
  4  7  1  0  0  0  0
  7  8  1  0  0  0  0
  7  9  1  0  0  0  0
  7 10  1  0  0  0  0
 10 11  1  0  0  0  0
  1 12  1  0  0  0  0
 10 12  1  0  0  0  0
 12 13  1  0  0  0  0
 12 14  1  0  0  0  0
 10 15  1  0  0  0  0
 15 16  1  0  0  0  0
M  END
> <VConfSearch Rank>
31

> <Conf_Id>
59

> <Delta U+W>
0.000

> <U+W>
3.010

> <U>
5.843

> <W>
-2.833

> <W(PB)>
-4.568

> <W(SA)>
1.735

> <Valence>
13.789

> <Coulomb>
-8.574

> <VdW>
0.628

> <VdW6>
-3.284

> <VdW12>
3.912

> <Bond>
0.054

> <Angle>
4.034

> <Pdih>
9.702

> <Idih>
0.000

> <Tether>
0.000

$$$$
VeraChem MOL file


 16 16  0  0  0  0  0  0  0  0999 V2000     
   20.0134   18.7599   23.6053 C   0  0  0  0  0  0  0  0  0  0  0  0
   20.4860   18.1446   24.3830 H   0  0  0  0  0  0  0  0  0  0  0  0
   20.1047   19.8149   23.8991 H   0  0  0  0  0  0  0  0  0  0  0  0
   18.5337   18.4073   23.4006 C   0  0  0  0  0  0  0  0  0  0  0  0
   18.4026   17.3180   23.4630 H   0  0  0  0  0  0  0  0  0  0  0  0
   17.8830   18.8758   24.1514 H   0  0  0  0  0  0  0  0  0  0  0  0
   18.2185   18.8834   21.9705 C   0  0  0  0  0  0  0  0  0  0  0  0
   17.8693   19.9238   21.9972 H   0  0  0  0  0  0  0  0  0  0  0  0
   17.4278   18.2778   21.5078 H   0  0  0  0  0  0  0  0  0  0  0  0
   19.5433   18.8174   21.1829 C   0  0  0  0  0  0  0  0  0  0  0  0
   19.7192   19.7828   20.6863 H   0  0  0  0  0  0  0  0  0  0  0  0
   20.6530   18.5475   22.2209 C   0  0  0  0  0  0  0  0  0  0  0  0
   21.0065   17.5106   22.1393 H   0  0  0  0  0  0  0  0  0  0  0  0
   21.5151   19.2103   22.0715 H   0  0  0  0  0  0  0  0  0  0  0  0
   19.4954   17.7623   20.2299 O   0  0  0  0  0  0  0  0  0  0  0  0
   20.3612   17.7595   19.7696 H   0  0  0  0  0  0  0  0  0  0  0  0
  1  2  1  0  0  0  0
  1  3  1  0  0  0  0
  1  4  1  0  0  0  0
  4  5  1  0  0  0  0
  4  6  1  0  0  0  0
  4  7  1  0  0  0  0
  7  8  1  0  0  0  0
  7  9  1  0  0  0  0
  7 10  1  0  0  0  0
 10 11  1  0  0  0  0
  1 12  1  0  0  0  0
 10 12  1  0  0  0  0
 12 13  1  0  0  0  0
 12 14  1  0  0  0  0
 10 15  1  0  0  0  0
 15 16  1  0  0  0  0
M  END
> <VConfSearch Rank>
32

> <Conf_Id>
33

> <Delta U+W>
0.015

> <U+W>
3.025

> <U>
5.843

> <W>
-2.819

> <W(PB)>
-4.568

> <W(SA)>
1.750

> <Valence>
13.789

> <Coulomb>
-8.574

> <VdW>
0.628

> <VdW6>
-3.284

> <VdW12>
3.913

> <Bond>
0.054

> <Angle>
4.033

> <Pdih>
9.702

> <Idih>
0.000

> <Tether>
0.000

$$$$
VeraChem MOL file


 16 16  0  0  0  0  0  0  0  0999 V2000     
   18.1438   18.9431   22.6458 C   0  0  0  0  0  0  0  0  0  0  0  0
   17.7669   19.8755   22.2033 H   0  0  0  0  0  0  0  0  0  0  0  0
   17.3523   18.5361   23.2899 H   0  0  0  0  0  0  0  0  0  0  0  0
   19.4360   19.2249   23.4431 C   0  0  0  0  0  0  0  0  0  0  0  0
   19.6840   20.2938   23.3873 H   0  0  0  0  0  0  0  0  0  0  0  0
   19.3209   18.9643   24.5041 H   0  0  0  0  0  0  0  0  0  0  0  0
   20.5496   18.3841   22.7831 C   0  0  0  0  0  0  0  0  0  0  0  0
   20.6878   17.4517   23.3461 H   0  0  0  0  0  0  0  0  0  0  0  0
   21.5135   18.9101   22.7660 H   0  0  0  0  0  0  0  0  0  0  0  0
   20.0473   18.0451   21.3732 C   0  0  0  0  0  0  0  0  0  0  0  0
   20.4800   17.1037   21.0050 H   0  0  0  0  0  0  0  0  0  0  0  0
   18.5247   17.9417   21.5347 C   0  0  0  0  0  0  0  0  0  0  0  0
   17.9923   18.1402   20.5949 H   0  0  0  0  0  0  0  0  0  0  0  0
   18.2685   16.9232   21.8551 H   0  0  0  0  0  0  0  0  0  0  0  0
   20.3527   19.1200   20.4968 O   0  0  0  0  0  0  0  0  0  0  0  0
   19.9315   19.9062   20.9014 H   0  0  0  0  0  0  0  0  0  0  0  0
  1  2  1  0  0  0  0
  1  3  1  0  0  0  0
  1  4  1  0  0  0  0
  4  5  1  0  0  0  0
  4  6  1  0  0  0  0
  4  7  1  0  0  0  0
  7  8  1  0  0  0  0
  7  9  1  0  0  0  0
  7 10  1  0  0  0  0
 10 11  1  0  0  0  0
  1 12  1  0  0  0  0
 10 12  1  0  0  0  0
 12 13  1  0  0  0  0
 12 14  1  0  0  0  0
 10 15  1  0  0  0  0
 15 16  1  0  0  0  0
M  END
> <VConfSearch Rank>
33

> <Conf_Id>
20

> <Delta U+W>
-0.483

> <U+W>
2.527

> <U>
4.508

> <W>
-1.981

> <W(PB)>
-3.712

> <W(SA)>
1.732

> <Valence>
14.705

> <Coulomb>
-10.687

> <VdW>
0.490

> <VdW6>
-3.745

> <VdW12>
4.235

> <Bond>
0.068

> <Angle>
3.901

> <Pdih>
10.737

> <Idih>
0.000

> <Tether>
0.000

$$$$
VeraChem MOL file


 16 16  0  0  0  0  0  0  0  0999 V2000     
   19.9892   18.7509   23.6090 C   0  0  0  0  0  0  0  0  0  0  0  0
   19.2518   18.3944   24.3417 H   0  0  0  0  0  0  0  0  0  0  0  0
   20.8976   19.0469   24.1511 H   0  0  0  0  0  0  0  0  0  0  0  0
   19.3891   19.9060   22.7958 C   0  0  0  0  0  0  0  0  0  0  0  0
   18.7857   20.5838   23.4149 H   0  0  0  0  0  0  0  0  0  0  0  0
   20.1964   20.4906   22.3329 H   0  0  0  0  0  0  0  0  0  0  0  0
   18.5555   19.2125   21.7028 C   0  0  0  0  0  0  0  0  0  0  0  0
   18.4998   19.8234   20.7926 H   0  0  0  0  0  0  0  0  0  0  0  0
   17.5313   19.0593   22.0695 H   0  0  0  0  0  0  0  0  0  0  0  0
   19.2358   17.8538   21.4334 C   0  0  0  0  0  0  0  0  0  0  0  0
   19.7646   17.8822   20.4695 H   0  0  0  0  0  0  0  0  0  0  0  0
   20.2585   17.6471   22.5697 C   0  0  0  0  0  0  0  0  0  0  0  0
   20.1892   16.6460   23.0159 H   0  0  0  0  0  0  0  0  0  0  0  0
   21.2722   17.7622   22.1642 H   0  0  0  0  0  0  0  0  0  0  0  0
   18.2696   16.8097   21.4470 O   0  0  0  0  0  0  0  0  0  0  0  0
   17.6431   16.9968   20.7163 H   0  0  0  0  0  0  0  0  0  0  0  0
  1  2  1  0  0  0  0
  1  3  1  0  0  0  0
  1  4  1  0  0  0  0
  4  5  1  0  0  0  0
  4  6  1  0  0  0  0
  4  7  1  0  0  0  0
  7  8  1  0  0  0  0
  7  9  1  0  0  0  0
  7 10  1  0  0  0  0
 10 11  1  0  0  0  0
  1 12  1  0  0  0  0
 10 12  1  0  0  0  0
 12 13  1  0  0  0  0
 12 14  1  0  0  0  0
 10 15  1  0  0  0  0
 15 16  1  0  0  0  0
M  END
> <VConfSearch Rank>
34

> <Conf_Id>
59

> <Delta U+W>
0.000

> <U+W>
3.010

> <U>
5.843

> <W>
-2.833

> <W(PB)>
-4.568

> <W(SA)>
1.735

> <Valence>
13.789

> <Coulomb>
-8.574

> <VdW>
0.628

> <VdW6>
-3.284

> <VdW12>
3.912

> <Bond>
0.054

> <Angle>
4.034

> <Pdih>
9.702

> <Idih>
0.000

> <Tether>
0.000

$$$$
VeraChem MOL file


 16 16  0  0  0  0  0  0  0  0999 V2000     
   20.2258   18.9763   23.4453 C   0  0  0  0  0  0  0  0  0  0  0  0
   20.5381   19.8792   23.9876 H   0  0  0  0  0  0  0  0  0  0  0  0
   20.5160   18.0999   24.0415 H   0  0  0  0  0  0  0  0  0  0  0  0
   20.8594   18.8844   22.0504 C   0  0  0  0  0  0  0  0  0  0  0  0
   20.8806   19.8817   21.5891 H   0  0  0  0  0  0  0  0  0  0  0  0
   21.8871   18.4976   22.0810 H   0  0  0  0  0  0  0  0  0  0  0  0
   19.9102   17.9687   21.2557 C   0  0  0  0  0  0  0  0  0  0  0  0
   20.2285   16.9239   21.3656 H   0  0  0  0  0  0  0  0  0  0  0  0
   19.9192   18.2094   20.1842 H   0  0  0  0  0  0  0  0  0  0  0  0
   18.5104   18.1367   21.8819 C   0  0  0  0  0  0  0  0  0  0  0  0
   18.0961   17.1454   22.1167 H   0  0  0  0  0  0  0  0  0  0  0  0
   18.7095   18.9471   23.1801 C   0  0  0  0  0  0  0  0  0  0  0  0
   18.3440   19.9745   23.0474 H   0  0  0  0  0  0  0  0  0  0  0  0
   18.1637   18.5012   24.0217 H   0  0  0  0  0  0  0  0  0  0  0  0
   17.6552   18.8413   20.9896 O   0  0  0  0  0  0  0  0  0  0  0  0
   16.7889   18.9287   21.4406 H   0  0  0  0  0  0  0  0  0  0  0  0
  1  2  1  0  0  0  0
  1  3  1  0  0  0  0
  1  4  1  0  0  0  0
  4  5  1  0  0  0  0
  4  6  1  0  0  0  0
  4  7  1  0  0  0  0
  7  8  1  0  0  0  0
  7  9  1  0  0  0  0
  7 10  1  0  0  0  0
 10 11  1  0  0  0  0
  1 12  1  0  0  0  0
 10 12  1  0  0  0  0
 12 13  1  0  0  0  0
 12 14  1  0  0  0  0
 10 15  1  0  0  0  0
 15 16  1  0  0  0  0
M  END
> <VConfSearch Rank>
35

> <Conf_Id>
33

> <Delta U+W>
0.015

> <U+W>
3.025

> <U>
5.843

> <W>
-2.819

> <W(PB)>
-4.568

> <W(SA)>
1.750

> <Valence>
13.789

> <Coulomb>
-8.574

> <VdW>
0.628

> <VdW6>
-3.284

> <VdW12>
3.913

> <Bond>
0.054

> <Angle>
4.033

> <Pdih>
9.702

> <Idih>
0.000

> <Tether>
0.000

$$$$
VeraChem MOL file


 16 16  0  0  0  0  0  0  0  0999 V2000     
   20.6296   18.4179   21.8315 C   0  0  0  0  0  0  0  0  0  0  0  0
   20.9559   17.3688   21.8457 H   0  0  0  0  0  0  0  0  0  0  0  0
   21.4600   19.0200   21.4377 H   0  0  0  0  0  0  0  0  0  0  0  0
   20.2307   18.8632   23.2554 C   0  0  0  0  0  0  0  0  0  0  0  0
   20.3649   18.0299   23.9589 H   0  0  0  0  0  0  0  0  0  0  0  0
   20.8517   19.6988   23.6061 H   0  0  0  0  0  0  0  0  0  0  0  0
   18.7429   19.2684   23.1866 C   0  0  0  0  0  0  0  0  0  0  0  0
   18.6641   20.3583   23.0798 H   0  0  0  0  0  0  0  0  0  0  0  0
   18.1908   18.9804   24.0911 H   0  0  0  0  0  0  0  0  0  0  0  0
   18.1788   18.6020   21.9245 C   0  0  0  0  0  0  0  0  0  0  0  0
   17.3336   19.1704   21.5102 H   0  0  0  0  0  0  0  0  0  0  0  0
   19.3682   18.5719   20.9554 C   0  0  0  0  0  0  0  0  0  0  0  0
   19.2780   17.7697   20.2108 H   0  0  0  0  0  0  0  0  0  0  0  0
   19.4116   19.5265   20.4144 H   0  0  0  0  0  0  0  0  0  0  0  0
   17.7920   17.2705   22.2317 O   0  0  0  0  0  0  0  0  0  0  0  0
   18.5990   16.8470   22.5901 H   0  0  0  0  0  0  0  0  0  0  0  0
  1  2  1  0  0  0  0
  1  3  1  0  0  0  0
  1  4  1  0  0  0  0
  4  5  1  0  0  0  0
  4  6  1  0  0  0  0
  4  7  1  0  0  0  0
  7  8  1  0  0  0  0
  7  9  1  0  0  0  0
  7 10  1  0  0  0  0
 10 11  1  0  0  0  0
  1 12  1  0  0  0  0
 10 12  1  0  0  0  0
 12 13  1  0  0  0  0
 12 14  1  0  0  0  0
 10 15  1  0  0  0  0
 15 16  1  0  0  0  0
M  END
> <VConfSearch Rank>
36

> <Conf_Id>
20

> <Delta U+W>
-0.483

> <U+W>
2.527

> <U>
4.508

> <W>
-1.981

> <W(PB)>
-3.712

> <W(SA)>
1.732

> <Valence>
14.705

> <Coulomb>
-10.687

> <VdW>
0.490

> <VdW6>
-3.745

> <VdW12>
4.235

> <Bond>
0.068

> <Angle>
3.901

> <Pdih>
10.737

> <Idih>
0.000

> <Tether>
0.000

$$$$
VeraChem MOL file


 16 16  0  0  0  0  0  0  0  0999 V2000     
   18.7401   19.4767   21.3757 C   0  0  0  0  0  0  0  0  0  0  0  0
   19.5363   19.7327   20.6628 H   0  0  0  0  0  0  0  0  0  0  0  0
   17.8151   19.9722   21.0511 H   0  0  0  0  0  0  0  0  0  0  0  0
   19.1631   19.8940   22.7908 C   0  0  0  0  0  0  0  0  0  0  0  0
   19.6886   20.8587   22.8026 H   0  0  0  0  0  0  0  0  0  0  0  0
   18.2749   19.9787   23.4323 H   0  0  0  0  0  0  0  0  0  0  0  0
   20.0519   18.7367   23.2820 C   0  0  0  0  0  0  0  0  0  0  0  0
   20.0040   18.6294   24.3733 H   0  0  0  0  0  0  0  0  0  0  0  0
   21.0964   18.9395   23.0084 H   0  0  0  0  0  0  0  0  0  0  0  0
   19.5481   17.4667   22.5644 C   0  0  0  0  0  0  0  0  0  0  0  0
   18.9956   16.8296   23.2704 H   0  0  0  0  0  0  0  0  0  0  0  0
   18.5907   17.9461   21.4539 C   0  0  0  0  0  0  0  0  0  0  0  0
   18.8016   17.4694   20.4872 H   0  0  0  0  0  0  0  0  0  0  0  0
   17.5606   17.6903   21.7343 H   0  0  0  0  0  0  0  0  0  0  0  0
   20.6424   16.7571   21.9961 O   0  0  0  0  0  0  0  0  0  0  0  0
   21.2202   16.4877   22.7412 H   0  0  0  0  0  0  0  0  0  0  0  0
  1  2  1  0  0  0  0
  1  3  1  0  0  0  0
  1  4  1  0  0  0  0
  4  5  1  0  0  0  0
  4  6  1  0  0  0  0
  4  7  1  0  0  0  0
  7  8  1  0  0  0  0
  7  9  1  0  0  0  0
  7 10  1  0  0  0  0
 10 11  1  0  0  0  0
  1 12  1  0  0  0  0
 10 12  1  0  0  0  0
 12 13  1  0  0  0  0
 12 14  1  0  0  0  0
 10 15  1  0  0  0  0
 15 16  1  0  0  0  0
M  END
> <VConfSearch Rank>
37

> <Conf_Id>
59

> <Delta U+W>
0.000

> <U+W>
3.010

> <U>
5.843

> <W>
-2.833

> <W(PB)>
-4.568

> <W(SA)>
1.735

> <Valence>
13.789

> <Coulomb>
-8.574

> <VdW>
0.628

> <VdW6>
-3.284

> <VdW12>
3.912

> <Bond>
0.054

> <Angle>
4.034

> <Pdih>
9.702

> <Idih>
0.000

> <Tether>
0.000

$$$$
VeraChem MOL file


 16 16  0  0  0  0  0  0  0  0999 V2000     
   18.6421   19.7531   22.6134 C   0  0  0  0  0  0  0  0  0  0  0  0
   18.6973   20.6710   23.2143 H   0  0  0  0  0  0  0  0  0  0  0  0
   17.7289   19.7960   22.0036 H   0  0  0  0  0  0  0  0  0  0  0  0
   18.6246   18.4872   23.4811 C   0  0  0  0  0  0  0  0  0  0  0  0
   19.3186   18.6091   24.3244 H   0  0  0  0  0  0  0  0  0  0  0  0
   17.6267   18.2696   23.8855 H   0  0  0  0  0  0  0  0  0  0  0  0
   19.1365   17.3739   22.5487 C   0  0  0  0  0  0  0  0  0  0  0  0
   18.2888   16.9129   22.0253 H   0  0  0  0  0  0  0  0  0  0  0  0
   19.6530   16.5830   23.1089 H   0  0  0  0  0  0  0  0  0  0  0  0
   20.0563   18.0548   21.5142 C   0  0  0  0  0  0  0  0  0  0  0  0
   19.7456   17.7591   20.5015 H   0  0  0  0  0  0  0  0  0  0  0  0
   19.8697   19.5754   21.7012 C   0  0  0  0  0  0  0  0  0  0  0  0
   20.7520   20.0098   22.1906 H   0  0  0  0  0  0  0  0  0  0  0  0
   19.7320   20.0862   20.7394 H   0  0  0  0  0  0  0  0  0  0  0  0
   21.4119   17.6939   21.7505 O   0  0  0  0  0  0  0  0  0  0  0  0
   21.9489   18.1609   21.0759 H   0  0  0  0  0  0  0  0  0  0  0  0
  1  2  1  0  0  0  0
  1  3  1  0  0  0  0
  1  4  1  0  0  0  0
  4  5  1  0  0  0  0
  4  6  1  0  0  0  0
  4  7  1  0  0  0  0
  7  8  1  0  0  0  0
  7  9  1  0  0  0  0
  7 10  1  0  0  0  0
 10 11  1  0  0  0  0
  1 12  1  0  0  0  0
 10 12  1  0  0  0  0
 12 13  1  0  0  0  0
 12 14  1  0  0  0  0
 10 15  1  0  0  0  0
 15 16  1  0  0  0  0
M  END
> <VConfSearch Rank>
38

> <Conf_Id>
33

> <Delta U+W>
0.015

> <U+W>
3.025

> <U>
5.843

> <W>
-2.819

> <W(PB)>
-4.568

> <W(SA)>
1.750

> <Valence>
13.789

> <Coulomb>
-8.574

> <VdW>
0.628

> <VdW6>
-3.284

> <VdW12>
3.913

> <Bond>
0.054

> <Angle>
4.033

> <Pdih>
9.702

> <Idih>
0.000

> <Tether>
0.000

$$$$
VeraChem MOL file


 16 16  0  0  0  0  0  0  0  0999 V2000     
   20.0918   19.5372   21.6128 C   0  0  0  0  0  0  0  0  0  0  0  0
   20.2241   20.4749   22.1699 H   0  0  0  0  0  0  0  0  0  0  0  0
   20.6230   19.6399   20.6566 H   0  0  0  0  0  0  0  0  0  0  0  0
   18.5874   19.2606   21.3997 C   0  0  0  0  0  0  0  0  0  0  0  0
   17.9917   20.0650   21.8528 H   0  0  0  0  0  0  0  0  0  0  0  0
   18.3319   19.2175   20.3321 H   0  0  0  0  0  0  0  0  0  0  0  0
   18.2865   17.9167   22.0968 C   0  0  0  0  0  0  0  0  0  0  0  0
   18.2979   17.1078   21.3545 H   0  0  0  0  0  0  0  0  0  0  0  0
   17.3014   17.9110   22.5822 H   0  0  0  0  0  0  0  0  0  0  0  0
   19.4285   17.6915   23.0969 C   0  0  0  0  0  0  0  0  0  0  0  0
   19.5989   16.6212   23.2822 H   0  0  0  0  0  0  0  0  0  0  0  0
   20.6437   18.3495   22.4295 C   0  0  0  0  0  0  0  0  0  0  0  0
   21.4007   18.6632   23.1607 H   0  0  0  0  0  0  0  0  0  0  0  0
   21.1140   17.6251   21.7516 H   0  0  0  0  0  0  0  0  0  0  0  0
   19.1324   18.3742   24.3064 O   0  0  0  0  0  0  0  0  0  0  0  0
   18.9978   19.3085   24.0453 H   0  0  0  0  0  0  0  0  0  0  0  0
  1  2  1  0  0  0  0
  1  3  1  0  0  0  0
  1  4  1  0  0  0  0
  4  5  1  0  0  0  0
  4  6  1  0  0  0  0
  4  7  1  0  0  0  0
  7  8  1  0  0  0  0
  7  9  1  0  0  0  0
  7 10  1  0  0  0  0
 10 11  1  0  0  0  0
  1 12  1  0  0  0  0
 10 12  1  0  0  0  0
 12 13  1  0  0  0  0
 12 14  1  0  0  0  0
 10 15  1  0  0  0  0
 15 16  1  0  0  0  0
M  END
> <VConfSearch Rank>
39

> <Conf_Id>
20

> <Delta U+W>
-0.483

> <U+W>
2.527

> <U>
4.508

> <W>
-1.981

> <W(PB)>
-3.712

> <W(SA)>
1.732

> <Valence>
14.705

> <Coulomb>
-10.687

> <VdW>
0.490

> <VdW6>
-3.745

> <VdW12>
4.235

> <Bond>
0.068

> <Angle>
3.901

> <Pdih>
10.737

> <Idih>
0.000

> <Tether>
0.000

$$$$
VeraChem MOL file


 16 16  0  0  0  0  0  0  0  0999 V2000     
   19.4718   18.1726   23.7124 C   0  0  0  0  0  0  0  0  0  0  0  0
   18.8833   17.2490   23.8039 H   0  0  0  0  0  0  0  0  0  0  0  0
   19.9360   18.3826   24.6856 H   0  0  0  0  0  0  0  0  0  0  0  0
   18.5647   19.3156   23.2368 C   0  0  0  0  0  0  0  0  0  0  0  0
   17.5715   19.2835   23.7052 H   0  0  0  0  0  0  0  0  0  0  0  0
   19.0285   20.2815   23.4805 H   0  0  0  0  0  0  0  0  0  0  0  0
   18.4976   19.1408   21.7085 C   0  0  0  0  0  0  0  0  0  0  0  0
   18.3441   20.1020   21.2012 H   0  0  0  0  0  0  0  0  0  0  0  0
   17.6527   18.4864   21.4545 H   0  0  0  0  0  0  0  0  0  0  0  0
   19.8287   18.4833   21.2872 C   0  0  0  0  0  0  0  0  0  0  0  0
   20.4715   19.2220   20.7865 H   0  0  0  0  0  0  0  0  0  0  0  0
   20.5115   18.0123   22.5879 C   0  0  0  0  0  0  0  0  0  0  0  0
   20.8744   16.9782   22.5173 H   0  0  0  0  0  0  0  0  0  0  0  0
   21.3768   18.6564   22.7915 H   0  0  0  0  0  0  0  0  0  0  0  0
   19.5792   17.3726   20.4340 O   0  0  0  0  0  0  0  0  0  0  0  0
   19.1374   17.7266   19.6334 H   0  0  0  0  0  0  0  0  0  0  0  0
  1  2  1  0  0  0  0
  1  3  1  0  0  0  0
  1  4  1  0  0  0  0
  4  5  1  0  0  0  0
  4  6  1  0  0  0  0
  4  7  1  0  0  0  0
  7  8  1  0  0  0  0
  7  9  1  0  0  0  0
  7 10  1  0  0  0  0
 10 11  1  0  0  0  0
  1 12  1  0  0  0  0
 10 12  1  0  0  0  0
 12 13  1  0  0  0  0
 12 14  1  0  0  0  0
 10 15  1  0  0  0  0
 15 16  1  0  0  0  0
M  END
> <VConfSearch Rank>
40

> <Conf_Id>
59

> <Delta U+W>
0.000

> <U+W>
3.010

> <U>
5.843

> <W>
-2.833

> <W(PB)>
-4.568

> <W(SA)>
1.735

> <Valence>
13.789

> <Coulomb>
-8.574

> <VdW>
0.628

> <VdW6>
-3.284

> <VdW12>
3.912

> <Bond>
0.054

> <Angle>
4.034

> <Pdih>
9.702

> <Idih>
0.000

> <Tether>
0.000

$$$$
VeraChem MOL file


 16 16  0  0  0  0  0  0  0  0999 V2000     
   20.2694   19.5249   23.0404 C   0  0  0  0  0  0  0  0  0  0  0  0
   21.2515   19.5525   23.5317 H   0  0  0  0  0  0  0  0  0  0  0  0
   19.8537   20.5422   23.0460 H   0  0  0  0  0  0  0  0  0  0  0  0
   19.2949   18.5652   23.7369 C   0  0  0  0  0  0  0  0  0  0  0  0
   19.8318   17.6594   24.0516 H   0  0  0  0  0  0  0  0  0  0  0  0
   18.8266   19.0133   24.6237 H   0  0  0  0  0  0  0  0  0  0  0  0
   18.2669   18.2035   22.6490 C   0  0  0  0  0  0  0  0  0  0  0  0
   17.4343   18.9185   22.6765 H   0  0  0  0  0  0  0  0  0  0  0  0
   17.8499   17.1995   22.8045 H   0  0  0  0  0  0  0  0  0  0  0  0
   18.9955   18.3317   21.2953 C   0  0  0  0  0  0  0  0  0  0  0  0
   18.4013   18.9660   20.6215 H   0  0  0  0  0  0  0  0  0  0  0  0
   20.3522   19.0040   21.5939 C   0  0  0  0  0  0  0  0  0  0  0  0
   21.1658   18.2697   21.5183 H   0  0  0  0  0  0  0  0  0  0  0  0
   20.5643   19.8161   20.8867 H   0  0  0  0  0  0  0  0  0  0  0  0
   19.2005   17.0447   20.7247 O   0  0  0  0  0  0  0  0  0  0  0  0
   19.6741   17.1848   19.8776 H   0  0  0  0  0  0  0  0  0  0  0  0
  1  2  1  0  0  0  0
  1  3  1  0  0  0  0
  1  4  1  0  0  0  0
  4  5  1  0  0  0  0
  4  6  1  0  0  0  0
  4  7  1  0  0  0  0
  7  8  1  0  0  0  0
  7  9  1  0  0  0  0
  7 10  1  0  0  0  0
 10 11  1  0  0  0  0
  1 12  1  0  0  0  0
 10 12  1  0  0  0  0
 12 13  1  0  0  0  0
 12 14  1  0  0  0  0
 10 15  1  0  0  0  0
 15 16  1  0  0  0  0
M  END
> <VConfSearch Rank>
41

> <Conf_Id>
33

> <Delta U+W>
0.015

> <U+W>
3.025

> <U>
5.843

> <W>
-2.819

> <W(PB)>
-4.568

> <W(SA)>
1.750

> <Valence>
13.789

> <Coulomb>
-8.574

> <VdW>
0.628

> <VdW6>
-3.284

> <VdW12>
3.913

> <Bond>
0.054

> <Angle>
4.033

> <Pdih>
9.702

> <Idih>
0.000

> <Tether>
0.000

$$$$
VeraChem MOL file


 16 16  0  0  0  0  0  0  0  0999 V2000     
   18.8124   18.6378   23.4681 C   0  0  0  0  0  0  0  0  0  0  0  0
   17.7824   18.2563   23.4944 H   0  0  0  0  0  0  0  0  0  0  0  0
   19.0877   18.9250   24.4922 H   0  0  0  0  0  0  0  0  0  0  0  0
   18.9041   19.8361   22.4982 C   0  0  0  0  0  0  0  0  0  0  0  0
   17.9182   20.0352   22.0559 H   0  0  0  0  0  0  0  0  0  0  0  0
   19.2283   20.7499   23.0148 H   0  0  0  0  0  0  0  0  0  0  0  0
   19.9102   19.4335   21.3990 C   0  0  0  0  0  0  0  0  0  0  0  0
   20.8975   19.8526   21.6340 H   0  0  0  0  0  0  0  0  0  0  0  0
   19.6161   19.8063   20.4088 H   0  0  0  0  0  0  0  0  0  0  0  0
   19.9960   17.9019   21.4416 C   0  0  0  0  0  0  0  0  0  0  0  0
   20.9728   17.5414   21.0882 H   0  0  0  0  0  0  0  0  0  0  0  0
   19.7675   17.5566   22.9193 C   0  0  0  0  0  0  0  0  0  0  0  0
   19.3684   16.5422   23.0525 H   0  0  0  0  0  0  0  0  0  0  0  0
   20.7269   17.6106   23.4505 H   0  0  0  0  0  0  0  0  0  0  0  0
   18.9419   17.3526   20.6645 O   0  0  0  0  0  0  0  0  0  0  0  0
   18.1215   17.7256   21.0480 H   0  0  0  0  0  0  0  0  0  0  0  0
  1  2  1  0  0  0  0
  1  3  1  0  0  0  0
  1  4  1  0  0  0  0
  4  5  1  0  0  0  0
  4  6  1  0  0  0  0
  4  7  1  0  0  0  0
  7  8  1  0  0  0  0
  7  9  1  0  0  0  0
  7 10  1  0  0  0  0
 10 11  1  0  0  0  0
  1 12  1  0  0  0  0
 10 12  1  0  0  0  0
 12 13  1  0  0  0  0
 12 14  1  0  0  0  0
 10 15  1  0  0  0  0
 15 16  1  0  0  0  0
M  END
> <VConfSearch Rank>
42

> <Conf_Id>
20

> <Delta U+W>
-0.483

> <U+W>
2.527

> <U>
4.508

> <W>
-1.981

> <W(PB)>
-3.712

> <W(SA)>
1.732

> <Valence>
14.705

> <Coulomb>
-10.687

> <VdW>
0.490

> <VdW6>
-3.745

> <VdW12>
4.235

> <Bond>
0.068

> <Angle>
3.901

> <Pdih>
10.737

> <Idih>
0.000

> <Tether>
0.000

$$$$
VeraChem MOL file


 16 16  0  0  0  0  0  0  0  0999 V2000     
   20.1179   18.2053   21.1247 C   0  0  0  0  0  0  0  0  0  0  0  0
   21.0444   17.7507   21.5024 H   0  0  0  0  0  0  0  0  0  0  0  0
   20.1315   18.1534   20.0275 H   0  0  0  0  0  0  0  0  0  0  0  0
   20.0038   19.6458   21.6420 C   0  0  0  0  0  0  0  0  0  0  0  0
   20.9701   20.1684   21.6400 H   0  0  0  0  0  0  0  0  0  0  0  0
   19.3059   20.2117   21.0092 H   0  0  0  0  0  0  0  0  0  0  0  0
   19.4200   19.4989   23.0591 C   0  0  0  0  0  0  0  0  0  0  0  0
   18.8255   20.3775   23.3411 H   0  0  0  0  0  0  0  0  0  0  0  0
   20.2414   19.4011   23.7820 H   0  0  0  0  0  0  0  0  0  0  0  0
   18.5637   18.2151   23.0457 C   0  0  0  0  0  0  0  0  0  0  0  0
   17.4952   18.4753   23.0509 H   0  0  0  0  0  0  0  0  0  0  0  0
   18.9028   17.4803   21.7323 C   0  0  0  0  0  0  0  0  0  0  0  0
   19.1073   16.4133   21.8925 H   0  0  0  0  0  0  0  0  0  0  0  0
   18.0478   17.5572   21.0481 H   0  0  0  0  0  0  0  0  0  0  0  0
   18.8882   17.3969   24.1634 O   0  0  0  0  0  0  0  0  0  0  0  0
   18.6641   17.9147   24.9654 H   0  0  0  0  0  0  0  0  0  0  0  0
  1  2  1  0  0  0  0
  1  3  1  0  0  0  0
  1  4  1  0  0  0  0
  4  5  1  0  0  0  0
  4  6  1  0  0  0  0
  4  7  1  0  0  0  0
  7  8  1  0  0  0  0
  7  9  1  0  0  0  0
  7 10  1  0  0  0  0
 10 11  1  0  0  0  0
  1 12  1  0  0  0  0
 10 12  1  0  0  0  0
 12 13  1  0  0  0  0
 12 14  1  0  0  0  0
 10 15  1  0  0  0  0
 15 16  1  0  0  0  0
M  END
> <VConfSearch Rank>
43

> <Conf_Id>
59

> <Delta U+W>
0.000

> <U+W>
3.010

> <U>
5.843

> <W>
-2.833

> <W(PB)>
-4.568

> <W(SA)>
1.735

> <Valence>
13.789

> <Coulomb>
-8.574

> <VdW>
0.628

> <VdW6>
-3.284

> <VdW12>
3.912

> <Bond>
0.054

> <Angle>
4.034

> <Pdih>
9.702

> <Idih>
0.000

> <Tether>
0.000

$$$$
VeraChem MOL file


 16 16  0  0  0  0  0  0  0  0999 V2000     
   19.5853   19.9213   22.8661 C   0  0  0  0  0  0  0  0  0  0  0  0
   19.8446   20.3872   23.8266 H   0  0  0  0  0  0  0  0  0  0  0  0
   19.5142   20.7137   22.1080 H   0  0  0  0  0  0  0  0  0  0  0  0
   18.2610   19.1483   22.9307 C   0  0  0  0  0  0  0  0  0  0  0  0
   18.1903   18.6182   23.8908 H   0  0  0  0  0  0  0  0  0  0  0  0
   17.3862   19.8059   22.8355 H   0  0  0  0  0  0  0  0  0  0  0  0
   18.3553   18.1260   21.7830 C   0  0  0  0  0  0  0  0  0  0  0  0
   17.9454   18.5649   20.8641 H   0  0  0  0  0  0  0  0  0  0  0  0
   17.7808   17.2164   22.0036 H   0  0  0  0  0  0  0  0  0  0  0  0
   19.8559   17.8349   21.5755 C   0  0  0  0  0  0  0  0  0  0  0  0
   20.1069   17.9615   20.5123 H   0  0  0  0  0  0  0  0  0  0  0  0
   20.6212   18.8707   22.4260 C   0  0  0  0  0  0  0  0  0  0  0  0
   21.0514   18.3899   23.3151 H   0  0  0  0  0  0  0  0  0  0  0  0
   21.4424   19.3295   21.8603 H   0  0  0  0  0  0  0  0  0  0  0  0
   20.1649   16.5167   22.0122 O   0  0  0  0  0  0  0  0  0  0  0  0
   21.1267   16.3910   21.8686 H   0  0  0  0  0  0  0  0  0  0  0  0
  1  2  1  0  0  0  0
  1  3  1  0  0  0  0
  1  4  1  0  0  0  0
  4  5  1  0  0  0  0
  4  6  1  0  0  0  0
  4  7  1  0  0  0  0
  7  8  1  0  0  0  0
  7  9  1  0  0  0  0
  7 10  1  0  0  0  0
 10 11  1  0  0  0  0
  1 12  1  0  0  0  0
 10 12  1  0  0  0  0
 12 13  1  0  0  0  0
 12 14  1  0  0  0  0
 10 15  1  0  0  0  0
 15 16  1  0  0  0  0
M  END
> <VConfSearch Rank>
44

> <Conf_Id>
33

> <Delta U+W>
0.015

> <U+W>
3.025

> <U>
5.843

> <W>
-2.819

> <W(PB)>
-4.568

> <W(SA)>
1.750

> <Valence>
13.789

> <Coulomb>
-8.574

> <VdW>
0.628

> <VdW6>
-3.284

> <VdW12>
3.913

> <Bond>
0.054

> <Angle>
4.033

> <Pdih>
9.702

> <Idih>
0.000

> <Tether>
0.000

$$$$
VeraChem MOL file


 16 16  0  0  0  0  0  0  0  0999 V2000     
   18.9035   18.1181   23.4059 C   0  0  0  0  0  0  0  0  0  0  0  0
   18.3772   18.8536   24.0298 H   0  0  0  0  0  0  0  0  0  0  0  0
   18.8663   17.1516   23.9269 H   0  0  0  0  0  0  0  0  0  0  0  0
   20.3581   18.5782   23.1659 C   0  0  0  0  0  0  0  0  0  0  0  0
   20.5360   19.5357   23.6745 H   0  0  0  0  0  0  0  0  0  0  0  0
   21.0818   17.8517   23.5604 H   0  0  0  0  0  0  0  0  0  0  0  0
   20.5175   18.7473   21.6400 C   0  0  0  0  0  0  0  0  0  0  0  0
   20.9833   17.8471   21.2178 H   0  0  0  0  0  0  0  0  0  0  0  0
   21.1522   19.6050   21.3803 H   0  0  0  0  0  0  0  0  0  0  0  0
   19.0966   18.8840   21.0767 C   0  0  0  0  0  0  0  0  0  0  0  0
   19.0374   18.5295   20.0375 H   0  0  0  0  0  0  0  0  0  0  0  0
   18.2389   18.0253   22.0159 C   0  0  0  0  0  0  0  0  0  0  0  0
   17.1898   18.3492   22.0337 H   0  0  0  0  0  0  0  0  0  0  0  0
   18.2614   16.9844   21.6673 H   0  0  0  0  0  0  0  0  0  0  0  0
   18.6832   20.2391   21.1740 O   0  0  0  0  0  0  0  0  0  0  0  0
   18.7686   20.4640   22.1234 H   0  0  0  0  0  0  0  0  0  0  0  0
  1  2  1  0  0  0  0
  1  3  1  0  0  0  0
  1  4  1  0  0  0  0
  4  5  1  0  0  0  0
  4  6  1  0  0  0  0
  4  7  1  0  0  0  0
  7  8  1  0  0  0  0
  7  9  1  0  0  0  0
  7 10  1  0  0  0  0
 10 11  1  0  0  0  0
  1 12  1  0  0  0  0
 10 12  1  0  0  0  0
 12 13  1  0  0  0  0
 12 14  1  0  0  0  0
 10 15  1  0  0  0  0
 15 16  1  0  0  0  0
M  END
> <VConfSearch Rank>
45

> <Conf_Id>
20

> <Delta U+W>
-0.483

> <U+W>
2.527

> <U>
4.508

> <W>
-1.981

> <W(PB)>
-3.712

> <W(SA)>
1.732

> <Valence>
14.705

> <Coulomb>
-10.687

> <VdW>
0.490

> <VdW6>
-3.745

> <VdW12>
4.235

> <Bond>
0.068

> <Angle>
3.901

> <Pdih>
10.737

> <Idih>
0.000

> <Tether>
0.000

$$$$
VeraChem MOL file


 16 16  0  0  0  0  0  0  0  0999 V2000     
   19.3238   17.5431   21.2699 C   0  0  0  0  0  0  0  0  0  0  0  0
   18.3333   17.6474   20.8056 H   0  0  0  0  0  0  0  0  0  0  0  0
   19.8813   16.7715   20.7217 H   0  0  0  0  0  0  0  0  0  0  0  0
   19.1613   17.2031   22.7578 C   0  0  0  0  0  0  0  0  0  0  0  0
   18.3393   16.4969   22.9377 H   0  0  0  0  0  0  0  0  0  0  0  0
   20.0895   16.7542   23.1379 H   0  0  0  0  0  0  0  0  0  0  0  0
   18.9241   18.5639   23.4380 C   0  0  0  0  0  0  0  0  0  0  0  0
   19.2910   18.5646   24.4725 H   0  0  0  0  0  0  0  0  0  0  0  0
   17.8463   18.7750   23.4621 H   0  0  0  0  0  0  0  0  0  0  0  0
   19.6555   19.6144   22.5759 C   0  0  0  0  0  0  0  0  0  0  0  0
   20.5677   19.9528   23.0886 H   0  0  0  0  0  0  0  0  0  0  0  0
   20.0430   18.9047   21.2621 C   0  0  0  0  0  0  0  0  0  0  0  0
   19.7789   19.4962   20.3753 H   0  0  0  0  0  0  0  0  0  0  0  0
   21.1293   18.7475   21.2470 H   0  0  0  0  0  0  0  0  0  0  0  0
   18.7935   20.7130   22.3044 O   0  0  0  0  0  0  0  0  0  0  0  0
   18.5719   21.1172   23.1698 H   0  0  0  0  0  0  0  0  0  0  0  0
  1  2  1  0  0  0  0
  1  3  1  0  0  0  0
  1  4  1  0  0  0  0
  4  5  1  0  0  0  0
  4  6  1  0  0  0  0
  4  7  1  0  0  0  0
  7  8  1  0  0  0  0
  7  9  1  0  0  0  0
  7 10  1  0  0  0  0
 10 11  1  0  0  0  0
  1 12  1  0  0  0  0
 10 12  1  0  0  0  0
 12 13  1  0  0  0  0
 12 14  1  0  0  0  0
 10 15  1  0  0  0  0
 15 16  1  0  0  0  0
M  END
> <VConfSearch Rank>
46

> <Conf_Id>
59

> <Delta U+W>
0.000

> <U+W>
3.010

> <U>
5.843

> <W>
-2.833

> <W(PB)>
-4.568

> <W(SA)>
1.735

> <Valence>
13.789

> <Coulomb>
-8.574

> <VdW>
0.628

> <VdW6>
-3.284

> <VdW12>
3.912

> <Bond>
0.054

> <Angle>
4.034

> <Pdih>
9.702

> <Idih>
0.000

> <Tether>
0.000

$$$$
VeraChem MOL file


 16 16  0  0  0  0  0  0  0  0999 V2000     
   18.6568   18.4413   21.1096 C   0  0  0  0  0  0  0  0  0  0  0  0
   18.7755   18.1219   20.0653 H   0  0  0  0  0  0  0  0  0  0  0  0
   17.5833   18.5583   21.3132 H   0  0  0  0  0  0  0  0  0  0  0  0
   19.3847   19.7603   21.4031 C   0  0  0  0  0  0  0  0  0  0  0  0
   20.3514   19.7717   20.8805 H   0  0  0  0  0  0  0  0  0  0  0  0
   18.8087   20.6382   21.0805 H   0  0  0  0  0  0  0  0  0  0  0  0
   19.6214   19.7394   22.9245 C   0  0  0  0  0  0  0  0  0  0  0  0
   18.7692   20.2052   23.4363 H   0  0  0  0  0  0  0  0  0  0  0  0
   20.5241   20.3004   23.2010 H   0  0  0  0  0  0  0  0  0  0  0  0
   19.7054   18.2551   23.3362 C   0  0  0  0  0  0  0  0  0  0  0  0
   19.0164   18.0707   24.1734 H   0  0  0  0  0  0  0  0  0  0  0  0
   19.2689   17.4366   22.1028 C   0  0  0  0  0  0  0  0  0  0  0  0
   20.1396   16.9525   21.6397 H   0  0  0  0  0  0  0  0  0  0  0  0
   18.5508   16.6516   22.3730 H   0  0  0  0  0  0  0  0  0  0  0  0
   21.0398   17.9216   23.6996 O   0  0  0  0  0  0  0  0  0  0  0  0
   21.0366   16.9708   23.9395 H   0  0  0  0  0  0  0  0  0  0  0  0
  1  2  1  0  0  0  0
  1  3  1  0  0  0  0
  1  4  1  0  0  0  0
  4  5  1  0  0  0  0
  4  6  1  0  0  0  0
  4  7  1  0  0  0  0
  7  8  1  0  0  0  0
  7  9  1  0  0  0  0
  7 10  1  0  0  0  0
 10 11  1  0  0  0  0
  1 12  1  0  0  0  0
 10 12  1  0  0  0  0
 12 13  1  0  0  0  0
 12 14  1  0  0  0  0
 10 15  1  0  0  0  0
 15 16  1  0  0  0  0
M  END
> <VConfSearch Rank>
47

> <Conf_Id>
33

> <Delta U+W>
0.015

> <U+W>
3.025

> <U>
5.843

> <W>
-2.819

> <W(PB)>
-4.568

> <W(SA)>
1.750

> <Valence>
13.789

> <Coulomb>
-8.574

> <VdW>
0.628

> <VdW6>
-3.284

> <VdW12>
3.913

> <Bond>
0.054

> <Angle>
4.033

> <Pdih>
9.702

> <Idih>
0.000

> <Tether>
0.000

$$$$
VeraChem MOL file


 16 16  0  0  0  0  0  0  0  0999 V2000     
   20.5191   19.1034   22.7481 C   0  0  0  0  0  0  0  0  0  0  0  0
   21.3489   19.1240   22.0281 H   0  0  0  0  0  0  0  0  0  0  0  0
   20.8864   19.5285   23.6922 H   0  0  0  0  0  0  0  0  0  0  0  0
   20.0210   17.6535   22.9339 C   0  0  0  0  0  0  0  0  0  0  0  0
   20.6103   16.9723   22.3047 H   0  0  0  0  0  0  0  0  0  0  0  0
   20.1267   17.3205   23.9755 H   0  0  0  0  0  0  0  0  0  0  0  0
   18.5414   17.6394   22.4945 C   0  0  0  0  0  0  0  0  0  0  0  0
   17.8954   17.7230   23.3784 H   0  0  0  0  0  0  0  0  0  0  0  0
   18.2718   16.7129   21.9701 H   0  0  0  0  0  0  0  0  0  0  0  0
   18.3470   18.8823   21.6158 C   0  0  0  0  0  0  0  0  0  0  0  0
   17.3089   19.2431   21.6491 H   0  0  0  0  0  0  0  0  0  0  0  0
   19.3215   19.9113   22.2045 C   0  0  0  0  0  0  0  0  0  0  0  0
   19.6280   20.6640   21.4659 H   0  0  0  0  0  0  0  0  0  0  0  0
   18.8277   20.4371   23.0323 H   0  0  0  0  0  0  0  0  0  0  0  0
   18.7355   18.5789   20.2839 O   0  0  0  0  0  0  0  0  0  0  0  0
   19.6621   18.2696   20.3530 H   0  0  0  0  0  0  0  0  0  0  0  0
  1  2  1  0  0  0  0
  1  3  1  0  0  0  0
  1  4  1  0  0  0  0
  4  5  1  0  0  0  0
  4  6  1  0  0  0  0
  4  7  1  0  0  0  0
  7  8  1  0  0  0  0
  7  9  1  0  0  0  0
  7 10  1  0  0  0  0
 10 11  1  0  0  0  0
  1 12  1  0  0  0  0
 10 12  1  0  0  0  0
 12 13  1  0  0  0  0
 12 14  1  0  0  0  0
 10 15  1  0  0  0  0
 15 16  1  0  0  0  0
M  END
> <VConfSearch Rank>
48

> <Conf_Id>
20

> <Delta U+W>
-0.483

> <U+W>
2.527

> <U>
4.508

> <W>
-1.981

> <W(PB)>
-3.712

> <W(SA)>
1.732

> <Valence>
14.705

> <Coulomb>
-10.687

> <VdW>
0.490

> <VdW6>
-3.745

> <VdW12>
4.235

> <Bond>
0.068

> <Angle>
3.901

> <Pdih>
10.737

> <Idih>
0.000

> <Tether>
0.000

$$$$
VeraChem MOL file


 16 16  0  0  0  0  0  0  0  0999 V2000     
   19.1316   19.4249   21.1722 C   0  0  0  0  0  0  0  0  0  0  0  0
   20.1247   19.8172   20.9124 H   0  0  0  0  0  0  0  0  0  0  0  0
   18.4086   19.8046   20.4374 H   0  0  0  0  0  0  0  0  0  0  0  0
   18.7769   19.8332   22.6086 C   0  0  0  0  0  0  0  0  0  0  0  0
   19.0944   20.8586   22.8421 H   0  0  0  0  0  0  0  0  0  0  0  0
   17.6894   19.7689   22.7533 H   0  0  0  0  0  0  0  0  0  0  0  0
   19.4825   18.7862   23.4898 C   0  0  0  0  0  0  0  0  0  0  0  0
   18.9428   18.6257   24.4320 H   0  0  0  0  0  0  0  0  0  0  0  0
   20.4930   19.1401   23.7357 H   0  0  0  0  0  0  0  0  0  0  0  0
   19.5581   17.4924   22.6519 C   0  0  0  0  0  0  0  0  0  0  0  0
   18.8339   16.7563   23.0300 H   0  0  0  0  0  0  0  0  0  0  0  0
   19.1785   17.8862   21.2094 C   0  0  0  0  0  0  0  0  0  0  0  0
   19.8832   17.4852   20.4687 H   0  0  0  0  0  0  0  0  0  0  0  0
   18.1847   17.4815   20.9777 H   0  0  0  0  0  0  0  0  0  0  0  0
   20.8781   16.9628   22.6846 O   0  0  0  0  0  0  0  0  0  0  0  0
   21.0692   16.7416   23.6206 H   0  0  0  0  0  0  0  0  0  0  0  0
  1  2  1  0  0  0  0
  1  3  1  0  0  0  0
  1  4  1  0  0  0  0
  4  5  1  0  0  0  0
  4  6  1  0  0  0  0
  4  7  1  0  0  0  0
  7  8  1  0  0  0  0
  7  9  1  0  0  0  0
  7 10  1  0  0  0  0
 10 11  1  0  0  0  0
  1 12  1  0  0  0  0
 10 12  1  0  0  0  0
 12 13  1  0  0  0  0
 12 14  1  0  0  0  0
 10 15  1  0  0  0  0
 15 16  1  0  0  0  0
M  END
> <VConfSearch Rank>
49

> <Conf_Id>
59

> <Delta U+W>
0.000

> <U+W>
3.010

> <U>
5.843

> <W>
-2.833

> <W(PB)>
-4.568

> <W(SA)>
1.735

> <Valence>
13.789

> <Coulomb>
-8.574

> <VdW>
0.628

> <VdW6>
-3.284

> <VdW12>
3.912

> <Bond>
0.054

> <Angle>
4.034

> <Pdih>
9.702

> <Idih>
0.000

> <Tether>
0.000

$$$$
VeraChem MOL file


 16 16  0  0  0  0  0  0  0  0999 V2000     
   18.2583   18.9874   22.9959 C   0  0  0  0  0  0  0  0  0  0  0  0
   17.3224   18.5335   23.3492 H   0  0  0  0  0  0  0  0  0  0  0  0
   18.3237   20.0043   23.4073 H   0  0  0  0  0  0  0  0  0  0  0  0
   18.3381   19.0441   21.4642 C   0  0  0  0  0  0  0  0  0  0  0  0
   17.9246   18.1187   21.0393 H   0  0  0  0  0  0  0  0  0  0  0  0
   17.7810   19.8936   21.0462 H   0  0  0  0  0  0  0  0  0  0  0  0
   19.8454   19.1228   21.1595 C   0  0  0  0  0  0  0  0  0  0  0  0
   20.1590   20.1741   21.1206 H   0  0  0  0  0  0  0  0  0  0  0  0
   20.0864   18.6665   20.1901 H   0  0  0  0  0  0  0  0  0  0  0  0
   20.5678   18.4255   22.3307 C   0  0  0  0  0  0  0  0  0  0  0  0
   21.3515   19.0906   22.7219 H   0  0  0  0  0  0  0  0  0  0  0  0
   19.4978   18.1754   23.4143 C   0  0  0  0  0  0  0  0  0  0  0  0
   19.2373   17.1089   23.4531 H   0  0  0  0  0  0  0  0  0  0  0  0
   19.8543   18.4718   24.4093 H   0  0  0  0  0  0  0  0  0  0  0  0
   21.1256   17.1906   21.8974 O   0  0  0  0  0  0  0  0  0  0  0  0
   21.5595   16.7882   22.6794 H   0  0  0  0  0  0  0  0  0  0  0  0
  1  2  1  0  0  0  0
  1  3  1  0  0  0  0
  1  4  1  0  0  0  0
  4  5  1  0  0  0  0
  4  6  1  0  0  0  0
  4  7  1  0  0  0  0
  7  8  1  0  0  0  0
  7  9  1  0  0  0  0
  7 10  1  0  0  0  0
 10 11  1  0  0  0  0
  1 12  1  0  0  0  0
 10 12  1  0  0  0  0
 12 13  1  0  0  0  0
 12 14  1  0  0  0  0
 10 15  1  0  0  0  0
 15 16  1  0  0  0  0
M  END
> <VConfSearch Rank>
50

> <Conf_Id>
33

> <Delta U+W>
0.015

> <U+W>
3.025

> <U>
5.843

> <W>
-2.819

> <W(PB)>
-4.568

> <W(SA)>
1.750

> <Valence>
13.789

> <Coulomb>
-8.574

> <VdW>
0.628

> <VdW6>
-3.284

> <VdW12>
3.913

> <Bond>
0.054

> <Angle>
4.033

> <Pdih>
9.702

> <Idih>
0.000

> <Tether>
0.000

$$$$
VeraChem MOL file


 16 16  0  0  0  0  0  0  0  0999 V2000     
   19.7930   18.8255   23.5097 C   0  0  0  0  0  0  0  0  0  0  0  0
   20.8598   19.0742   23.5961 H   0  0  0  0  0  0  0  0  0  0  0  0
   19.3633   18.8454   24.5206 H   0  0  0  0  0  0  0  0  0  0  0  0
   19.6288   17.4388   22.8500 C   0  0  0  0  0  0  0  0  0  0  0  0
   20.6160   17.0160   22.6180 H   0  0  0  0  0  0  0  0  0  0  0  0
   19.1122   16.7336   23.5154 H   0  0  0  0  0  0  0  0  0  0  0  0
   18.8267   17.6646   21.5507 C   0  0  0  0  0  0  0  0  0  0  0  0
   17.7667   17.4416   21.7304 H   0  0  0  0  0  0  0  0  0  0  0  0
   19.1700   17.0182   20.7320 H   0  0  0  0  0  0  0  0  0  0  0  0
   18.9724   19.1549   21.2147 C   0  0  0  0  0  0  0  0  0  0  0  0
   18.1085   19.5277   20.6458 H   0  0  0  0  0  0  0  0  0  0  0  0
   19.0831   19.8369   22.5850 C   0  0  0  0  0  0  0  0  0  0  0  0
   19.6153   20.7960   22.5305 H   0  0  0  0  0  0  0  0  0  0  0  0
   18.0730   20.0366   22.9665 H   0  0  0  0  0  0  0  0  0  0  0  0
   20.1791   19.3560   20.4934 O   0  0  0  0  0  0  0  0  0  0  0  0
   20.8840   18.9977   21.0712 H   0  0  0  0  0  0  0  0  0  0  0  0
  1  2  1  0  0  0  0
  1  3  1  0  0  0  0
  1  4  1  0  0  0  0
  4  5  1  0  0  0  0
  4  6  1  0  0  0  0
  4  7  1  0  0  0  0
  7  8  1  0  0  0  0
  7  9  1  0  0  0  0
  7 10  1  0  0  0  0
 10 11  1  0  0  0  0
  1 12  1  0  0  0  0
 10 12  1  0  0  0  0
 12 13  1  0  0  0  0
 12 14  1  0  0  0  0
 10 15  1  0  0  0  0
 15 16  1  0  0  0  0
M  END
> <VConfSearch Rank>
51

> <Conf_Id>
20

> <Delta U+W>
-0.483

> <U+W>
2.527

> <U>
4.508

> <W>
-1.981

> <W(PB)>
-3.712

> <W(SA)>
1.732

> <Valence>
14.705

> <Coulomb>
-10.687

> <VdW>
0.490

> <VdW6>
-3.745

> <VdW12>
4.235

> <Bond>
0.068

> <Angle>
3.901

> <Pdih>
10.737

> <Idih>
0.000

> <Tether>
0.000

$$$$
VeraChem MOL file


 16 16  0  0  0  0  0  0  0  0999 V2000     
   19.6988   18.3072   23.7058 C   0  0  0  0  0  0  0  0  0  0  0  0
   19.5507   17.2275   23.8475 H   0  0  0  0  0  0  0  0  0  0  0  0
   20.0893   18.7269   24.6428 H   0  0  0  0  0  0  0  0  0  0  0  0
   18.3749   18.9564   23.2796 C   0  0  0  0  0  0  0  0  0  0  0  0
   17.5122   18.5365   23.8146 H   0  0  0  0  0  0  0  0  0  0  0  0
   18.4113   20.0363   23.4803 H   0  0  0  0  0  0  0  0  0  0  0  0
   18.2991   18.7110   21.7615 C   0  0  0  0  0  0  0  0  0  0  0  0
   17.7335   19.5035   21.2548 H   0  0  0  0  0  0  0  0  0  0  0  0
   17.7871   17.7576   21.5728 H   0  0  0  0  0  0  0  0  0  0  0  0
   19.7566   18.6439   21.2585 C   0  0  0  0  0  0  0  0  0  0  0  0
   20.0070   19.5618   20.7070 H   0  0  0  0  0  0  0  0  0  0  0  0
   20.6458   18.5459   22.5153 C   0  0  0  0  0  0  0  0  0  0  0  0
   21.3989   17.7509   22.4321 H   0  0  0  0  0  0  0  0  0  0  0  0
   21.1778   19.4963   22.6524 H   0  0  0  0  0  0  0  0  0  0  0  0
   19.9401   17.4970   20.4370 O   0  0  0  0  0  0  0  0  0  0  0  0
   19.3466   17.6068   19.6642 H   0  0  0  0  0  0  0  0  0  0  0  0
  1  2  1  0  0  0  0
  1  3  1  0  0  0  0
  1  4  1  0  0  0  0
  4  5  1  0  0  0  0
  4  6  1  0  0  0  0
  4  7  1  0  0  0  0
  7  8  1  0  0  0  0
  7  9  1  0  0  0  0
  7 10  1  0  0  0  0
 10 11  1  0  0  0  0
  1 12  1  0  0  0  0
 10 12  1  0  0  0  0
 12 13  1  0  0  0  0
 12 14  1  0  0  0  0
 10 15  1  0  0  0  0
 15 16  1  0  0  0  0
M  END
> <VConfSearch Rank>
52

> <Conf_Id>
59

> <Delta U+W>
0.000

> <U+W>
3.010

> <U>
5.843

> <W>
-2.833

> <W(PB)>
-4.568

> <W(SA)>
1.735

> <Valence>
13.789

> <Coulomb>
-8.574

> <VdW>
0.628

> <VdW6>
-3.284

> <VdW12>
3.912

> <Bond>
0.054

> <Angle>
4.034

> <Pdih>
9.702

> <Idih>
0.000

> <Tether>
0.000

$$$$
VeraChem MOL file


 16 16  0  0  0  0  0  0  0  0999 V2000     
   20.3704   19.5816   22.8192 C   0  0  0  0  0  0  0  0  0  0  0  0
   20.3556   20.5087   23.4083 H   0  0  0  0  0  0  0  0  0  0  0  0
   21.4165   19.2667   22.7005 H   0  0  0  0  0  0  0  0  0  0  0  0
   19.7240   19.7567   21.4382 C   0  0  0  0  0  0  0  0  0  0  0  0
   18.8337   20.3949   21.5266 H   0  0  0  0  0  0  0  0  0  0  0  0
   20.4065   20.2169   20.7109 H   0  0  0  0  0  0  0  0  0  0  0  0
   19.3002   18.3343   21.0281 C   0  0  0  0  0  0  0  0  0  0  0  0
   20.1183   17.8500   20.4793 H   0  0  0  0  0  0  0  0  0  0  0  0
   18.4200   18.3482   20.3714 H   0  0  0  0  0  0  0  0  0  0  0  0
   19.0428   17.5578   22.3359 C   0  0  0  0  0  0  0  0  0  0  0  0
   19.6053   16.6130   22.3142 H   0  0  0  0  0  0  0  0  0  0  0  0
   19.5588   18.4534   23.4819 C   0  0  0  0  0  0  0  0  0  0  0  0
   18.7149   18.8890   24.0341 H   0  0  0  0  0  0  0  0  0  0  0  0
   20.1702   17.8847   24.1944 H   0  0  0  0  0  0  0  0  0  0  0  0
   17.6506   17.3114   22.4943 O   0  0  0  0  0  0  0  0  0  0  0  0
   17.5450   16.8286   23.3412 H   0  0  0  0  0  0  0  0  0  0  0  0
  1  2  1  0  0  0  0
  1  3  1  0  0  0  0
  1  4  1  0  0  0  0
  4  5  1  0  0  0  0
  4  6  1  0  0  0  0
  4  7  1  0  0  0  0
  7  8  1  0  0  0  0
  7  9  1  0  0  0  0
  7 10  1  0  0  0  0
 10 11  1  0  0  0  0
  1 12  1  0  0  0  0
 10 12  1  0  0  0  0
 12 13  1  0  0  0  0
 12 14  1  0  0  0  0
 10 15  1  0  0  0  0
 15 16  1  0  0  0  0
M  END
> <VConfSearch Rank>
53

> <Conf_Id>
33

> <Delta U+W>
0.015

> <U+W>
3.025

> <U>
5.843

> <W>
-2.819

> <W(PB)>
-4.568

> <W(SA)>
1.750

> <Valence>
13.789

> <Coulomb>
-8.574

> <VdW>
0.628

> <VdW6>
-3.284

> <VdW12>
3.913

> <Bond>
0.054

> <Angle>
4.033

> <Pdih>
9.702

> <Idih>
0.000

> <Tether>
0.000

$$$$
VeraChem MOL file


 16 16  0  0  0  0  0  0  0  0999 V2000     
   18.5769   19.4716   22.8912 C   0  0  0  0  0  0  0  0  0  0  0  0
   18.4208   20.4195   22.3580 H   0  0  0  0  0  0  0  0  0  0  0  0
   17.9886   19.5099   23.8183 H   0  0  0  0  0  0  0  0  0  0  0  0
   20.0809   19.2735   23.1809 C   0  0  0  0  0  0  0  0  0  0  0  0
   20.6525   20.1261   22.7888 H   0  0  0  0  0  0  0  0  0  0  0  0
   20.2792   19.2071   24.2594 H   0  0  0  0  0  0  0  0  0  0  0  0
   20.4982   17.9746   22.4591 C   0  0  0  0  0  0  0  0  0  0  0  0
   20.4934   17.1404   23.1730 H   0  0  0  0  0  0  0  0  0  0  0  0
   21.5073   18.0421   22.0309 H   0  0  0  0  0  0  0  0  0  0  0  0
   19.4284   17.7206   21.3886 C   0  0  0  0  0  0  0  0  0  0  0  0
   19.3317   16.6495   21.1594 H   0  0  0  0  0  0  0  0  0  0  0  0
   18.1417   18.2843   22.0063 C   0  0  0  0  0  0  0  0  0  0  0  0
   17.4090   18.5802   21.2436 H   0  0  0  0  0  0  0  0  0  0  0  0
   17.6781   17.5106   22.6325 H   0  0  0  0  0  0  0  0  0  0  0  0
   19.7502   18.4616   20.2207 O   0  0  0  0  0  0  0  0  0  0  0  0
   19.8151   19.3921   20.5191 H   0  0  0  0  0  0  0  0  0  0  0  0
  1  2  1  0  0  0  0
  1  3  1  0  0  0  0
  1  4  1  0  0  0  0
  4  5  1  0  0  0  0
  4  6  1  0  0  0  0
  4  7  1  0  0  0  0
  7  8  1  0  0  0  0
  7  9  1  0  0  0  0
  7 10  1  0  0  0  0
 10 11  1  0  0  0  0
  1 12  1  0  0  0  0
 10 12  1  0  0  0  0
 12 13  1  0  0  0  0
 12 14  1  0  0  0  0
 10 15  1  0  0  0  0
 15 16  1  0  0  0  0
M  END
> <VConfSearch Rank>
54

> <Conf_Id>
20

> <Delta U+W>
-0.483

> <U+W>
2.527

> <U>
4.508

> <W>
-1.981

> <W(PB)>
-3.712

> <W(SA)>
1.732

> <Valence>
14.705

> <Coulomb>
-10.687

> <VdW>
0.490

> <VdW6>
-3.745

> <VdW12>
4.235

> <Bond>
0.068

> <Angle>
3.901

> <Pdih>
10.737

> <Idih>
0.000

> <Tether>
0.000

$$$$
VeraChem MOL file


 16 16  0  0  0  0  0  0  0  0999 V2000     
   18.3171   18.3555   21.3188 C   0  0  0  0  0  0  0  0  0  0  0  0
   18.7317   17.6185   20.6170 H   0  0  0  0  0  0  0  0  0  0  0  0
   17.2881   18.5842   21.0097 H   0  0  0  0  0  0  0  0  0  0  0  0
   19.2123   19.6020   21.3440 C   0  0  0  0  0  0  0  0  0  0  0  0
   19.5834   19.8703   20.3455 H   0  0  0  0  0  0  0  0  0  0  0  0
   18.6458   20.4560   21.7409 H   0  0  0  0  0  0  0  0  0  0  0  0
   20.3510   19.2364   22.3136 C   0  0  0  0  0  0  0  0  0  0  0  0
   20.7503   20.1262   22.8172 H   0  0  0  0  0  0  0  0  0  0  0  0
   21.1715   18.7703   21.7511 H   0  0  0  0  0  0  0  0  0  0  0  0
   19.7567   18.2319   23.3233 C   0  0  0  0  0  0  0  0  0  0  0  0
   19.6059   18.7213   24.2966 H   0  0  0  0  0  0  0  0  0  0  0  0
   18.3901   17.7997   22.7530 C   0  0  0  0  0  0  0  0  0  0  0  0
   18.2565   16.7098   22.7715 H   0  0  0  0  0  0  0  0  0  0  0  0
   17.5916   18.2440   23.3614 H   0  0  0  0  0  0  0  0  0  0  0  0
   20.6127   17.1032   23.4546 O   0  0  0  0  0  0  0  0  0  0  0  0
   21.4647   17.4360   23.8081 H   0  0  0  0  0  0  0  0  0  0  0  0
  1  2  1  0  0  0  0
  1  3  1  0  0  0  0
  1  4  1  0  0  0  0
  4  5  1  0  0  0  0
  4  6  1  0  0  0  0
  4  7  1  0  0  0  0
  7  8  1  0  0  0  0
  7  9  1  0  0  0  0
  7 10  1  0  0  0  0
 10 11  1  0  0  0  0
  1 12  1  0  0  0  0
 10 12  1  0  0  0  0
 12 13  1  0  0  0  0
 12 14  1  0  0  0  0
 10 15  1  0  0  0  0
 15 16  1  0  0  0  0
M  END
> <VConfSearch Rank>
55

> <Conf_Id>
59

> <Delta U+W>
0.000

> <U+W>
3.010

> <U>
5.843

> <W>
-2.833

> <W(PB)>
-4.568

> <W(SA)>
1.735

> <Valence>
13.789

> <Coulomb>
-8.574

> <VdW>
0.628

> <VdW6>
-3.284

> <VdW12>
3.912

> <Bond>
0.054

> <Angle>
4.034

> <Pdih>
9.702

> <Idih>
0.000

> <Tether>
0.000

$$$$
VeraChem MOL file


 16 16  0  0  0  0  0  0  0  0999 V2000     
   18.2677   19.2836   22.7477 C   0  0  0  0  0  0  0  0  0  0  0  0
   17.2675   19.0398   23.1310 H   0  0  0  0  0  0  0  0  0  0  0  0
   18.4216   20.3666   22.8531 H   0  0  0  0  0  0  0  0  0  0  0  0
   18.4449   18.8776   21.2782 C   0  0  0  0  0  0  0  0  0  0  0  0
   17.9568   17.9088   21.1024 H   0  0  0  0  0  0  0  0  0  0  0  0
   18.0122   19.6117   20.5850 H   0  0  0  0  0  0  0  0  0  0  0  0
   19.9671   18.7278   21.1007 C   0  0  0  0  0  0  0  0  0  0  0  0
   20.3979   19.6883   20.7891 H   0  0  0  0  0  0  0  0  0  0  0  0
   20.2131   17.9857   20.3295 H   0  0  0  0  0  0  0  0  0  0  0  0
   20.5357   18.3463   22.4830 C   0  0  0  0  0  0  0  0  0  0  0  0
   21.3639   19.0246   22.7350 H   0  0  0  0  0  0  0  0  0  0  0  0
   19.3815   18.5244   23.4919 C   0  0  0  0  0  0  0  0  0  0  0  0
   19.0016   17.5447   23.8126 H   0  0  0  0  0  0  0  0  0  0  0  0
   19.7086   19.0686   24.3873 H   0  0  0  0  0  0  0  0  0  0  0  0
   20.9770   16.9939   22.4757 O   0  0  0  0  0  0  0  0  0  0  0  0
   21.3155   16.8036   23.3761 H   0  0  0  0  0  0  0  0  0  0  0  0
  1  2  1  0  0  0  0
  1  3  1  0  0  0  0
  1  4  1  0  0  0  0
  4  5  1  0  0  0  0
  4  6  1  0  0  0  0
  4  7  1  0  0  0  0
  7  8  1  0  0  0  0
  7  9  1  0  0  0  0
  7 10  1  0  0  0  0
 10 11  1  0  0  0  0
  1 12  1  0  0  0  0
 10 12  1  0  0  0  0
 12 13  1  0  0  0  0
 12 14  1  0  0  0  0
 10 15  1  0  0  0  0
 15 16  1  0  0  0  0
M  END
> <VConfSearch Rank>
56

> <Conf_Id>
33

> <Delta U+W>
0.015

> <U+W>
3.025

> <U>
5.843

> <W>
-2.819

> <W(PB)>
-4.568

> <W(SA)>
1.750

> <Valence>
13.789

> <Coulomb>
-8.574

> <VdW>
0.628

> <VdW6>
-3.284

> <VdW12>
3.913

> <Bond>
0.054

> <Angle>
4.033

> <Pdih>
9.702

> <Idih>
0.000

> <Tether>
0.000

$$$$
VeraChem MOL file


 16 16  0  0  0  0  0  0  0  0999 V2000     
   18.2006   18.1004   22.6298 C   0  0  0  0  0  0  0  0  0  0  0  0
   17.3312   18.6933   22.3137 H   0  0  0  0  0  0  0  0  0  0  0  0
   17.8251   17.2181   23.1660 H   0  0  0  0  0  0  0  0  0  0  0  0
   19.1240   18.9574   23.5231 C   0  0  0  0  0  0  0  0  0  0  0  0
   18.7010   19.9646   23.6401 H   0  0  0  0  0  0  0  0  0  0  0  0
   19.2324   18.5227   24.5262 H   0  0  0  0  0  0  0  0  0  0  0  0
   20.4859   19.0317   22.8005 C   0  0  0  0  0  0  0  0  0  0  0  0
   21.1672   18.2819   23.2239 H   0  0  0  0  0  0  0  0  0  0  0  0
   20.9620   20.0153   22.9098 H   0  0  0  0  0  0  0  0  0  0  0  0
   20.2082   18.6802   21.3327 C   0  0  0  0  0  0  0  0  0  0  0  0
   21.0896   18.2344   20.8497 H   0  0  0  0  0  0  0  0  0  0  0  0
   19.0395   17.6880   21.4016 C   0  0  0  0  0  0  0  0  0  0  0  0
   18.4471   17.6783   20.4770 H   0  0  0  0  0  0  0  0  0  0  0  0
   19.4390   16.6766   21.5531 H   0  0  0  0  0  0  0  0  0  0  0  0
   19.7895   19.8490   20.6431 O   0  0  0  0  0  0  0  0  0  0  0  0
   19.0094   20.1719   21.1395 H   0  0  0  0  0  0  0  0  0  0  0  0
  1  2  1  0  0  0  0
  1  3  1  0  0  0  0
  1  4  1  0  0  0  0
  4  5  1  0  0  0  0
  4  6  1  0  0  0  0
  4  7  1  0  0  0  0
  7  8  1  0  0  0  0
  7  9  1  0  0  0  0
  7 10  1  0  0  0  0
 10 11  1  0  0  0  0
  1 12  1  0  0  0  0
 10 12  1  0  0  0  0
 12 13  1  0  0  0  0
 12 14  1  0  0  0  0
 10 15  1  0  0  0  0
 15 16  1  0  0  0  0
M  END
> <VConfSearch Rank>
57

> <Conf_Id>
20

> <Delta U+W>
-0.483

> <U+W>
2.527

> <U>
4.508

> <W>
-1.981

> <W(PB)>
-3.712

> <W(SA)>
1.732

> <Valence>
14.705

> <Coulomb>
-10.687

> <VdW>
0.490

> <VdW6>
-3.745

> <VdW12>
4.235

> <Bond>
0.068

> <Angle>
3.901

> <Pdih>
10.737

> <Idih>
0.000

> <Tether>
0.000

$$$$
VeraChem MOL file


 16 16  0  0  0  0  0  0  0  0999 V2000     
   20.1673   19.0272   23.4255 C   0  0  0  0  0  0  0  0  0  0  0  0
   20.3047   20.1016   23.2399 H   0  0  0  0  0  0  0  0  0  0  0  0
   20.6425   18.7802   24.3845 H   0  0  0  0  0  0  0  0  0  0  0  0
   20.7540   18.2242   22.2564 C   0  0  0  0  0  0  0  0  0  0  0  0
   21.6963   18.6513   21.8872 H   0  0  0  0  0  0  0  0  0  0  0  0
   20.9475   17.1913   22.5778 H   0  0  0  0  0  0  0  0  0  0  0  0
   19.6458   18.2382   21.1877 C   0  0  0  0  0  0  0  0  0  0  0  0
   19.6837   17.3394   20.5588 H   0  0  0  0  0  0  0  0  0  0  0  0
   19.7807   19.1121   20.5359 H   0  0  0  0  0  0  0  0  0  0  0  0
   18.3078   18.3411   21.9499 C   0  0  0  0  0  0  0  0  0  0  0  0
   17.7849   17.3740   21.9247 H   0  0  0  0  0  0  0  0  0  0  0  0
   18.6651   18.6893   23.4097 C   0  0  0  0  0  0  0  0  0  0  0  0
   18.0601   19.5182   23.8006 H   0  0  0  0  0  0  0  0  0  0  0  0
   18.4781   17.8122   24.0429 H   0  0  0  0  0  0  0  0  0  0  0  0
   17.4986   19.3659   21.3851 O   0  0  0  0  0  0  0  0  0  0  0  0
   17.3125   19.0994   20.4599 H   0  0  0  0  0  0  0  0  0  0  0  0
  1  2  1  0  0  0  0
  1  3  1  0  0  0  0
  1  4  1  0  0  0  0
  4  5  1  0  0  0  0
  4  6  1  0  0  0  0
  4  7  1  0  0  0  0
  7  8  1  0  0  0  0
  7  9  1  0  0  0  0
  7 10  1  0  0  0  0
 10 11  1  0  0  0  0
  1 12  1  0  0  0  0
 10 12  1  0  0  0  0
 12 13  1  0  0  0  0
 12 14  1  0  0  0  0
 10 15  1  0  0  0  0
 15 16  1  0  0  0  0
M  END
> <VConfSearch Rank>
58

> <Conf_Id>
59

> <Delta U+W>
0.000

> <U+W>
3.010

> <U>
5.843

> <W>
-2.833

> <W(PB)>
-4.568

> <W(SA)>
1.735

> <Valence>
13.789

> <Coulomb>
-8.574

> <VdW>
0.628

> <VdW6>
-3.284

> <VdW12>
3.912

> <Bond>
0.054

> <Angle>
4.034

> <Pdih>
9.702

> <Idih>
0.000

> <Tether>
0.000

$$$$
VeraChem MOL file


 16 16  0  0  0  0  0  0  0  0999 V2000     
   20.3498   19.7302   22.3621 C   0  0  0  0  0  0  0  0  0  0  0  0
   20.7260   20.5375   21.7192 H   0  0  0  0  0  0  0  0  0  0  0  0
   20.6967   19.9179   23.3878 H   0  0  0  0  0  0  0  0  0  0  0  0
   20.8266   18.3461   21.9010 C   0  0  0  0  0  0  0  0  0  0  0  0
   20.8046   18.2959   20.8034 H   0  0  0  0  0  0  0  0  0  0  0  0
   21.8485   18.1215   22.2354 H   0  0  0  0  0  0  0  0  0  0  0  0
   19.7895   17.3678   22.4828 C   0  0  0  0  0  0  0  0  0  0  0  0
   20.1101   17.0415   23.4807 H   0  0  0  0  0  0  0  0  0  0  0  0
   19.6833   16.4718   21.8568 H   0  0  0  0  0  0  0  0  0  0  0  0
   18.4677   18.1528   22.6108 C   0  0  0  0  0  0  0  0  0  0  0  0
   18.0742   18.0377   23.6313 H   0  0  0  0  0  0  0  0  0  0  0  0
   18.8133   19.6326   22.3416 C   0  0  0  0  0  0  0  0  0  0  0  0
   18.4432   19.9362   21.3529 H   0  0  0  0  0  0  0  0  0  0  0  0
   18.3593   20.2954   23.0896 H   0  0  0  0  0  0  0  0  0  0  0  0
   17.5255   17.6866   21.6523 O   0  0  0  0  0  0  0  0  0  0  0  0
   16.7142   18.2244   21.7707 H   0  0  0  0  0  0  0  0  0  0  0  0
  1  2  1  0  0  0  0
  1  3  1  0  0  0  0
  1  4  1  0  0  0  0
  4  5  1  0  0  0  0
  4  6  1  0  0  0  0
  4  7  1  0  0  0  0
  7  8  1  0  0  0  0
  7  9  1  0  0  0  0
  7 10  1  0  0  0  0
 10 11  1  0  0  0  0
  1 12  1  0  0  0  0
 10 12  1  0  0  0  0
 12 13  1  0  0  0  0
 12 14  1  0  0  0  0
 10 15  1  0  0  0  0
 15 16  1  0  0  0  0
M  END
> <VConfSearch Rank>
59

> <Conf_Id>
33

> <Delta U+W>
0.015

> <U+W>
3.025

> <U>
5.843

> <W>
-2.819

> <W(PB)>
-4.568

> <W(SA)>
1.750

> <Valence>
13.789

> <Coulomb>
-8.574

> <VdW>
0.628

> <VdW6>
-3.284

> <VdW12>
3.913

> <Bond>
0.054

> <Angle>
4.033

> <Pdih>
9.702

> <Idih>
0.000

> <Tether>
0.000

$$$$
VeraChem MOL file


 16 16  0  0  0  0  0  0  0  0999 V2000     
   20.0776   18.1787   23.3115 C   0  0  0  0  0  0  0  0  0  0  0  0
   20.9065   18.8377   23.6046 H   0  0  0  0  0  0  0  0  0  0  0  0
   20.0598   17.3333   24.0130 H   0  0  0  0  0  0  0  0  0  0  0  0
   20.2736   17.7041   21.8551 C   0  0  0  0  0  0  0  0  0  0  0  0
   21.1980   18.1326   21.4436 H   0  0  0  0  0  0  0  0  0  0  0  0
   20.3575   16.6104   21.7945 H   0  0  0  0  0  0  0  0  0  0  0  0
   19.0512   18.2117   21.0610 C   0  0  0  0  0  0  0  0  0  0  0  0
   18.3104   17.4060   20.9734 H   0  0  0  0  0  0  0  0  0  0  0  0
   19.3184   18.5318   20.0451 H   0  0  0  0  0  0  0  0  0  0  0  0
   18.4495   19.3537   21.8910 C   0  0  0  0  0  0  0  0  0  0  0  0
   17.3700   19.4594   21.7110 H   0  0  0  0  0  0  0  0  0  0  0  0
   18.7434   18.9542   23.3432 C   0  0  0  0  0  0  0  0  0  0  0  0
   18.7826   19.8229   24.0138 H   0  0  0  0  0  0  0  0  0  0  0  0
   17.9429   18.2926   23.7000 H   0  0  0  0  0  0  0  0  0  0  0  0
   19.1339   20.5612   21.5904 O   0  0  0  0  0  0  0  0  0  0  0  0
   20.0765   20.3734   21.7787 H   0  0  0  0  0  0  0  0  0  0  0  0
  1  2  1  0  0  0  0
  1  3  1  0  0  0  0
  1  4  1  0  0  0  0
  4  5  1  0  0  0  0
  4  6  1  0  0  0  0
  4  7  1  0  0  0  0
  7  8  1  0  0  0  0
  7  9  1  0  0  0  0
  7 10  1  0  0  0  0
 10 11  1  0  0  0  0
  1 12  1  0  0  0  0
 10 12  1  0  0  0  0
 12 13  1  0  0  0  0
 12 14  1  0  0  0  0
 10 15  1  0  0  0  0
 15 16  1  0  0  0  0
M  END
> <VConfSearch Rank>
60

> <Conf_Id>
20

> <Delta U+W>
-0.483

> <U+W>
2.527

> <U>
4.508

> <W>
-1.981

> <W(PB)>
-3.712

> <W(SA)>
1.732

> <Valence>
14.705

> <Coulomb>
-10.687

> <VdW>
0.490

> <VdW6>
-3.745

> <VdW12>
4.235

> <Bond>
0.068

> <Angle>
3.901

> <Pdih>
10.737

> <Idih>
0.000

> <Tether>
0.000

$$$$
VeraChem MOL file


 16 16  0  0  0  0  0  0  0  0999 V2000     
   19.0938   18.7467   20.8976 C   0  0  0  0  0  0  0  0  0  0  0  0
   19.8926   18.1957   20.3818 H   0  0  0  0  0  0  0  0  0  0  0  0
   18.4125   19.1555   20.1390 H   0  0  0  0  0  0  0  0  0  0  0  0
   19.7106   19.8396   21.7813 C   0  0  0  0  0  0  0  0  0  0  0  0
   20.5634   20.3357   21.2984 H   0  0  0  0  0  0  0  0  0  0  0  0
   18.9530   20.6024   22.0087 H   0  0  0  0  0  0  0  0  0  0  0  0
   20.1144   19.1052   23.0729 C   0  0  0  0  0  0  0  0  0  0  0  0
   20.0812   19.7747   23.9421 H   0  0  0  0  0  0  0  0  0  0  0  0
   21.1432   18.7332   22.9727 H   0  0  0  0  0  0  0  0  0  0  0  0
   19.1318   17.9254   23.2277 C   0  0  0  0  0  0  0  0  0  0  0  0
   18.4127   18.1376   24.0323 H   0  0  0  0  0  0  0  0  0  0  0  0
   18.3770   17.8097   21.8873 C   0  0  0  0  0  0  0  0  0  0  0  0
   18.3445   16.7771   21.5150 H   0  0  0  0  0  0  0  0  0  0  0  0
   17.3418   18.1461   22.0292 H   0  0  0  0  0  0  0  0  0  0  0  0
   19.8454   16.7239   23.4942 O   0  0  0  0  0  0  0  0  0  0  0  0
   20.3119   16.8570   24.3464 H   0  0  0  0  0  0  0  0  0  0  0  0
  1  2  1  0  0  0  0
  1  3  1  0  0  0  0
  1  4  1  0  0  0  0
  4  5  1  0  0  0  0
  4  6  1  0  0  0  0
  4  7  1  0  0  0  0
  7  8  1  0  0  0  0
  7  9  1  0  0  0  0
  7 10  1  0  0  0  0
 10 11  1  0  0  0  0
  1 12  1  0  0  0  0
 10 12  1  0  0  0  0
 12 13  1  0  0  0  0
 12 14  1  0  0  0  0
 10 15  1  0  0  0  0
 15 16  1  0  0  0  0
M  END
> <VConfSearch Rank>
61

> <Conf_Id>
59

> <Delta U+W>
0.000

> <U+W>
3.010

> <U>
5.843

> <W>
-2.833

> <W(PB)>
-4.568

> <W(SA)>
1.735

> <Valence>
13.789

> <Coulomb>
-8.574

> <VdW>
0.628

> <VdW6>
-3.284

> <VdW12>
3.912

> <Bond>
0.054

> <Angle>
4.034

> <Pdih>
9.702

> <Idih>
0.000

> <Tether>
0.000

$$$$
VeraChem MOL file


 16 16  0  0  0  0  0  0  0  0999 V2000     
   19.9038   17.3177   21.8675 C   0  0  0  0  0  0  0  0  0  0  0  0
   19.5407   16.2818   21.8240 H   0  0  0  0  0  0  0  0  0  0  0  0
   20.8558   17.3712   21.3212 H   0  0  0  0  0  0  0  0  0  0  0  0
   20.1073   17.8051   23.3086 C   0  0  0  0  0  0  0  0  0  0  0  0
   19.2919   17.4302   23.9428 H   0  0  0  0  0  0  0  0  0  0  0  0
   21.0602   17.4646   23.7360 H   0  0  0  0  0  0  0  0  0  0  0  0
   20.0215   19.3395   23.2120 C   0  0  0  0  0  0  0  0  0  0  0  0
   21.0218   19.7537   23.0307 H   0  0  0  0  0  0  0  0  0  0  0  0
   19.6403   19.7825   24.1417 H   0  0  0  0  0  0  0  0  0  0  0  0
   19.1197   19.6542   22.0006 C   0  0  0  0  0  0  0  0  0  0  0  0
   19.6340   20.3677   21.3404 H   0  0  0  0  0  0  0  0  0  0  0  0
   18.8997   18.3164   21.2633 C   0  0  0  0  0  0  0  0  0  0  0  0
   17.8775   17.9516   21.4334 H   0  0  0  0  0  0  0  0  0  0  0  0
   19.0434   18.4241   20.1805 H   0  0  0  0  0  0  0  0  0  0  0  0
   17.8743   20.1829   22.4404 O   0  0  0  0  0  0  0  0  0  0  0  0
   17.3408   20.3527   21.6353 H   0  0  0  0  0  0  0  0  0  0  0  0
  1  2  1  0  0  0  0
  1  3  1  0  0  0  0
  1  4  1  0  0  0  0
  4  5  1  0  0  0  0
  4  6  1  0  0  0  0
  4  7  1  0  0  0  0
  7  8  1  0  0  0  0
  7  9  1  0  0  0  0
  7 10  1  0  0  0  0
 10 11  1  0  0  0  0
  1 12  1  0  0  0  0
 10 12  1  0  0  0  0
 12 13  1  0  0  0  0
 12 14  1  0  0  0  0
 10 15  1  0  0  0  0
 15 16  1  0  0  0  0
M  END
> <VConfSearch Rank>
62

> <Conf_Id>
33

> <Delta U+W>
0.015

> <U+W>
3.025

> <U>
5.843

> <W>
-2.819

> <W(PB)>
-4.568

> <W(SA)>
1.750

> <Valence>
13.789

> <Coulomb>
-8.574

> <VdW>
0.628

> <VdW6>
-3.284

> <VdW12>
3.913

> <Bond>
0.054

> <Angle>
4.033

> <Pdih>
9.702

> <Idih>
0.000

> <Tether>
0.000

$$$$
VeraChem MOL file


 16 16  0  0  0  0  0  0  0  0999 V2000     
   20.1658   17.7665   21.5852 C   0  0  0  0  0  0  0  0  0  0  0  0
   21.0357   17.4094   22.1535 H   0  0  0  0  0  0  0  0  0  0  0  0
   20.1952   17.2894   20.5960 H   0  0  0  0  0  0  0  0  0  0  0  0
   20.2069   19.3063   21.4745 C   0  0  0  0  0  0  0  0  0  0  0  0
   21.0972   19.6944   21.9883 H   0  0  0  0  0  0  0  0  0  0  0  0
   20.2567   19.6348   20.4273 H   0  0  0  0  0  0  0  0  0  0  0  0
   18.9260   19.8287   22.1594 C   0  0  0  0  0  0  0  0  0  0  0  0
   18.1601   20.0313   21.3992 H   0  0  0  0  0  0  0  0  0  0  0  0
   19.1009   20.7602   22.7141 H   0  0  0  0  0  0  0  0  0  0  0  0
   18.4372   18.6935   23.0691 C   0  0  0  0  0  0  0  0  0  0  0  0
   17.3483   18.7333   23.2162 H   0  0  0  0  0  0  0  0  0  0  0  0
   18.8611   17.4161   22.3318 C   0  0  0  0  0  0  0  0  0  0  0  0
   18.9875   16.5647   23.0138 H   0  0  0  0  0  0  0  0  0  0  0  0
   18.0828   17.1491   21.6047 H   0  0  0  0  0  0  0  0  0  0  0  0
   19.1194   18.7640   24.3126 O   0  0  0  0  0  0  0  0  0  0  0  0
   20.0708   18.7220   24.0841 H   0  0  0  0  0  0  0  0  0  0  0  0
  1  2  1  0  0  0  0
  1  3  1  0  0  0  0
  1  4  1  0  0  0  0
  4  5  1  0  0  0  0
  4  6  1  0  0  0  0
  4  7  1  0  0  0  0
  7  8  1  0  0  0  0
  7  9  1  0  0  0  0
  7 10  1  0  0  0  0
 10 11  1  0  0  0  0
  1 12  1  0  0  0  0
 10 12  1  0  0  0  0
 12 13  1  0  0  0  0
 12 14  1  0  0  0  0
 10 15  1  0  0  0  0
 15 16  1  0  0  0  0
M  END
> <VConfSearch Rank>
63

> <Conf_Id>
20

> <Delta U+W>
-0.483

> <U+W>
2.527

> <U>
4.508

> <W>
-1.981

> <W(PB)>
-3.712

> <W(SA)>
1.732

> <Valence>
14.705

> <Coulomb>
-10.687

> <VdW>
0.490

> <VdW6>
-3.745

> <VdW12>
4.235

> <Bond>
0.068

> <Angle>
3.901

> <Pdih>
10.737

> <Idih>
0.000

> <Tether>
0.000

$$$$
VeraChem MOL file


 16 16  0  0  0  0  0  0  0  0999 V2000     
   18.8353   17.4914   23.1574 C   0  0  0  0  0  0  0  0  0  0  0  0
   19.4718   17.5002   24.0532 H   0  0  0  0  0  0  0  0  0  0  0  0
   18.0514   16.7352   23.2997 H   0  0  0  0  0  0  0  0  0  0  0  0
   19.6966   17.2168   21.9171 C   0  0  0  0  0  0  0  0  0  0  0  0
   20.4731   16.4631   22.1060 H   0  0  0  0  0  0  0  0  0  0  0  0
   19.0597   16.8560   21.0973 H   0  0  0  0  0  0  0  0  0  0  0  0
   20.2893   18.5897   21.5506 C   0  0  0  0  0  0  0  0  0  0  0  0
   20.4798   18.6696   20.4726 H   0  0  0  0  0  0  0  0  0  0  0  0
   21.2463   18.7233   22.0732 H   0  0  0  0  0  0  0  0  0  0  0  0
   19.2686   19.6450   22.0260 C   0  0  0  0  0  0  0  0  0  0  0  0
   18.7408   20.0742   21.1619 H   0  0  0  0  0  0  0  0  0  0  0  0
   18.2578   18.8992   22.9215 C   0  0  0  0  0  0  0  0  0  0  0  0
   18.0730   19.4242   23.8682 H   0  0  0  0  0  0  0  0  0  0  0  0
   17.2998   18.8204   22.3912 H   0  0  0  0  0  0  0  0  0  0  0  0
   19.9260   20.6633   22.7709 O   0  0  0  0  0  0  0  0  0  0  0  0
   20.5603   21.0939   22.1596 H   0  0  0  0  0  0  0  0  0  0  0  0
  1  2  1  0  0  0  0
  1  3  1  0  0  0  0
  1  4  1  0  0  0  0
  4  5  1  0  0  0  0
  4  6  1  0  0  0  0
  4  7  1  0  0  0  0
  7  8  1  0  0  0  0
  7  9  1  0  0  0  0
  7 10  1  0  0  0  0
 10 11  1  0  0  0  0
  1 12  1  0  0  0  0
 10 12  1  0  0  0  0
 12 13  1  0  0  0  0
 12 14  1  0  0  0  0
 10 15  1  0  0  0  0
 15 16  1  0  0  0  0
M  END
> <VConfSearch Rank>
64

> <Conf_Id>
59

> <Delta U+W>
0.000

> <U+W>
3.010

> <U>
5.843

> <W>
-2.833

> <W(PB)>
-4.568

> <W(SA)>
1.735

> <Valence>
13.789

> <Coulomb>
-8.574

> <VdW>
0.628

> <VdW6>
-3.284

> <VdW12>
3.912

> <Bond>
0.054

> <Angle>
4.034

> <Pdih>
9.702

> <Idih>
0.000

> <Tether>
0.000

$$$$
VeraChem MOL file


 16 16  0  0  0  0  0  0  0  0999 V2000     
   18.9259   17.9955   21.1078 C   0  0  0  0  0  0  0  0  0  0  0  0
   18.0180   17.4757   20.7725 H   0  0  0  0  0  0  0  0  0  0  0  0
   19.5610   18.1785   20.2299 H   0  0  0  0  0  0  0  0  0  0  0  0
   19.7089   17.1882   22.1523 C   0  0  0  0  0  0  0  0  0  0  0  0
   19.0069   16.7036   22.8451 H   0  0  0  0  0  0  0  0  0  0  0  0
   20.3359   16.4096   21.6970 H   0  0  0  0  0  0  0  0  0  0  0  0
   20.5377   18.2412   22.9108 C   0  0  0  0  0  0  0  0  0  0  0  0
   21.5105   18.3690   22.4184 H   0  0  0  0  0  0  0  0  0  0  0  0
   20.7265   17.9362   23.9487 H   0  0  0  0  0  0  0  0  0  0  0  0
   19.7519   19.5658   22.8235 C   0  0  0  0  0  0  0  0  0  0  0  0
   20.4192   20.3608   22.4599 H   0  0  0  0  0  0  0  0  0  0  0  0
   18.6118   19.3289   21.8107 C   0  0  0  0  0  0  0  0  0  0  0  0
   17.6493   19.2460   22.3335 H   0  0  0  0  0  0  0  0  0  0  0  0
   18.5343   20.1534   21.0903 H   0  0  0  0  0  0  0  0  0  0  0  0
   19.2150   19.9025   24.0971 O   0  0  0  0  0  0  0  0  0  0  0  0
   18.7197   20.7408   23.9809 H   0  0  0  0  0  0  0  0  0  0  0  0
  1  2  1  0  0  0  0
  1  3  1  0  0  0  0
  1  4  1  0  0  0  0
  4  5  1  0  0  0  0
  4  6  1  0  0  0  0
  4  7  1  0  0  0  0
  7  8  1  0  0  0  0
  7  9  1  0  0  0  0
  7 10  1  0  0  0  0
 10 11  1  0  0  0  0
  1 12  1  0  0  0  0
 10 12  1  0  0  0  0
 12 13  1  0  0  0  0
 12 14  1  0  0  0  0
 10 15  1  0  0  0  0
 15 16  1  0  0  0  0
M  END
> <VConfSearch Rank>
65

> <Conf_Id>
33

> <Delta U+W>
0.015

> <U+W>
3.025

> <U>
5.843

> <W>
-2.819

> <W(PB)>
-4.568

> <W(SA)>
1.750

> <Valence>
13.789

> <Coulomb>
-8.574

> <VdW>
0.628

> <VdW6>
-3.284

> <VdW12>
3.913

> <Bond>
0.054

> <Angle>
4.033

> <Pdih>
9.702

> <Idih>
0.000

> <Tether>
0.000

$$$$
VeraChem MOL file


 16 16  0  0  0  0  0  0  0  0999 V2000     
   19.0966   19.8933   22.0144 C   0  0  0  0  0  0  0  0  0  0  0  0
   18.3236   20.0491   21.2493 H   0  0  0  0  0  0  0  0  0  0  0  0
   19.4091   20.8816   22.3786 H   0  0  0  0  0  0  0  0  0  0  0  0
   20.2826   19.1096   21.4108 C   0  0  0  0  0  0  0  0  0  0  0  0
   20.0840   18.8870   20.3533 H   0  0  0  0  0  0  0  0  0  0  0  0
   21.2156   19.6875   21.4602 H   0  0  0  0  0  0  0  0  0  0  0  0
   20.3980   17.7995   22.2188 C   0  0  0  0  0  0  0  0  0  0  0  0
   21.1718   17.9111   22.9898 H   0  0  0  0  0  0  0  0  0  0  0  0
   20.6757   16.9445   21.5880 H   0  0  0  0  0  0  0  0  0  0  0  0
   19.0385   17.6004   22.9022 C   0  0  0  0  0  0  0  0  0  0  0  0
   19.1350   17.0271   23.8355 H   0  0  0  0  0  0  0  0  0  0  0  0
   18.5408   19.0280   23.1653 C   0  0  0  0  0  0  0  0  0  0  0  0
   17.4461   19.0807   23.2344 H   0  0  0  0  0  0  0  0  0  0  0  0
   18.9532   19.3790   24.1204 H   0  0  0  0  0  0  0  0  0  0  0  0
   18.1518   16.9546   22.0003 O   0  0  0  0  0  0  0  0  0  0  0  0
   18.1294   17.5308   21.2086 H   0  0  0  0  0  0  0  0  0  0  0  0
  1  2  1  0  0  0  0
  1  3  1  0  0  0  0
  1  4  1  0  0  0  0
  4  5  1  0  0  0  0
  4  6  1  0  0  0  0
  4  7  1  0  0  0  0
  7  8  1  0  0  0  0
  7  9  1  0  0  0  0
  7 10  1  0  0  0  0
 10 11  1  0  0  0  0
  1 12  1  0  0  0  0
 10 12  1  0  0  0  0
 12 13  1  0  0  0  0
 12 14  1  0  0  0  0
 10 15  1  0  0  0  0
 15 16  1  0  0  0  0
M  END
> <VConfSearch Rank>
66

> <Conf_Id>
20

> <Delta U+W>
-0.483

> <U+W>
2.527

> <U>
4.508

> <W>
-1.981

> <W(PB)>
-3.712

> <W(SA)>
1.732

> <Valence>
14.705

> <Coulomb>
-10.687

> <VdW>
0.490

> <VdW6>
-3.745

> <VdW12>
4.235

> <Bond>
0.068

> <Angle>
3.901

> <Pdih>
10.737

> <Idih>
0.000

> <Tether>
0.000

$$$$
VeraChem MOL file


 16 16  0  0  0  0  0  0  0  0999 V2000     
   18.1503   18.4570   21.5107 C   0  0  0  0  0  0  0  0  0  0  0  0
   17.3743   18.9634   22.1017 H   0  0  0  0  0  0  0  0  0  0  0  0
   17.7072   18.1470   20.5546 H   0  0  0  0  0  0  0  0  0  0  0  0
   18.7125   17.2720   22.3079 C   0  0  0  0  0  0  0  0  0  0  0  0
   17.9312   16.7301   22.8581 H   0  0  0  0  0  0  0  0  0  0  0  0
   19.2035   16.5660   21.6237 H   0  0  0  0  0  0  0  0  0  0  0  0
   19.7588   17.9026   23.2449 C   0  0  0  0  0  0  0  0  0  0  0  0
   20.5641   17.1950   23.4809 H   0  0  0  0  0  0  0  0  0  0  0  0
   19.2751   18.1901   24.1884 H   0  0  0  0  0  0  0  0  0  0  0  0
   20.2971   19.1525   22.5173 C   0  0  0  0  0  0  0  0  0  0  0  0
   21.3136   18.9618   22.1433 H   0  0  0  0  0  0  0  0  0  0  0  0
   19.3529   19.4002   21.3228 C   0  0  0  0  0  0  0  0  0  0  0  0
   19.0365   20.4495   21.2520 H   0  0  0  0  0  0  0  0  0  0  0  0
   19.8781   19.1467   20.3927 H   0  0  0  0  0  0  0  0  0  0  0  0
   20.2849   20.2737   23.3930 O   0  0  0  0  0  0  0  0  0  0  0  0
   20.8894   20.0580   24.1344 H   0  0  0  0  0  0  0  0  0  0  0  0
  1  2  1  0  0  0  0
  1  3  1  0  0  0  0
  1  4  1  0  0  0  0
  4  5  1  0  0  0  0
  4  6  1  0  0  0  0
  4  7  1  0  0  0  0
  7  8  1  0  0  0  0
  7  9  1  0  0  0  0
  7 10  1  0  0  0  0
 10 11  1  0  0  0  0
  1 12  1  0  0  0  0
 10 12  1  0  0  0  0
 12 13  1  0  0  0  0
 12 14  1  0  0  0  0
 10 15  1  0  0  0  0
 15 16  1  0  0  0  0
M  END
> <VConfSearch Rank>
67

> <Conf_Id>
59

> <Delta U+W>
0.000

> <U+W>
3.010

> <U>
5.843

> <W>
-2.833

> <W(PB)>
-4.568

> <W(SA)>
1.735

> <Valence>
13.789

> <Coulomb>
-8.574

> <VdW>
0.628

> <VdW6>
-3.284

> <VdW12>
3.912

> <Bond>
0.054

> <Angle>
4.034

> <Pdih>
9.702

> <Idih>
0.000

> <Tether>
0.000

$$$$
VeraChem MOL file


 16 16  0  0  0  0  0  0  0  0999 V2000     
   19.3343   17.1981   22.0758 C   0  0  0  0  0  0  0  0  0  0  0  0
   19.9221   16.3671   21.6627 H   0  0  0  0  0  0  0  0  0  0  0  0
   18.4379   16.7802   22.5549 H   0  0  0  0  0  0  0  0  0  0  0  0
   18.9198   18.2116   21.0003 C   0  0  0  0  0  0  0  0  0  0  0  0
   19.7487   18.3585   20.2938 H   0  0  0  0  0  0  0  0  0  0  0  0
   18.0380   17.8842   20.4329 H   0  0  0  0  0  0  0  0  0  0  0  0
   18.6673   19.5166   21.7775 C   0  0  0  0  0  0  0  0  0  0  0  0
   17.6161   19.5614   22.0907 H   0  0  0  0  0  0  0  0  0  0  0  0
   18.8693   20.4012   21.1589 H   0  0  0  0  0  0  0  0  0  0  0  0
   19.5638   19.4621   23.0317 C   0  0  0  0  0  0  0  0  0  0  0  0
   18.9537   19.6668   23.9236 H   0  0  0  0  0  0  0  0  0  0  0  0
   20.1319   18.0287   23.0979 C   0  0  0  0  0  0  0  0  0  0  0  0
   21.1941   18.0268   22.8177 H   0  0  0  0  0  0  0  0  0  0  0  0
   20.0491   17.6081   24.1084 H   0  0  0  0  0  0  0  0  0  0  0  0
   20.6230   20.4051   22.9190 O   0  0  0  0  0  0  0  0  0  0  0  0
   21.1636   20.3195   23.7326 H   0  0  0  0  0  0  0  0  0  0  0  0
  1  2  1  0  0  0  0
  1  3  1  0  0  0  0
  1  4  1  0  0  0  0
  4  5  1  0  0  0  0
  4  6  1  0  0  0  0
  4  7  1  0  0  0  0
  7  8  1  0  0  0  0
  7  9  1  0  0  0  0
  7 10  1  0  0  0  0
 10 11  1  0  0  0  0
  1 12  1  0  0  0  0
 10 12  1  0  0  0  0
 12 13  1  0  0  0  0
 12 14  1  0  0  0  0
 10 15  1  0  0  0  0
 15 16  1  0  0  0  0
M  END
> <VConfSearch Rank>
68

> <Conf_Id>
33

> <Delta U+W>
0.015

> <U+W>
3.025

> <U>
5.843

> <W>
-2.819

> <W(PB)>
-4.568

> <W(SA)>
1.750

> <Valence>
13.789

> <Coulomb>
-8.574

> <VdW>
0.628

> <VdW6>
-3.284

> <VdW12>
3.913

> <Bond>
0.054

> <Angle>
4.033

> <Pdih>
9.702

> <Idih>
0.000

> <Tether>
0.000

$$$$
VeraChem MOL file


 16 16  0  0  0  0  0  0  0  0999 V2000     
   18.3503   19.0974   22.9588 C   0  0  0  0  0  0  0  0  0  0  0  0
   18.4205   18.9275   24.0421 H   0  0  0  0  0  0  0  0  0  0  0  0
   17.4238   19.6562   22.7684 H   0  0  0  0  0  0  0  0  0  0  0  0
   18.3611   17.7450   22.2133 C   0  0  0  0  0  0  0  0  0  0  0  0
   18.4355   16.9205   22.9357 H   0  0  0  0  0  0  0  0  0  0  0  0
   17.4407   17.5968   21.6321 H   0  0  0  0  0  0  0  0  0  0  0  0
   19.6010   17.7619   21.2940 C   0  0  0  0  0  0  0  0  0  0  0  0
   19.3004   18.0498   20.2780 H   0  0  0  0  0  0  0  0  0  0  0  0
   20.0871   16.7790   21.2328 H   0  0  0  0  0  0  0  0  0  0  0  0
   20.5360   18.8385   21.8611 C   0  0  0  0  0  0  0  0  0  0  0  0
   21.1723   19.2751   21.0779 H   0  0  0  0  0  0  0  0  0  0  0  0
   19.5833   19.8812   22.4612 C   0  0  0  0  0  0  0  0  0  0  0  0
   20.0565   20.4649   23.2620 H   0  0  0  0  0  0  0  0  0  0  0  0
   19.2789   20.5817   21.6724 H   0  0  0  0  0  0  0  0  0  0  0  0
   21.3247   18.2738   22.8984 O   0  0  0  0  0  0  0  0  0  0  0  0
   20.6798   17.9142   23.5418 H   0  0  0  0  0  0  0  0  0  0  0  0
  1  2  1  0  0  0  0
  1  3  1  0  0  0  0
  1  4  1  0  0  0  0
  4  5  1  0  0  0  0
  4  6  1  0  0  0  0
  4  7  1  0  0  0  0
  7  8  1  0  0  0  0
  7  9  1  0  0  0  0
  7 10  1  0  0  0  0
 10 11  1  0  0  0  0
  1 12  1  0  0  0  0
 10 12  1  0  0  0  0
 12 13  1  0  0  0  0
 12 14  1  0  0  0  0
 10 15  1  0  0  0  0
 15 16  1  0  0  0  0
M  END
> <VConfSearch Rank>
69

> <Conf_Id>
20

> <Delta U+W>
-0.483

> <U+W>
2.527

> <U>
4.508

> <W>
-1.981

> <W(PB)>
-3.712

> <W(SA)>
1.732

> <Valence>
14.705

> <Coulomb>
-10.687

> <VdW>
0.490

> <VdW6>
-3.745

> <VdW12>
4.235

> <Bond>
0.068

> <Angle>
3.901

> <Pdih>
10.737

> <Idih>
0.000

> <Tether>
0.000

$$$$
VeraChem MOL file


 16 16  0  0  0  0  0  0  0  0999 V2000     
   18.4668   19.0557   21.2808 C   0  0  0  0  0  0  0  0  0  0  0  0
   19.1296   19.3775   20.4654 H   0  0  0  0  0  0  0  0  0  0  0  0
   17.4272   19.1935   20.9540 H   0  0  0  0  0  0  0  0  0  0  0  0
   18.7919   19.8515   22.5523 C   0  0  0  0  0  0  0  0  0  0  0  0
   19.0099   20.9072   22.3404 H   0  0  0  0  0  0  0  0  0  0  0  0
   17.9386   19.8089   23.2434 H   0  0  0  0  0  0  0  0  0  0  0  0
   19.9971   19.1163   23.1668 C   0  0  0  0  0  0  0  0  0  0  0  0
   20.0169   19.2218   24.2592 H   0  0  0  0  0  0  0  0  0  0  0  0
   20.9264   19.5468   22.7694 H   0  0  0  0  0  0  0  0  0  0  0  0
   19.8678   17.6384   22.7418 C   0  0  0  0  0  0  0  0  0  0  0  0
   19.5498   17.0268   23.5987 H   0  0  0  0  0  0  0  0  0  0  0  0
   18.7775   17.5937   21.6513 C   0  0  0  0  0  0  0  0  0  0  0  0
   19.0893   17.0118   20.7737 H   0  0  0  0  0  0  0  0  0  0  0  0
   17.8778   17.1190   22.0640 H   0  0  0  0  0  0  0  0  0  0  0  0
   21.1044   17.1680   22.2187 O   0  0  0  0  0  0  0  0  0  0  0  0
   21.7588   17.2287   22.9464 H   0  0  0  0  0  0  0  0  0  0  0  0
  1  2  1  0  0  0  0
  1  3  1  0  0  0  0
  1  4  1  0  0  0  0
  4  5  1  0  0  0  0
  4  6  1  0  0  0  0
  4  7  1  0  0  0  0
  7  8  1  0  0  0  0
  7  9  1  0  0  0  0
  7 10  1  0  0  0  0
 10 11  1  0  0  0  0
  1 12  1  0  0  0  0
 10 12  1  0  0  0  0
 12 13  1  0  0  0  0
 12 14  1  0  0  0  0
 10 15  1  0  0  0  0
 15 16  1  0  0  0  0
M  END
> <VConfSearch Rank>
70

> <Conf_Id>
59

> <Delta U+W>
0.000

> <U+W>
3.010

> <U>
5.843

> <W>
-2.833

> <W(PB)>
-4.568

> <W(SA)>
1.735

> <Valence>
13.789

> <Coulomb>
-8.574

> <VdW>
0.628

> <VdW6>
-3.284

> <VdW12>
3.912

> <Bond>
0.054

> <Angle>
4.034

> <Pdih>
9.702

> <Idih>
0.000

> <Tether>
0.000

$$$$
VeraChem MOL file


 16 16  0  0  0  0  0  0  0  0999 V2000     
   19.2334   17.2288   22.6067 C   0  0  0  0  0  0  0  0  0  0  0  0
   18.4754   16.4491   22.4510 H   0  0  0  0  0  0  0  0  0  0  0  0
   20.1258   16.7583   23.0425 H   0  0  0  0  0  0  0  0  0  0  0  0
   18.7373   18.3494   23.5307 C   0  0  0  0  0  0  0  0  0  0  0  0
   17.6856   18.5744   23.3049 H   0  0  0  0  0  0  0  0  0  0  0  0
   18.8112   18.0806   24.5932 H   0  0  0  0  0  0  0  0  0  0  0  0
   19.6134   19.5630   23.1693 C   0  0  0  0  0  0  0  0  0  0  0  0
   20.5120   19.5695   23.7999 H   0  0  0  0  0  0  0  0  0  0  0  0
   19.0818   20.5094   23.3358 H   0  0  0  0  0  0  0  0  0  0  0  0
   20.0339   19.3788   21.6965 C   0  0  0  0  0  0  0  0  0  0  0  0
   21.1254   19.4846   21.6143 H   0  0  0  0  0  0  0  0  0  0  0  0
   19.6103   17.9490   21.2991 C   0  0  0  0  0  0  0  0  0  0  0  0
   18.7344   17.9817   20.6369 H   0  0  0  0  0  0  0  0  0  0  0  0
   20.4144   17.4228   20.7687 H   0  0  0  0  0  0  0  0  0  0  0  0
   19.3723   20.3331   20.8745 O   0  0  0  0  0  0  0  0  0  0  0  0
   19.6660   20.1635   19.9545 H   0  0  0  0  0  0  0  0  0  0  0  0
  1  2  1  0  0  0  0
  1  3  1  0  0  0  0
  1  4  1  0  0  0  0
  4  5  1  0  0  0  0
  4  6  1  0  0  0  0
  4  7  1  0  0  0  0
  7  8  1  0  0  0  0
  7  9  1  0  0  0  0
  7 10  1  0  0  0  0
 10 11  1  0  0  0  0
  1 12  1  0  0  0  0
 10 12  1  0  0  0  0
 12 13  1  0  0  0  0
 12 14  1  0  0  0  0
 10 15  1  0  0  0  0
 15 16  1  0  0  0  0
M  END
> <VConfSearch Rank>
71

> <Conf_Id>
33

> <Delta U+W>
0.015

> <U+W>
3.025

> <U>
5.843

> <W>
-2.819

> <W(PB)>
-4.568

> <W(SA)>
1.750

> <Valence>
13.789

> <Coulomb>
-8.574

> <VdW>
0.628

> <VdW6>
-3.284

> <VdW12>
3.913

> <Bond>
0.054

> <Angle>
4.033

> <Pdih>
9.702

> <Idih>
0.000

> <Tether>
0.000

$$$$
VeraChem MOL file


 16 16  0  0  0  0  0  0  0  0999 V2000     
   20.6707   18.2861   22.3555 C   0  0  0  0  0  0  0  0  0  0  0  0
   20.8793   17.2153   22.2246 H   0  0  0  0  0  0  0  0  0  0  0  0
   21.6306   18.7953   22.5176 H   0  0  0  0  0  0  0  0  0  0  0  0
   19.7100   18.4922   23.5470 C   0  0  0  0  0  0  0  0  0  0  0  0
   19.4546   17.5212   23.9934 H   0  0  0  0  0  0  0  0  0  0  0  0
   20.1671   19.1101   24.3320 H   0  0  0  0  0  0  0  0  0  0  0  0
   18.4440   19.1664   22.9769 C   0  0  0  0  0  0  0  0  0  0  0  0
   18.5004   20.2507   23.1409 H   0  0  0  0  0  0  0  0  0  0  0  0
   17.5263   18.8030   23.4582 H   0  0  0  0  0  0  0  0  0  0  0  0
   18.4578   18.8894   21.4676 C   0  0  0  0  0  0  0  0  0  0  0  0
   17.9309   19.6751   20.9072 H   0  0  0  0  0  0  0  0  0  0  0  0
   19.9495   18.8446   21.1103 C   0  0  0  0  0  0  0  0  0  0  0  0
   20.1443   18.2438   20.2120 H   0  0  0  0  0  0  0  0  0  0  0  0
   20.2993   19.8662   20.9113 H   0  0  0  0  0  0  0  0  0  0  0  0
   17.8793   17.6162   21.2205 O   0  0  0  0  0  0  0  0  0  0  0  0
   18.4076   16.9882   21.7549 H   0  0  0  0  0  0  0  0  0  0  0  0
  1  2  1  0  0  0  0
  1  3  1  0  0  0  0
  1  4  1  0  0  0  0
  4  5  1  0  0  0  0
  4  6  1  0  0  0  0
  4  7  1  0  0  0  0
  7  8  1  0  0  0  0
  7  9  1  0  0  0  0
  7 10  1  0  0  0  0
 10 11  1  0  0  0  0
  1 12  1  0  0  0  0
 10 12  1  0  0  0  0
 12 13  1  0  0  0  0
 12 14  1  0  0  0  0
 10 15  1  0  0  0  0
 15 16  1  0  0  0  0
M  END
> <VConfSearch Rank>
72

> <Conf_Id>
20

> <Delta U+W>
-0.483

> <U+W>
2.527

> <U>
4.508

> <W>
-1.981

> <W(PB)>
-3.712

> <W(SA)>
1.732

> <Valence>
14.705

> <Coulomb>
-10.687

> <VdW>
0.490

> <VdW6>
-3.745

> <VdW12>
4.235

> <Bond>
0.068

> <Angle>
3.901

> <Pdih>
10.737

> <Idih>
0.000

> <Tether>
0.000

$$$$
VeraChem MOL file


 16 16  0  0  0  0  0  0  0  0999 V2000     
   20.6800   18.5159   21.7101 C   0  0  0  0  0  0  0  0  0  0  0  0
   20.9988   19.5663   21.6573 H   0  0  0  0  0  0  0  0  0  0  0  0
   21.5031   17.8876   21.3435 H   0  0  0  0  0  0  0  0  0  0  0  0
   19.3919   18.3279   20.8970 C   0  0  0  0  0  0  0  0  0  0  0  0
   19.4004   18.9038   19.9615 H   0  0  0  0  0  0  0  0  0  0  0  0
   19.2653   17.2657   20.6454 H   0  0  0  0  0  0  0  0  0  0  0  0
   18.2685   18.7751   21.8501 C   0  0  0  0  0  0  0  0  0  0  0  0
   17.3299   18.2462   21.6400 H   0  0  0  0  0  0  0  0  0  0  0  0
   18.0867   19.8504   21.7182 H   0  0  0  0  0  0  0  0  0  0  0  0
   18.7724   18.4896   23.2806 C   0  0  0  0  0  0  0  0  0  0  0  0
   18.2497   17.6159   23.6964 H   0  0  0  0  0  0  0  0  0  0  0  0
   20.2768   18.1715   23.1558 C   0  0  0  0  0  0  0  0  0  0  0  0
   20.8818   18.7244   23.8868 H   0  0  0  0  0  0  0  0  0  0  0  0
   20.4323   17.0999   23.3363 H   0  0  0  0  0  0  0  0  0  0  0  0
   18.5793   19.6319   24.1063 O   0  0  0  0  0  0  0  0  0  0  0  0
   17.6128   19.7936   24.1410 H   0  0  0  0  0  0  0  0  0  0  0  0
  1  2  1  0  0  0  0
  1  3  1  0  0  0  0
  1  4  1  0  0  0  0
  4  5  1  0  0  0  0
  4  6  1  0  0  0  0
  4  7  1  0  0  0  0
  7  8  1  0  0  0  0
  7  9  1  0  0  0  0
  7 10  1  0  0  0  0
 10 11  1  0  0  0  0
  1 12  1  0  0  0  0
 10 12  1  0  0  0  0
 12 13  1  0  0  0  0
 12 14  1  0  0  0  0
 10 15  1  0  0  0  0
 15 16  1  0  0  0  0
M  END
> <VConfSearch Rank>
73

> <Conf_Id>
59

> <Delta U+W>
0.000

> <U+W>
3.010

> <U>
5.843

> <W>
-2.833

> <W(PB)>
-4.568

> <W(SA)>
1.735

> <Valence>
13.789

> <Coulomb>
-8.574

> <VdW>
0.628

> <VdW6>
-3.284

> <VdW12>
3.912

> <Bond>
0.054

> <Angle>
4.034

> <Pdih>
9.702

> <Idih>
0.000

> <Tether>
0.000

$$$$
VeraChem MOL file


 16 16  0  0  0  0  0  0  0  0999 V2000     
   19.3368   18.0220   20.9890 C   0  0  0  0  0  0  0  0  0  0  0  0
   19.7911   18.1084   19.9925 H   0  0  0  0  0  0  0  0  0  0  0  0
   18.6746   17.1450   20.9898 H   0  0  0  0  0  0  0  0  0  0  0  0
   18.5369   19.2733   21.3765 C   0  0  0  0  0  0  0  0  0  0  0  0
   19.0723   20.1718   21.0393 H   0  0  0  0  0  0  0  0  0  0  0  0
   17.5327   19.2838   20.9314 H   0  0  0  0  0  0  0  0  0  0  0  0
   18.4973   19.2439   22.9155 C   0  0  0  0  0  0  0  0  0  0  0  0
   17.6114   18.6890   23.2507 H   0  0  0  0  0  0  0  0  0  0  0  0
   18.4369   20.2558   23.3379 H   0  0  0  0  0  0  0  0  0  0  0  0
   19.7644   18.4928   23.3738 C   0  0  0  0  0  0  0  0  0  0  0  0
   19.4801   17.6950   24.0754 H   0  0  0  0  0  0  0  0  0  0  0  0
   20.3902   17.8804   22.1029 C   0  0  0  0  0  0  0  0  0  0  0  0
   21.2954   18.4345   21.8194 H   0  0  0  0  0  0  0  0  0  0  0  0
   20.6719   16.8309   22.2575 H   0  0  0  0  0  0  0  0  0  0  0  0
   20.6774   19.3976   23.9835 O   0  0  0  0  0  0  0  0  0  0  0  0
   21.4633   18.8718   24.2432 H   0  0  0  0  0  0  0  0  0  0  0  0
  1  2  1  0  0  0  0
  1  3  1  0  0  0  0
  1  4  1  0  0  0  0
  4  5  1  0  0  0  0
  4  6  1  0  0  0  0
  4  7  1  0  0  0  0
  7  8  1  0  0  0  0
  7  9  1  0  0  0  0
  7 10  1  0  0  0  0
 10 11  1  0  0  0  0
  1 12  1  0  0  0  0
 10 12  1  0  0  0  0
 12 13  1  0  0  0  0
 12 14  1  0  0  0  0
 10 15  1  0  0  0  0
 15 16  1  0  0  0  0
M  END
> <VConfSearch Rank>
74

> <Conf_Id>
33

> <Delta U+W>
0.015

> <U+W>
3.025

> <U>
5.843

> <W>
-2.819

> <W(PB)>
-4.568

> <W(SA)>
1.750

> <Valence>
13.789

> <Coulomb>
-8.574

> <VdW>
0.628

> <VdW6>
-3.284

> <VdW12>
3.913

> <Bond>
0.054

> <Angle>
4.033

> <Pdih>
9.702

> <Idih>
0.000

> <Tether>
0.000

$$$$
VeraChem MOL file


 16 16  0  0  0  0  0  0  0  0999 V2000     
   20.3479   18.3409   21.3795 C   0  0  0  0  0  0  0  0  0  0  0  0
   21.3186   18.1032   21.8361 H   0  0  0  0  0  0  0  0  0  0  0  0
   20.4651   18.2664   20.2896 H   0  0  0  0  0  0  0  0  0  0  0  0
   19.8986   19.7552   21.8070 C   0  0  0  0  0  0  0  0  0  0  0  0
   20.6523   20.2024   22.4697 H   0  0  0  0  0  0  0  0  0  0  0  0
   19.7797   20.4203   20.9407 H   0  0  0  0  0  0  0  0  0  0  0  0
   18.5626   19.5810   22.5601 C   0  0  0  0  0  0  0  0  0  0  0  0
   17.7271   19.7802   21.8760 H   0  0  0  0  0  0  0  0  0  0  0  0
   18.4706   20.2708   23.4096 H   0  0  0  0  0  0  0  0  0  0  0  0
   18.5093   18.1107   22.9967 C   0  0  0  0  0  0  0  0  0  0  0  0
   17.4735   17.7537   23.0900 H   0  0  0  0  0  0  0  0  0  0  0  0
   19.2660   17.3652   21.8892 C   0  0  0  0  0  0  0  0  0  0  0  0
   19.6934   16.4175   22.2428 H   0  0  0  0  0  0  0  0  0  0  0  0
   18.5677   17.1334   21.0741 H   0  0  0  0  0  0  0  0  0  0  0  0
   19.2091   17.9615   24.2234 O   0  0  0  0  0  0  0  0  0  0  0  0
   20.1102   18.3014   24.0456 H   0  0  0  0  0  0  0  0  0  0  0  0
  1  2  1  0  0  0  0
  1  3  1  0  0  0  0
  1  4  1  0  0  0  0
  4  5  1  0  0  0  0
  4  6  1  0  0  0  0
  4  7  1  0  0  0  0
  7  8  1  0  0  0  0
  7  9  1  0  0  0  0
  7 10  1  0  0  0  0
 10 11  1  0  0  0  0
  1 12  1  0  0  0  0
 10 12  1  0  0  0  0
 12 13  1  0  0  0  0
 12 14  1  0  0  0  0
 10 15  1  0  0  0  0
 15 16  1  0  0  0  0
M  END
> <VConfSearch Rank>
75

> <Conf_Id>
20

> <Delta U+W>
-0.483

> <U+W>
2.527

> <U>
4.508

> <W>
-1.981

> <W(PB)>
-3.712

> <W(SA)>
1.732

> <Valence>
14.705

> <Coulomb>
-10.687

> <VdW>
0.490

> <VdW6>
-3.745

> <VdW12>
4.235

> <Bond>
0.068

> <Angle>
3.901

> <Pdih>
10.737

> <Idih>
0.000

> <Tether>
0.000

$$$$
VeraChem MOL file


 16 16  0  0  0  0  0  0  0  0999 V2000     
   20.5652   18.1164   21.6321 C   0  0  0  0  0  0  0  0  0  0  0  0
   20.2205   17.3919   20.8811 H   0  0  0  0  0  0  0  0  0  0  0  0
   21.6498   18.2444   21.5144 H   0  0  0  0  0  0  0  0  0  0  0  0
   20.1817   17.6250   23.0347 C   0  0  0  0  0  0  0  0  0  0  0  0
   20.3110   16.5400   23.1473 H   0  0  0  0  0  0  0  0  0  0  0  0
   20.8084   18.1255   23.7859 H   0  0  0  0  0  0  0  0  0  0  0  0
   18.7150   18.0612   23.2057 C   0  0  0  0  0  0  0  0  0  0  0  0
   18.4725   18.2484   24.2597 H   0  0  0  0  0  0  0  0  0  0  0  0
   18.0538   17.2618   22.8442 H   0  0  0  0  0  0  0  0  0  0  0  0
   18.5363   19.3317   22.3481 C   0  0  0  0  0  0  0  0  0  0  0  0
   18.4710   20.2175   22.9966 H   0  0  0  0  0  0  0  0  0  0  0  0
   19.7956   19.4395   21.4636 C   0  0  0  0  0  0  0  0  0  0  0  0
   19.5502   19.6331   20.4108 H   0  0  0  0  0  0  0  0  0  0  0  0
   20.4137   20.2733   21.8209 H   0  0  0  0  0  0  0  0  0  0  0  0
   17.3744   19.2160   21.5354 O   0  0  0  0  0  0  0  0  0  0  0  0
   16.6107   19.1399   22.1458 H   0  0  0  0  0  0  0  0  0  0  0  0
  1  2  1  0  0  0  0
  1  3  1  0  0  0  0
  1  4  1  0  0  0  0
  4  5  1  0  0  0  0
  4  6  1  0  0  0  0
  4  7  1  0  0  0  0
  7  8  1  0  0  0  0
  7  9  1  0  0  0  0
  7 10  1  0  0  0  0
 10 11  1  0  0  0  0
  1 12  1  0  0  0  0
 10 12  1  0  0  0  0
 12 13  1  0  0  0  0
 12 14  1  0  0  0  0
 10 15  1  0  0  0  0
 15 16  1  0  0  0  0
M  END
> <VConfSearch Rank>
76

> <Conf_Id>
59

> <Delta U+W>
0.000

> <U+W>
3.010

> <U>
5.843

> <W>
-2.833

> <W(PB)>
-4.568

> <W(SA)>
1.735

> <Valence>
13.789

> <Coulomb>
-8.574

> <VdW>
0.628

> <VdW6>
-3.284

> <VdW12>
3.912

> <Bond>
0.054

> <Angle>
4.034

> <Pdih>
9.702

> <Idih>
0.000

> <Tether>
0.000

$$$$
VeraChem MOL file


 16 16  0  0  0  0  0  0  0  0999 V2000     
   20.2686   19.7897   22.3785 C   0  0  0  0  0  0  0  0  0  0  0  0
   20.1881   20.8374   22.6989 H   0  0  0  0  0  0  0  0  0  0  0  0
   21.3250   19.5763   22.1637 H   0  0  0  0  0  0  0  0  0  0  0  0
   19.4187   19.4921   21.1356 C   0  0  0  0  0  0  0  0  0  0  0  0
   18.4592   20.0227   21.2100 H   0  0  0  0  0  0  0  0  0  0  0  0
   19.9128   19.8033   20.2052 H   0  0  0  0  0  0  0  0  0  0  0  0
   19.1736   17.9729   21.1912 C   0  0  0  0  0  0  0  0  0  0  0  0
   19.9747   17.4505   20.6524 H   0  0  0  0  0  0  0  0  0  0  0  0
   18.2205   17.6996   20.7191 H   0  0  0  0  0  0  0  0  0  0  0  0
   19.2253   17.5733   22.6803 C   0  0  0  0  0  0  0  0  0  0  0  0
   19.9221   16.7319   22.8067 H   0  0  0  0  0  0  0  0  0  0  0  0
   19.7454   18.8093   23.4442 C   0  0  0  0  0  0  0  0  0  0  0  0
   18.9272   19.2833   24.0034 H   0  0  0  0  0  0  0  0  0  0  0  0
   20.5315   18.5391   24.1611 H   0  0  0  0  0  0  0  0  0  0  0  0
   17.9251   17.2235   23.1398 O   0  0  0  0  0  0  0  0  0  0  0  0
   18.0150   16.9909   24.0881 H   0  0  0  0  0  0  0  0  0  0  0  0
  1  2  1  0  0  0  0
  1  3  1  0  0  0  0
  1  4  1  0  0  0  0
  4  5  1  0  0  0  0
  4  6  1  0  0  0  0
  4  7  1  0  0  0  0
  7  8  1  0  0  0  0
  7  9  1  0  0  0  0
  7 10  1  0  0  0  0
 10 11  1  0  0  0  0
  1 12  1  0  0  0  0
 10 12  1  0  0  0  0
 12 13  1  0  0  0  0
 12 14  1  0  0  0  0
 10 15  1  0  0  0  0
 15 16  1  0  0  0  0
M  END
> <VConfSearch Rank>
77

> <Conf_Id>
33

> <Delta U+W>
0.015

> <U+W>
3.025

> <U>
5.843

> <W>
-2.819

> <W(PB)>
-4.568

> <W(SA)>
1.750

> <Valence>
13.789

> <Coulomb>
-8.574

> <VdW>
0.628

> <VdW6>
-3.284

> <VdW12>
3.913

> <Bond>
0.054

> <Angle>
4.033

> <Pdih>
9.702

> <Idih>
0.000

> <Tether>
0.000

$$$$
VeraChem MOL file


 16 16  0  0  0  0  0  0  0  0999 V2000     
   20.5659   18.0396   22.0372 C   0  0  0  0  0  0  0  0  0  0  0  0
   20.7941   17.1974   22.7049 H   0  0  0  0  0  0  0  0  0  0  0  0
   21.4119   18.1556   21.3459 H   0  0  0  0  0  0  0  0  0  0  0  0
   20.3318   19.3202   22.8680 C   0  0  0  0  0  0  0  0  0  0  0  0
   20.4477   19.0981   23.9378 H   0  0  0  0  0  0  0  0  0  0  0  0
   21.0547   20.1064   22.6106 H   0  0  0  0  0  0  0  0  0  0  0  0
   18.8872   19.7762   22.5717 C   0  0  0  0  0  0  0  0  0  0  0  0
   18.9005   20.5613   21.8042 H   0  0  0  0  0  0  0  0  0  0  0  0
   18.3895   20.1862   23.4606 H   0  0  0  0  0  0  0  0  0  0  0  0
   18.1592   18.5460   22.0134 C   0  0  0  0  0  0  0  0  0  0  0  0
   17.3380   18.8325   21.3407 H   0  0  0  0  0  0  0  0  0  0  0  0
   19.2544   17.7705   21.2690 C   0  0  0  0  0  0  0  0  0  0  0  0
   19.0279   16.6985   21.1949 H   0  0  0  0  0  0  0  0  0  0  0  0
   19.3397   18.1654   20.2480 H   0  0  0  0  0  0  0  0  0  0  0  0
   17.6787   17.7573   23.0922 O   0  0  0  0  0  0  0  0  0  0  0  0
   18.4707   17.5526   23.6307 H   0  0  0  0  0  0  0  0  0  0  0  0
  1  2  1  0  0  0  0
  1  3  1  0  0  0  0
  1  4  1  0  0  0  0
  4  5  1  0  0  0  0
  4  6  1  0  0  0  0
  4  7  1  0  0  0  0
  7  8  1  0  0  0  0
  7  9  1  0  0  0  0
  7 10  1  0  0  0  0
 10 11  1  0  0  0  0
  1 12  1  0  0  0  0
 10 12  1  0  0  0  0
 12 13  1  0  0  0  0
 12 14  1  0  0  0  0
 10 15  1  0  0  0  0
 15 16  1  0  0  0  0
M  END
> <VConfSearch Rank>
78

> <Conf_Id>
20

> <Delta U+W>
-0.483

> <U+W>
2.527

> <U>
4.508

> <W>
-1.981

> <W(PB)>
-3.712

> <W(SA)>
1.732

> <Valence>
14.705

> <Coulomb>
-10.687

> <VdW>
0.490

> <VdW6>
-3.745

> <VdW12>
4.235

> <Bond>
0.068

> <Angle>
3.901

> <Pdih>
10.737

> <Idih>
0.000

> <Tether>
0.000

$$$$
VeraChem MOL file


 16 16  0  0  0  0  0  0  0  0999 V2000     
   18.5655   19.5535   23.0118 C   0  0  0  0  0  0  0  0  0  0  0  0
   19.2531   20.3939   23.1813 H   0  0  0  0  0  0  0  0  0  0  0  0
   17.5726   19.8410   23.3834 H   0  0  0  0  0  0  0  0  0  0  0  0
   19.1093   18.2964   23.7042 C   0  0  0  0  0  0  0  0  0  0  0  0
   19.5523   18.5178   24.6848 H   0  0  0  0  0  0  0  0  0  0  0  0
   18.2948   17.5734   23.8506 H   0  0  0  0  0  0  0  0  0  0  0  0
   20.1390   17.7270   22.7111 C   0  0  0  0  0  0  0  0  0  0  0  0
   20.2227   16.6363   22.8014 H   0  0  0  0  0  0  0  0  0  0  0  0
   21.1261   18.1599   22.9233 H   0  0  0  0  0  0  0  0  0  0  0  0
   19.6630   18.1449   21.3038 C   0  0  0  0  0  0  0  0  0  0  0  0
   19.2470   17.2757   20.7737 H   0  0  0  0  0  0  0  0  0  0  0  0
   18.5511   19.1932   21.5148 C   0  0  0  0  0  0  0  0  0  0  0  0
   18.6903   20.0812   20.8838 H   0  0  0  0  0  0  0  0  0  0  0  0
   17.5833   18.7461   21.2527 H   0  0  0  0  0  0  0  0  0  0  0  0
   20.7408   18.7138   20.5699 O   0  0  0  0  0  0  0  0  0  0  0  0
   21.4186   18.0115   20.4757 H   0  0  0  0  0  0  0  0  0  0  0  0
  1  2  1  0  0  0  0
  1  3  1  0  0  0  0
  1  4  1  0  0  0  0
  4  5  1  0  0  0  0
  4  6  1  0  0  0  0
  4  7  1  0  0  0  0
  7  8  1  0  0  0  0
  7  9  1  0  0  0  0
  7 10  1  0  0  0  0
 10 11  1  0  0  0  0
  1 12  1  0  0  0  0
 10 12  1  0  0  0  0
 12 13  1  0  0  0  0
 12 14  1  0  0  0  0
 10 15  1  0  0  0  0
 15 16  1  0  0  0  0
M  END
> <VConfSearch Rank>
79

> <Conf_Id>
59

> <Delta U+W>
0.000

> <U+W>
3.010

> <U>
5.843

> <W>
-2.833

> <W(PB)>
-4.568

> <W(SA)>
1.735

> <Valence>
13.789

> <Coulomb>
-8.574

> <VdW>
0.628

> <VdW6>
-3.284

> <VdW12>
3.912

> <Bond>
0.054

> <Angle>
4.034

> <Pdih>
9.702

> <Idih>
0.000

> <Tether>
0.000

$$$$
VeraChem MOL file


 16 16  0  0  0  0  0  0  0  0999 V2000     
   20.4017   18.0713   23.2231 C   0  0  0  0  0  0  0  0  0  0  0  0
   21.3962   17.6047   23.2216 H   0  0  0  0  0  0  0  0  0  0  0  0
   20.1157   18.2674   24.2658 H   0  0  0  0  0  0  0  0  0  0  0  0
   19.3406   17.1866   22.5543 C   0  0  0  0  0  0  0  0  0  0  0  0
   19.7717   16.7005   21.6681 H   0  0  0  0  0  0  0  0  0  0  0  0
   18.9626   16.4042   23.2263 H   0  0  0  0  0  0  0  0  0  0  0  0
   18.2385   18.1697   22.1184 C   0  0  0  0  0  0  0  0  0  0  0  0
   17.5024   18.2795   22.9254 H   0  0  0  0  0  0  0  0  0  0  0  0
   17.7060   17.8109   21.2274 H   0  0  0  0  0  0  0  0  0  0  0  0
   18.9299   19.5280   21.8800 C   0  0  0  0  0  0  0  0  0  0  0  0
   18.3958   20.3105   22.4385 H   0  0  0  0  0  0  0  0  0  0  0  0
   20.3690   19.3836   22.4184 C   0  0  0  0  0  0  0  0  0  0  0  0
   21.0821   19.3169   21.5855 H   0  0  0  0  0  0  0  0  0  0  0  0
   20.6554   20.2421   23.0395 H   0  0  0  0  0  0  0  0  0  0  0  0
   18.9538   19.8289   20.4897 O   0  0  0  0  0  0  0  0  0  0  0  0
   19.4114   20.6912   20.3965 H   0  0  0  0  0  0  0  0  0  0  0  0
  1  2  1  0  0  0  0
  1  3  1  0  0  0  0
  1  4  1  0  0  0  0
  4  5  1  0  0  0  0
  4  6  1  0  0  0  0
  4  7  1  0  0  0  0
  7  8  1  0  0  0  0
  7  9  1  0  0  0  0
  7 10  1  0  0  0  0
 10 11  1  0  0  0  0
  1 12  1  0  0  0  0
 10 12  1  0  0  0  0
 12 13  1  0  0  0  0
 12 14  1  0  0  0  0
 10 15  1  0  0  0  0
 15 16  1  0  0  0  0
M  END
> <VConfSearch Rank>
80

> <Conf_Id>
33

> <Delta U+W>
0.015

> <U+W>
3.025

> <U>
5.843

> <W>
-2.819

> <W(PB)>
-4.568

> <W(SA)>
1.750

> <Valence>
13.789

> <Coulomb>
-8.574

> <VdW>
0.628

> <VdW6>
-3.284

> <VdW12>
3.913

> <Bond>
0.054

> <Angle>
4.033

> <Pdih>
9.702

> <Idih>
0.000

> <Tether>
0.000

$$$$
VeraChem MOL file


 16 16  0  0  0  0  0  0  0  0999 V2000     
   18.1047   18.9734   22.4348 C   0  0  0  0  0  0  0  0  0  0  0  0
   17.3715   18.2152   22.1272 H   0  0  0  0  0  0  0  0  0  0  0  0
   17.5481   19.8349   22.8287 H   0  0  0  0  0  0  0  0  0  0  0  0
   18.9870   19.3698   21.2308 C   0  0  0  0  0  0  0  0  0  0  0  0
   18.6801   18.8041   20.3403 H   0  0  0  0  0  0  0  0  0  0  0  0
   18.8927   20.4387   20.9956 H   0  0  0  0  0  0  0  0  0  0  0  0
   20.4385   19.0123   21.6154 C   0  0  0  0  0  0  0  0  0  0  0  0
   20.9520   19.9100   21.9843 H   0  0  0  0  0  0  0  0  0  0  0  0
   21.0121   18.6260   20.7623 H   0  0  0  0  0  0  0  0  0  0  0  0
   20.3367   17.9919   22.7572 C   0  0  0  0  0  0  0  0  0  0  0  0
   21.2169   18.0317   23.4150 H   0  0  0  0  0  0  0  0  0  0  0  0
   19.0563   18.3925   23.5022 C   0  0  0  0  0  0  0  0  0  0  0  0
   18.6088   17.5484   24.0437 H   0  0  0  0  0  0  0  0  0  0  0  0
   19.3005   19.1699   24.2382 H   0  0  0  0  0  0  0  0  0  0  0  0
   20.1719   16.6921   22.2095 O   0  0  0  0  0  0  0  0  0  0  0  0
   19.3740   16.7528   21.6449 H   0  0  0  0  0  0  0  0  0  0  0  0
  1  2  1  0  0  0  0
  1  3  1  0  0  0  0
  1  4  1  0  0  0  0
  4  5  1  0  0  0  0
  4  6  1  0  0  0  0
  4  7  1  0  0  0  0
  7  8  1  0  0  0  0
  7  9  1  0  0  0  0
  7 10  1  0  0  0  0
 10 11  1  0  0  0  0
  1 12  1  0  0  0  0
 10 12  1  0  0  0  0
 12 13  1  0  0  0  0
 12 14  1  0  0  0  0
 10 15  1  0  0  0  0
 15 16  1  0  0  0  0
M  END
> <VConfSearch Rank>
81

> <Conf_Id>
20

> <Delta U+W>
-0.483

> <U+W>
2.527

> <U>
4.508

> <W>
-1.981

> <W(PB)>
-3.712

> <W(SA)>
1.732

> <Valence>
14.705

> <Coulomb>
-10.687

> <VdW>
0.490

> <VdW6>
-3.745

> <VdW12>
4.235

> <Bond>
0.068

> <Angle>
3.901

> <Pdih>
10.737

> <Idih>
0.000

> <Tether>
0.000

$$$$
VeraChem MOL file


 16 16  0  0  0  0  0  0  0  0999 V2000     
   18.1716   18.7911   23.1202 C   0  0  0  0  0  0  0  0  0  0  0  0
   17.6517   17.8234   23.1523 H   0  0  0  0  0  0  0  0  0  0  0  0
   17.6151   19.5016   23.7464 H   0  0  0  0  0  0  0  0  0  0  0  0
   18.2918   19.2623   21.6644 C   0  0  0  0  0  0  0  0  0  0  0  0
   17.3858   19.0507   21.0804 H   0  0  0  0  0  0  0  0  0  0  0  0
   18.4709   20.3463   21.6403 H   0  0  0  0  0  0  0  0  0  0  0  0
   19.5257   18.5183   21.1217 C   0  0  0  0  0  0  0  0  0  0  0  0
   20.0271   19.0947   20.3335 H   0  0  0  0  0  0  0  0  0  0  0  0
   19.2104   17.5589   20.6894 H   0  0  0  0  0  0  0  0  0  0  0  0
   20.4563   18.2804   22.3296 C   0  0  0  0  0  0  0  0  0  0  0  0
   21.3217   18.9571   22.2770 H   0  0  0  0  0  0  0  0  0  0  0  0
   19.6274   18.6102   23.5882 C   0  0  0  0  0  0  0  0  0  0  0  0
   19.7107   17.8315   24.3580 H   0  0  0  0  0  0  0  0  0  0  0  0
   19.9942   19.5493   24.0224 H   0  0  0  0  0  0  0  0  0  0  0  0
   20.8800   16.9228   22.3631 O   0  0  0  0  0  0  0  0  0  0  0  0
   21.3892   16.7667   21.5397 H   0  0  0  0  0  0  0  0  0  0  0  0
  1  2  1  0  0  0  0
  1  3  1  0  0  0  0
  1  4  1  0  0  0  0
  4  5  1  0  0  0  0
  4  6  1  0  0  0  0
  4  7  1  0  0  0  0
  7  8  1  0  0  0  0
  7  9  1  0  0  0  0
  7 10  1  0  0  0  0
 10 11  1  0  0  0  0
  1 12  1  0  0  0  0
 10 12  1  0  0  0  0
 12 13  1  0  0  0  0
 12 14  1  0  0  0  0
 10 15  1  0  0  0  0
 15 16  1  0  0  0  0
M  END
> <VConfSearch Rank>
82

> <Conf_Id>
59

> <Delta U+W>
0.000

> <U+W>
3.010

> <U>
5.843

> <W>
-2.833

> <W(PB)>
-4.568

> <W(SA)>
1.735

> <Valence>
13.789

> <Coulomb>
-8.574

> <VdW>
0.628

> <VdW6>
-3.284

> <VdW12>
3.912

> <Bond>
0.054

> <Angle>
4.034

> <Pdih>
9.702

> <Idih>
0.000

> <Tether>
0.000

$$$$
VeraChem MOL file


 16 16  0  0  0  0  0  0  0  0999 V2000     
   18.3705   19.4997   21.9709 C   0  0  0  0  0  0  0  0  0  0  0  0
   17.3161   19.4515   21.6665 H   0  0  0  0  0  0  0  0  0  0  0  0
   18.6172   20.5478   22.1902 H   0  0  0  0  0  0  0  0  0  0  0  0
   19.3162   18.9624   20.8880 C   0  0  0  0  0  0  0  0  0  0  0  0
   18.8699   18.0759   20.4162 H   0  0  0  0  0  0  0  0  0  0  0  0
   19.5200   19.7038   20.1036 H   0  0  0  0  0  0  0  0  0  0  0  0
   20.5874   18.5536   21.6549 C   0  0  0  0  0  0  0  0  0  0  0  0
   21.2786   19.4051   21.7028 H   0  0  0  0  0  0  0  0  0  0  0  0
   21.1110   17.7262   21.1577 H   0  0  0  0  0  0  0  0  0  0  0  0
   20.1397   18.1880   23.0851 C   0  0  0  0  0  0  0  0  0  0  0  0
   20.7558   18.7389   23.8107 H   0  0  0  0  0  0  0  0  0  0  0  0
   18.6647   18.6262   23.2043 C   0  0  0  0  0  0  0  0  0  0  0  0
   18.0047   17.7482   23.1934 H   0  0  0  0  0  0  0  0  0  0  0  0
   18.4809   19.1746   24.1372 H   0  0  0  0  0  0  0  0  0  0  0  0
   20.2531   16.7849   23.2910 O   0  0  0  0  0  0  0  0  0  0  0  0
   19.9468   16.6092   24.2058 H   0  0  0  0  0  0  0  0  0  0  0  0
  1  2  1  0  0  0  0
  1  3  1  0  0  0  0
  1  4  1  0  0  0  0
  4  5  1  0  0  0  0
  4  6  1  0  0  0  0
  4  7  1  0  0  0  0
  7  8  1  0  0  0  0
  7  9  1  0  0  0  0
  7 10  1  0  0  0  0
 10 11  1  0  0  0  0
  1 12  1  0  0  0  0
 10 12  1  0  0  0  0
 12 13  1  0  0  0  0
 12 14  1  0  0  0  0
 10 15  1  0  0  0  0
 15 16  1  0  0  0  0
M  END
> <VConfSearch Rank>
83

> <Conf_Id>
33

> <Delta U+W>
0.015

> <U+W>
3.025

> <U>
5.843

> <W>
-2.819

> <W(PB)>
-4.568

> <W(SA)>
1.750

> <Valence>
13.789

> <Coulomb>
-8.574

> <VdW>
0.628

> <VdW6>
-3.284

> <VdW12>
3.913

> <Bond>
0.054

> <Angle>
4.033

> <Pdih>
9.702

> <Idih>
0.000

> <Tether>
0.000

$$$$
VeraChem MOL file


 16 16  0  0  0  0  0  0  0  0999 V2000     
   20.5301   19.0335   22.7864 C   0  0  0  0  0  0  0  0  0  0  0  0
   20.4890   20.0478   23.2067 H   0  0  0  0  0  0  0  0  0  0  0  0
   21.5456   18.6467   22.9480 H   0  0  0  0  0  0  0  0  0  0  0  0
   20.1692   19.0720   21.2853 C   0  0  0  0  0  0  0  0  0  0  0  0
   19.9545   20.1051   20.9789 H   0  0  0  0  0  0  0  0  0  0  0  0
   20.9956   18.7043   20.6617 H   0  0  0  0  0  0  0  0  0  0  0  0
   18.9119   18.1931   21.1148 C   0  0  0  0  0  0  0  0  0  0  0  0
   19.2076   17.1917   20.7750 H   0  0  0  0  0  0  0  0  0  0  0  0
   18.2137   18.6047   20.3737 H   0  0  0  0  0  0  0  0  0  0  0  0
   18.2800   18.0799   22.5087 C   0  0  0  0  0  0  0  0  0  0  0  0
   17.7125   17.1449   22.6209 H   0  0  0  0  0  0  0  0  0  0  0  0
   19.4780   18.1318   23.4664 C   0  0  0  0  0  0  0  0  0  0  0  0
   19.1980   18.4976   24.4633 H   0  0  0  0  0  0  0  0  0  0  0  0
   19.8844   17.1186   23.5842 H   0  0  0  0  0  0  0  0  0  0  0  0
   17.4485   19.2080   22.7382 O   0  0  0  0  0  0  0  0  0  0  0  0
   18.0333   19.9843   22.6177 H   0  0  0  0  0  0  0  0  0  0  0  0
  1  2  1  0  0  0  0
  1  3  1  0  0  0  0
  1  4  1  0  0  0  0
  4  5  1  0  0  0  0
  4  6  1  0  0  0  0
  4  7  1  0  0  0  0
  7  8  1  0  0  0  0
  7  9  1  0  0  0  0
  7 10  1  0  0  0  0
 10 11  1  0  0  0  0
  1 12  1  0  0  0  0
 10 12  1  0  0  0  0
 12 13  1  0  0  0  0
 12 14  1  0  0  0  0
 10 15  1  0  0  0  0
 15 16  1  0  0  0  0
M  END
> <VConfSearch Rank>
84

> <Conf_Id>
20

> <Delta U+W>
-0.483

> <U+W>
2.527

> <U>
4.508

> <W>
-1.981

> <W(PB)>
-3.712

> <W(SA)>
1.732

> <Valence>
14.705

> <Coulomb>
-10.687

> <VdW>
0.490

> <VdW6>
-3.745

> <VdW12>
4.235

> <Bond>
0.068

> <Angle>
3.901

> <Pdih>
10.737

> <Idih>
0.000

> <Tether>
0.000

$$$$
VeraChem MOL file


 16 16  0  0  0  0  0  0  0  0999 V2000     
   19.9765   18.9161   21.0491 C   0  0  0  0  0  0  0  0  0  0  0  0
   19.3905   18.3871   20.2846 H   0  0  0  0  0  0  0  0  0  0  0  0
   20.7326   19.5292   20.5401 H   0  0  0  0  0  0  0  0  0  0  0  0
   20.5997   17.8988   22.0147 C   0  0  0  0  0  0  0  0  0  0  0  0
   20.9640   17.0007   21.4977 H   0  0  0  0  0  0  0  0  0  0  0  0
   21.4471   18.3598   22.5411 H   0  0  0  0  0  0  0  0  0  0  0  0
   19.4742   17.5822   23.0165 C   0  0  0  0  0  0  0  0  0  0  0  0
   19.8778   17.3087   24.0000 H   0  0  0  0  0  0  0  0  0  0  0  0
   18.8858   16.7321   22.6450 H   0  0  0  0  0  0  0  0  0  0  0  0
   18.5943   18.8475   23.0962 C   0  0  0  0  0  0  0  0  0  0  0  0
   18.7691   19.3680   24.0491 H   0  0  0  0  0  0  0  0  0  0  0  0
   19.0345   19.7569   21.9305 C   0  0  0  0  0  0  0  0  0  0  0  0
   18.1808   20.1420   21.3570 H   0  0  0  0  0  0  0  0  0  0  0  0
   19.5804   20.6189   22.3355 H   0  0  0  0  0  0  0  0  0  0  0  0
   17.2217   18.5005   22.9565 O   0  0  0  0  0  0  0  0  0  0  0  0
   17.0007   17.9170   23.7129 H   0  0  0  0  0  0  0  0  0  0  0  0
  1  2  1  0  0  0  0
  1  3  1  0  0  0  0
  1  4  1  0  0  0  0
  4  5  1  0  0  0  0
  4  6  1  0  0  0  0
  4  7  1  0  0  0  0
  7  8  1  0  0  0  0
  7  9  1  0  0  0  0
  7 10  1  0  0  0  0
 10 11  1  0  0  0  0
  1 12  1  0  0  0  0
 10 12  1  0  0  0  0
 12 13  1  0  0  0  0
 12 14  1  0  0  0  0
 10 15  1  0  0  0  0
 15 16  1  0  0  0  0
M  END
> <VConfSearch Rank>
85

> <Conf_Id>
59

> <Delta U+W>
0.000

> <U+W>
3.010

> <U>
5.843

> <W>
-2.833

> <W(PB)>
-4.568

> <W(SA)>
1.735

> <Valence>
13.789

> <Coulomb>
-8.574

> <VdW>
0.628

> <VdW6>
-3.284

> <VdW12>
3.912

> <Bond>
0.054

> <Angle>
4.034

> <Pdih>
9.702

> <Idih>
0.000

> <Tether>
0.000

$$$$
VeraChem MOL file


 16 16  0  0  0  0  0  0  0  0999 V2000     
   20.3760   19.7089   22.2272 C   0  0  0  0  0  0  0  0  0  0  0  0
   21.4131   19.9417   22.5045 H   0  0  0  0  0  0  0  0  0  0  0  0
   19.9846   20.5437   21.6292 H   0  0  0  0  0  0  0  0  0  0  0  0
   19.4795   19.4871   23.4531 C   0  0  0  0  0  0  0  0  0  0  0  0
   20.0341   18.9263   24.2183 H   0  0  0  0  0  0  0  0  0  0  0  0
   19.1371   20.4309   23.8987 H   0  0  0  0  0  0  0  0  0  0  0  0
   18.3142   18.6284   22.9279 C   0  0  0  0  0  0  0  0  0  0  0  0
   17.5063   19.2813   22.5729 H   0  0  0  0  0  0  0  0  0  0  0  0
   17.9007   17.9833   23.7146 H   0  0  0  0  0  0  0  0  0  0  0  0
   18.8666   17.8186   21.7368 C   0  0  0  0  0  0  0  0  0  0  0  0
   18.2040   17.9507   20.8691 H   0  0  0  0  0  0  0  0  0  0  0  0
   20.2633   18.3978   21.4279 C   0  0  0  0  0  0  0  0  0  0  0  0
   21.0459   17.7018   21.7595 H   0  0  0  0  0  0  0  0  0  0  0  0
   20.3995   18.5707   20.3525 H   0  0  0  0  0  0  0  0  0  0  0  0
   18.9717   16.4433   22.0853 O   0  0  0  0  0  0  0  0  0  0  0  0
   19.3360   15.9814   21.3008 H   0  0  0  0  0  0  0  0  0  0  0  0
  1  2  1  0  0  0  0
  1  3  1  0  0  0  0
  1  4  1  0  0  0  0
  4  5  1  0  0  0  0
  4  6  1  0  0  0  0
  4  7  1  0  0  0  0
  7  8  1  0  0  0  0
  7  9  1  0  0  0  0
  7 10  1  0  0  0  0
 10 11  1  0  0  0  0
  1 12  1  0  0  0  0
 10 12  1  0  0  0  0
 12 13  1  0  0  0  0
 12 14  1  0  0  0  0
 10 15  1  0  0  0  0
 15 16  1  0  0  0  0
M  END
> <VConfSearch Rank>
86

> <Conf_Id>
33

> <Delta U+W>
0.015

> <U+W>
3.025

> <U>
5.843

> <W>
-2.819

> <W(PB)>
-4.568

> <W(SA)>
1.750

> <Valence>
13.789

> <Coulomb>
-8.574

> <VdW>
0.628

> <VdW6>
-3.284

> <VdW12>
3.913

> <Bond>
0.054

> <Angle>
4.033

> <Pdih>
9.702

> <Idih>
0.000

> <Tether>
0.000

$$$$
VeraChem MOL file


 16 16  0  0  0  0  0  0  0  0999 V2000     
   18.4028   17.7075   22.1221 C   0  0  0  0  0  0  0  0  0  0  0  0
   17.3920   18.1057   22.2864 H   0  0  0  0  0  0  0  0  0  0  0  0
   18.3044   16.6433   21.8675 H   0  0  0  0  0  0  0  0  0  0  0  0
   19.2601   17.9110   23.3905 C   0  0  0  0  0  0  0  0  0  0  0  0
   18.6639   18.4067   24.1690 H   0  0  0  0  0  0  0  0  0  0  0  0
   19.6110   16.9533   23.7987 H   0  0  0  0  0  0  0  0  0  0  0  0
   20.4475   18.8063   22.9772 C   0  0  0  0  0  0  0  0  0  0  0  0
   21.3254   18.1796   22.7719 H   0  0  0  0  0  0  0  0  0  0  0  0
   20.7237   19.5209   23.7640 H   0  0  0  0  0  0  0  0  0  0  0  0
   20.0207   19.5063   21.6799 C   0  0  0  0  0  0  0  0  0  0  0  0
   20.8877   19.7608   21.0534 H   0  0  0  0  0  0  0  0  0  0  0  0
   19.1051   18.4865   20.9897 C   0  0  0  0  0  0  0  0  0  0  0  0
   18.3895   18.9646   20.3075 H   0  0  0  0  0  0  0  0  0  0  0  0
   19.7215   17.7971   20.3978 H   0  0  0  0  0  0  0  0  0  0  0  0
   19.2691   20.6678   22.0007 O   0  0  0  0  0  0  0  0  0  0  0  0
   18.5272   20.3466   22.5535 H   0  0  0  0  0  0  0  0  0  0  0  0
  1  2  1  0  0  0  0
  1  3  1  0  0  0  0
  1  4  1  0  0  0  0
  4  5  1  0  0  0  0
  4  6  1  0  0  0  0
  4  7  1  0  0  0  0
  7  8  1  0  0  0  0
  7  9  1  0  0  0  0
  7 10  1  0  0  0  0
 10 11  1  0  0  0  0
  1 12  1  0  0  0  0
 10 12  1  0  0  0  0
 12 13  1  0  0  0  0
 12 14  1  0  0  0  0
 10 15  1  0  0  0  0
 15 16  1  0  0  0  0
M  END
> <VConfSearch Rank>
87

> <Conf_Id>
20

> <Delta U+W>
-0.483

> <U+W>
2.527

> <U>
4.508

> <W>
-1.981

> <W(PB)>
-3.712

> <W(SA)>
1.732

> <Valence>
14.705

> <Coulomb>
-10.687

> <VdW>
0.490

> <VdW6>
-3.745

> <VdW12>
4.235

> <Bond>
0.068

> <Angle>
3.901

> <Pdih>
10.737

> <Idih>
0.000

> <Tether>
0.000

$$$$
VeraChem MOL file


 16 16  0  0  0  0  0  0  0  0999 V2000     
   19.7468   19.7959   22.9626 C   0  0  0  0  0  0  0  0  0  0  0  0
   20.3632   20.3230   22.2210 H   0  0  0  0  0  0  0  0  0  0  0  0
   19.6394   20.4434   23.8434 H   0  0  0  0  0  0  0  0  0  0  0  0
   20.3934   18.4461   23.3026 C   0  0  0  0  0  0  0  0  0  0  0  0
   21.4876   18.5128   23.3736 H   0  0  0  0  0  0  0  0  0  0  0  0
   20.0081   18.0839   24.2660 H   0  0  0  0  0  0  0  0  0  0  0  0
   19.9358   17.5065   22.1721 C   0  0  0  0  0  0  0  0  0  0  0  0
   19.8709   16.4663   22.5165 H   0  0  0  0  0  0  0  0  0  0  0  0
   20.6640   17.5451   21.3505 H   0  0  0  0  0  0  0  0  0  0  0  0
   18.5652   18.0331   21.6969 C   0  0  0  0  0  0  0  0  0  0  0  0
   17.7635   17.3680   22.0497 H   0  0  0  0  0  0  0  0  0  0  0  0
   18.3897   19.4262   22.3360 C   0  0  0  0  0  0  0  0  0  0  0  0
   18.0616   20.1803   21.6083 H   0  0  0  0  0  0  0  0  0  0  0  0
   17.6254   19.3658   23.1216 H   0  0  0  0  0  0  0  0  0  0  0  0
   18.5445   18.1380   20.2783 O   0  0  0  0  0  0  0  0  0  0  0  0
   18.6705   17.2311   19.9273 H   0  0  0  0  0  0  0  0  0  0  0  0
  1  2  1  0  0  0  0
  1  3  1  0  0  0  0
  1  4  1  0  0  0  0
  4  5  1  0  0  0  0
  4  6  1  0  0  0  0
  4  7  1  0  0  0  0
  7  8  1  0  0  0  0
  7  9  1  0  0  0  0
  7 10  1  0  0  0  0
 10 11  1  0  0  0  0
  1 12  1  0  0  0  0
 10 12  1  0  0  0  0
 12 13  1  0  0  0  0
 12 14  1  0  0  0  0
 10 15  1  0  0  0  0
 15 16  1  0  0  0  0
M  END
> <VConfSearch Rank>
88

> <Conf_Id>
59

> <Delta U+W>
0.000

> <U+W>
3.010

> <U>
5.843

> <W>
-2.833

> <W(PB)>
-4.568

> <W(SA)>
1.735

> <Valence>
13.789

> <Coulomb>
-8.574

> <VdW>
0.628

> <VdW6>
-3.284

> <VdW12>
3.912

> <Bond>
0.054

> <Angle>
4.034

> <Pdih>
9.702

> <Idih>
0.000

> <Tether>
0.000

$$$$
VeraChem MOL file


 16 16  0  0  0  0  0  0  0  0999 V2000     
   20.1809   19.5889   23.0509 C   0  0  0  0  0  0  0  0  0  0  0  0
   20.9327   20.3742   22.8933 H   0  0  0  0  0  0  0  0  0  0  0  0
   19.8175   19.6638   24.0853 H   0  0  0  0  0  0  0  0  0  0  0  0
   20.7441   18.1830   22.8021 C   0  0  0  0  0  0  0  0  0  0  0  0
   21.4139   18.2034   21.9311 H   0  0  0  0  0  0  0  0  0  0  0  0
   21.3095   17.7992   23.6621 H   0  0  0  0  0  0  0  0  0  0  0  0
   19.5072   17.3238   22.4812 C   0  0  0  0  0  0  0  0  0  0  0  0
   19.1051   16.8960   23.4088 H   0  0  0  0  0  0  0  0  0  0  0  0
   19.7564   16.4910   21.8101 H   0  0  0  0  0  0  0  0  0  0  0  0
   18.4577   18.2748   21.8696 C   0  0  0  0  0  0  0  0  0  0  0  0
   17.5031   18.1531   22.4021 H   0  0  0  0  0  0  0  0  0  0  0  0
   18.9973   19.7062   22.0732 C   0  0  0  0  0  0  0  0  0  0  0  0
   19.3537   20.1179   21.1191 H   0  0  0  0  0  0  0  0  0  0  0  0
   18.2214   20.3785   22.4616 H   0  0  0  0  0  0  0  0  0  0  0  0
   18.2986   18.0027   20.4823 O   0  0  0  0  0  0  0  0  0  0  0  0
   17.6333   18.6394   20.1454 H   0  0  0  0  0  0  0  0  0  0  0  0
  1  2  1  0  0  0  0
  1  3  1  0  0  0  0
  1  4  1  0  0  0  0
  4  5  1  0  0  0  0
  4  6  1  0  0  0  0
  4  7  1  0  0  0  0
  7  8  1  0  0  0  0
  7  9  1  0  0  0  0
  7 10  1  0  0  0  0
 10 11  1  0  0  0  0
  1 12  1  0  0  0  0
 10 12  1  0  0  0  0
 12 13  1  0  0  0  0
 12 14  1  0  0  0  0
 10 15  1  0  0  0  0
 15 16  1  0  0  0  0
M  END
> <VConfSearch Rank>
89

> <Conf_Id>
33

> <Delta U+W>
0.015

> <U+W>
3.025

> <U>
5.843

> <W>
-2.819

> <W(PB)>
-4.568

> <W(SA)>
1.750

> <Valence>
13.789

> <Coulomb>
-8.574

> <VdW>
0.628

> <VdW6>
-3.284

> <VdW12>
3.913

> <Bond>
0.054

> <Angle>
4.033

> <Pdih>
9.702

> <Idih>
0.000

> <Tether>
0.000

$$$$
VeraChem MOL file


 16 16  0  0  0  0  0  0  0  0999 V2000     
   19.2622   17.5933   21.3995 C   0  0  0  0  0  0  0  0  0  0  0  0
   19.0113   16.6319   21.8685 H   0  0  0  0  0  0  0  0  0  0  0  0
   19.3292   17.4278   20.3154 H   0  0  0  0  0  0  0  0  0  0  0  0
   20.5917   18.1276   21.9756 C   0  0  0  0  0  0  0  0  0  0  0  0
   20.9847   17.4243   22.7227 H   0  0  0  0  0  0  0  0  0  0  0  0
   21.3539   18.2426   21.1928 H   0  0  0  0  0  0  0  0  0  0  0  0
   20.2680   19.4836   22.6382 C   0  0  0  0  0  0  0  0  0  0  0  0
   20.5150   20.2987   21.9454 H   0  0  0  0  0  0  0  0  0  0  0  0
   20.8419   19.6436   23.5607 H   0  0  0  0  0  0  0  0  0  0  0  0
   18.7539   19.4838   22.8883 C   0  0  0  0  0  0  0  0  0  0  0  0
   18.3440   20.5040   22.8886 H   0  0  0  0  0  0  0  0  0  0  0  0
   18.1853   18.6470   21.7345 C   0  0  0  0  0  0  0  0  0  0  0  0
   17.2200   18.1893   21.9889 H   0  0  0  0  0  0  0  0  0  0  0  0
   18.0271   19.2991   20.8653 H   0  0  0  0  0  0  0  0  0  0  0  0
   18.4830   18.8287   24.1189 O   0  0  0  0  0  0  0  0  0  0  0  0
   18.8807   17.9385   24.0266 H   0  0  0  0  0  0  0  0  0  0  0  0
  1  2  1  0  0  0  0
  1  3  1  0  0  0  0
  1  4  1  0  0  0  0
  4  5  1  0  0  0  0
  4  6  1  0  0  0  0
  4  7  1  0  0  0  0
  7  8  1  0  0  0  0
  7  9  1  0  0  0  0
  7 10  1  0  0  0  0
 10 11  1  0  0  0  0
  1 12  1  0  0  0  0
 10 12  1  0  0  0  0
 12 13  1  0  0  0  0
 12 14  1  0  0  0  0
 10 15  1  0  0  0  0
 15 16  1  0  0  0  0
M  END
> <VConfSearch Rank>
90

> <Conf_Id>
20

> <Delta U+W>
-0.483

> <U+W>
2.527

> <U>
4.508

> <W>
-1.981

> <W(PB)>
-3.712

> <W(SA)>
1.732

> <Valence>
14.705

> <Coulomb>
-10.687

> <VdW>
0.490

> <VdW6>
-3.745

> <VdW12>
4.235

> <Bond>
0.068

> <Angle>
3.901

> <Pdih>
10.737

> <Idih>
0.000

> <Tether>
0.000

$$$$
VeraChem MOL file


 16 16  0  0  0  0  0  0  0  0999 V2000     
   19.0322   18.2521   20.9298 C   0  0  0  0  0  0  0  0  0  0  0  0
   19.6263   17.3604   20.6859 H   0  0  0  0  0  0  0  0  0  0  0  0
   18.4110   18.5006   20.0586 H   0  0  0  0  0  0  0  0  0  0  0  0
   19.9687   19.4008   21.3288 C   0  0  0  0  0  0  0  0  0  0  0  0
   20.8738   19.4372   20.7074 H   0  0  0  0  0  0  0  0  0  0  0  0
   19.4422   20.3599   21.2254 H   0  0  0  0  0  0  0  0  0  0  0  0
   20.2865   19.1383   22.8123 C   0  0  0  0  0  0  0  0  0  0  0  0
   20.4903   20.0731   23.3503 H   0  0  0  0  0  0  0  0  0  0  0  0
   21.1811   18.5049   22.8855 H   0  0  0  0  0  0  0  0  0  0  0  0
   19.0616   18.4032   23.3960 C   0  0  0  0  0  0  0  0  0  0  0  0
   18.4856   19.0841   24.0396 H   0  0  0  0  0  0  0  0  0  0  0  0
   18.1929   17.9830   22.1925 C   0  0  0  0  0  0  0  0  0  0  0  0
   17.8780   16.9326   22.2523 H   0  0  0  0  0  0  0  0  0  0  0  0
   17.2867   18.6023   22.1715 H   0  0  0  0  0  0  0  0  0  0  0  0
   19.4793   17.2548   24.1244 O   0  0  0  0  0  0  0  0  0  0  0  0
   20.0334   17.5783   24.8660 H   0  0  0  0  0  0  0  0  0  0  0  0
  1  2  1  0  0  0  0
  1  3  1  0  0  0  0
  1  4  1  0  0  0  0
  4  5  1  0  0  0  0
  4  6  1  0  0  0  0
  4  7  1  0  0  0  0
  7  8  1  0  0  0  0
  7  9  1  0  0  0  0
  7 10  1  0  0  0  0
 10 11  1  0  0  0  0
  1 12  1  0  0  0  0
 10 12  1  0  0  0  0
 12 13  1  0  0  0  0
 12 14  1  0  0  0  0
 10 15  1  0  0  0  0
 15 16  1  0  0  0  0
M  END
> <VConfSearch Rank>
91

> <Conf_Id>
59

> <Delta U+W>
0.000

> <U+W>
3.010

> <U>
5.843

> <W>
-2.833

> <W(PB)>
-4.568

> <W(SA)>
1.735

> <Valence>
13.789

> <Coulomb>
-8.574

> <VdW>
0.628

> <VdW6>
-3.284

> <VdW12>
3.912

> <Bond>
0.054

> <Angle>
4.034

> <Pdih>
9.702

> <Idih>
0.000

> <Tether>
0.000

$$$$
VeraChem MOL file


 16 16  0  0  0  0  0  0  0  0999 V2000     
   19.6008   19.6070   21.2682 C   0  0  0  0  0  0  0  0  0  0  0  0
   19.0620   19.9827   20.3877 H   0  0  0  0  0  0  0  0  0  0  0  0
   20.4495   20.2771   21.4635 H   0  0  0  0  0  0  0  0  0  0  0  0
   20.1100   18.1723   21.0730 C   0  0  0  0  0  0  0  0  0  0  0  0
   19.3525   17.5821   20.5386 H   0  0  0  0  0  0  0  0  0  0  0  0
   21.0451   18.1336   20.4979 H   0  0  0  0  0  0  0  0  0  0  0  0
   20.2763   17.6247   22.5025 C   0  0  0  0  0  0  0  0  0  0  0  0
   21.2918   17.8357   22.8621 H   0  0  0  0  0  0  0  0  0  0  0  0
   20.1287   16.5370   22.5386 H   0  0  0  0  0  0  0  0  0  0  0  0
   19.2628   18.3827   23.3846 C   0  0  0  0  0  0  0  0  0  0  0  0
   19.7819   18.7954   24.2618 H   0  0  0  0  0  0  0  0  0  0  0  0
   18.7016   19.5280   22.5156 C   0  0  0  0  0  0  0  0  0  0  0  0
   17.6717   19.3025   22.2073 H   0  0  0  0  0  0  0  0  0  0  0  0
   18.6892   20.4800   23.0619 H   0  0  0  0  0  0  0  0  0  0  0  0
   18.2125   17.5107   23.7852 O   0  0  0  0  0  0  0  0  0  0  0  0
   17.5962   18.0444   24.3300 H   0  0  0  0  0  0  0  0  0  0  0  0
  1  2  1  0  0  0  0
  1  3  1  0  0  0  0
  1  4  1  0  0  0  0
  4  5  1  0  0  0  0
  4  6  1  0  0  0  0
  4  7  1  0  0  0  0
  7  8  1  0  0  0  0
  7  9  1  0  0  0  0
  7 10  1  0  0  0  0
 10 11  1  0  0  0  0
  1 12  1  0  0  0  0
 10 12  1  0  0  0  0
 12 13  1  0  0  0  0
 12 14  1  0  0  0  0
 10 15  1  0  0  0  0
 15 16  1  0  0  0  0
M  END
> <VConfSearch Rank>
92

> <Conf_Id>
33

> <Delta U+W>
0.015

> <U+W>
3.025

> <U>
5.843

> <W>
-2.819

> <W(PB)>
-4.568

> <W(SA)>
1.750

> <Valence>
13.789

> <Coulomb>
-8.574

> <VdW>
0.628

> <VdW6>
-3.284

> <VdW12>
3.913

> <Bond>
0.054

> <Angle>
4.033

> <Pdih>
9.702

> <Idih>
0.000

> <Tether>
0.000

$$$$
VeraChem MOL file


 16 16  0  0  0  0  0  0  0  0999 V2000     
   19.5828   17.8524   21.1770 C   0  0  0  0  0  0  0  0  0  0  0  0
   19.2682   18.3176   20.2326 H   0  0  0  0  0  0  0  0  0  0  0  0
   20.0057   16.8669   20.9384 H   0  0  0  0  0  0  0  0  0  0  0  0
   18.3755   17.7361   22.1330 C   0  0  0  0  0  0  0  0  0  0  0  0
   17.4764   18.1440   21.6509 H   0  0  0  0  0  0  0  0  0  0  0  0
   18.1674   16.6897   22.3953 H   0  0  0  0  0  0  0  0  0  0  0  0
   18.7294   18.5627   23.3875 C   0  0  0  0  0  0  0  0  0  0  0  0
   19.1119   17.8951   24.1709 H   0  0  0  0  0  0  0  0  0  0  0  0
   17.8587   19.0927   23.7961 H   0  0  0  0  0  0  0  0  0  0  0  0
   19.8477   19.5236   22.9620 C   0  0  0  0  0  0  0  0  0  0  0  0
   20.4929   19.7945   23.8101 H   0  0  0  0  0  0  0  0  0  0  0  0
   20.6214   18.7440   21.8903 C   0  0  0  0  0  0  0  0  0  0  0  0
   21.1493   19.4079   21.1927 H   0  0  0  0  0  0  0  0  0  0  0  0
   21.3721   18.1112   22.3820 H   0  0  0  0  0  0  0  0  0  0  0  0
   19.2715   20.6807   22.3739 O   0  0  0  0  0  0  0  0  0  0  0  0
   18.7207   20.3447   21.6372 H   0  0  0  0  0  0  0  0  0  0  0  0
  1  2  1  0  0  0  0
  1  3  1  0  0  0  0
  1  4  1  0  0  0  0
  4  5  1  0  0  0  0
  4  6  1  0  0  0  0
  4  7  1  0  0  0  0
  7  8  1  0  0  0  0
  7  9  1  0  0  0  0
  7 10  1  0  0  0  0
 10 11  1  0  0  0  0
  1 12  1  0  0  0  0
 10 12  1  0  0  0  0
 12 13  1  0  0  0  0
 12 14  1  0  0  0  0
 10 15  1  0  0  0  0
 15 16  1  0  0  0  0
M  END
> <VConfSearch Rank>
93

> <Conf_Id>
20

> <Delta U+W>
-0.483

> <U+W>
2.527

> <U>
4.508

> <W>
-1.981

> <W(PB)>
-3.712

> <W(SA)>
1.732

> <Valence>
14.705

> <Coulomb>
-10.687

> <VdW>
0.490

> <VdW6>
-3.745

> <VdW12>
4.235

> <Bond>
0.068

> <Angle>
3.901

> <Pdih>
10.737

> <Idih>
0.000

> <Tether>
0.000

$$$$
VeraChem MOL file


 16 16  0  0  0  0  0  0  0  0999 V2000     
   20.0954   18.8182   23.5390 C   0  0  0  0  0  0  0  0  0  0  0  0
   19.5303   19.6134   24.0451 H   0  0  0  0  0  0  0  0  0  0  0  0
   20.9318   18.5242   24.1876 H   0  0  0  0  0  0  0  0  0  0  0  0
   20.5657   19.3159   22.1654 C   0  0  0  0  0  0  0  0  0  0  0  0
   20.8990   20.3623   22.1916 H   0  0  0  0  0  0  0  0  0  0  0  0
   21.4035   18.6970   21.8150 H   0  0  0  0  0  0  0  0  0  0  0  0
   19.3473   19.1119   21.2463 C   0  0  0  0  0  0  0  0  0  0  0  0
   19.6540   18.9294   20.2083 H   0  0  0  0  0  0  0  0  0  0  0  0
   18.7260   20.0177   21.2603 H   0  0  0  0  0  0  0  0  0  0  0  0
   18.5620   17.9158   21.8244 C   0  0  0  0  0  0  0  0  0  0  0  0
   18.7035   17.0298   21.1883 H   0  0  0  0  0  0  0  0  0  0  0  0
   19.1560   17.6403   23.2212 C   0  0  0  0  0  0  0  0  0  0  0  0
   18.3793   17.5241   23.9889 H   0  0  0  0  0  0  0  0  0  0  0  0
   19.7335   16.7073   23.1870 H   0  0  0  0  0  0  0  0  0  0  0  0
   17.1815   18.2417   21.9339 O   0  0  0  0  0  0  0  0  0  0  0  0
   16.8608   18.4167   21.0239 H   0  0  0  0  0  0  0  0  0  0  0  0
  1  2  1  0  0  0  0
  1  3  1  0  0  0  0
  1  4  1  0  0  0  0
  4  5  1  0  0  0  0
  4  6  1  0  0  0  0
  4  7  1  0  0  0  0
  7  8  1  0  0  0  0
  7  9  1  0  0  0  0
  7 10  1  0  0  0  0
 10 11  1  0  0  0  0
  1 12  1  0  0  0  0
 10 12  1  0  0  0  0
 12 13  1  0  0  0  0
 12 14  1  0  0  0  0
 10 15  1  0  0  0  0
 15 16  1  0  0  0  0
M  END
> <VConfSearch Rank>
94

> <Conf_Id>
59

> <Delta U+W>
0.000

> <U+W>
3.010

> <U>
5.843

> <W>
-2.833

> <W(PB)>
-4.568

> <W(SA)>
1.735

> <Valence>
13.789

> <Coulomb>
-8.574

> <VdW>
0.628

> <VdW6>
-3.284

> <VdW12>
3.912

> <Bond>
0.054

> <Angle>
4.034

> <Pdih>
9.702

> <Idih>
0.000

> <Tether>
0.000

$$$$
VeraChem MOL file


 16 16  0  0  0  0  0  0  0  0999 V2000     
   18.9566   19.0854   21.0310 C   0  0  0  0  0  0  0  0  0  0  0  0
   18.0594   19.5636   20.6150 H   0  0  0  0  0  0  0  0  0  0  0  0
   19.7314   19.0721   20.2517 H   0  0  0  0  0  0  0  0  0  0  0  0
   18.6850   17.6540   21.5135 C   0  0  0  0  0  0  0  0  0  0  0  0
   17.7025   17.6109   22.0040 H   0  0  0  0  0  0  0  0  0  0  0  0
   18.6913   16.9257   20.6911 H   0  0  0  0  0  0  0  0  0  0  0  0
   19.7909   17.3802   22.5493 C   0  0  0  0  0  0  0  0  0  0  0  0
   20.6653   16.9446   22.0484 H   0  0  0  0  0  0  0  0  0  0  0  0
   19.4583   16.6697   23.3178 H   0  0  0  0  0  0  0  0  0  0  0  0
   20.1826   18.7477   23.1463 C   0  0  0  0  0  0  0  0  0  0  0  0
   21.2741   18.8698   23.0891 H   0  0  0  0  0  0  0  0  0  0  0  0
   19.4853   19.8165   22.2786 C   0  0  0  0  0  0  0  0  0  0  0  0
   18.6414   20.2592   22.8251 H   0  0  0  0  0  0  0  0  0  0  0  0
   20.1734   20.6274   22.0069 H   0  0  0  0  0  0  0  0  0  0  0  0
   19.7355   18.8409   24.4936 O   0  0  0  0  0  0  0  0  0  0  0  0
   19.9997   19.7282   24.8169 H   0  0  0  0  0  0  0  0  0  0  0  0
  1  2  1  0  0  0  0
  1  3  1  0  0  0  0
  1  4  1  0  0  0  0
  4  5  1  0  0  0  0
  4  6  1  0  0  0  0
  4  7  1  0  0  0  0
  7  8  1  0  0  0  0
  7  9  1  0  0  0  0
  7 10  1  0  0  0  0
 10 11  1  0  0  0  0
  1 12  1  0  0  0  0
 10 12  1  0  0  0  0
 12 13  1  0  0  0  0
 12 14  1  0  0  0  0
 10 15  1  0  0  0  0
 15 16  1  0  0  0  0
M  END
> <VConfSearch Rank>
95

> <Conf_Id>
33

> <Delta U+W>
0.015

> <U+W>
3.025

> <U>
5.843

> <W>
-2.819

> <W(PB)>
-4.568

> <W(SA)>
1.750

> <Valence>
13.789

> <Coulomb>
-8.574

> <VdW>
0.628

> <VdW6>
-3.284

> <VdW12>
3.913

> <Bond>
0.054

> <Angle>
4.033

> <Pdih>
9.702

> <Idih>
0.000

> <Tether>
0.000

$$$$
VeraChem MOL file


 16 16  0  0  0  0  0  0  0  0999 V2000     
   20.4283   17.8914   21.8511 C   0  0  0  0  0  0  0  0  0  0  0  0
   21.2857   18.4923   21.5177 H   0  0  0  0  0  0  0  0  0  0  0  0
   20.7085   16.8328   21.7623 H   0  0  0  0  0  0  0  0  0  0  0  0
   19.1882   18.2245   20.9931 C   0  0  0  0  0  0  0  0  0  0  0  0
   19.4456   18.9858   20.2438 H   0  0  0  0  0  0  0  0  0  0  0  0
   18.8190   17.3399   20.4562 H   0  0  0  0  0  0  0  0  0  0  0  0
   18.1190   18.7711   21.9629 C   0  0  0  0  0  0  0  0  0  0  0  0
   17.4223   17.9663   22.2323 H   0  0  0  0  0  0  0  0  0  0  0  0
   17.5322   19.5863   21.5189 H   0  0  0  0  0  0  0  0  0  0  0  0
   18.8751   19.2177   23.2214 C   0  0  0  0  0  0  0  0  0  0  0  0
   18.2397   19.1600   24.1169 H   0  0  0  0  0  0  0  0  0  0  0  0
   20.0615   18.2481   23.3073 C   0  0  0  0  0  0  0  0  0  0  0  0
   20.9099   18.6766   23.8573 H   0  0  0  0  0  0  0  0  0  0  0  0
   19.7430   17.3412   23.8381 H   0  0  0  0  0  0  0  0  0  0  0  0
   19.3627   20.5377   23.0303 O   0  0  0  0  0  0  0  0  0  0  0  0
   19.9111   20.4919   22.2202 H   0  0  0  0  0  0  0  0  0  0  0  0
  1  2  1  0  0  0  0
  1  3  1  0  0  0  0
  1  4  1  0  0  0  0
  4  5  1  0  0  0  0
  4  6  1  0  0  0  0
  4  7  1  0  0  0  0
  7  8  1  0  0  0  0
  7  9  1  0  0  0  0
  7 10  1  0  0  0  0
 10 11  1  0  0  0  0
  1 12  1  0  0  0  0
 10 12  1  0  0  0  0
 12 13  1  0  0  0  0
 12 14  1  0  0  0  0
 10 15  1  0  0  0  0
 15 16  1  0  0  0  0
M  END
> <VConfSearch Rank>
96

> <Conf_Id>
20

> <Delta U+W>
-0.483

> <U+W>
2.527

> <U>
4.508

> <W>
-1.981

> <W(PB)>
-3.712

> <W(SA)>
1.732

> <Valence>
14.705

> <Coulomb>
-10.687

> <VdW>
0.490

> <VdW6>
-3.745

> <VdW12>
4.235

> <Bond>
0.068

> <Angle>
3.901

> <Pdih>
10.737

> <Idih>
0.000

> <Tether>
0.000

$$$$
VeraChem MOL file


 16 16  0  0  0  0  0  0  0  0999 V2000     
   20.7282   19.0018   22.5039 C   0  0  0  0  0  0  0  0  0  0  0  0
   20.9778   18.7231   23.5372 H   0  0  0  0  0  0  0  0  0  0  0  0
   21.6219   19.4416   22.0407 H   0  0  0  0  0  0  0  0  0  0  0  0
   19.5340   19.9659   22.5054 C   0  0  0  0  0  0  0  0  0  0  0  0
   19.5867   20.6952   23.3252 H   0  0  0  0  0  0  0  0  0  0  0  0
   19.5035   20.5180   21.5557 H   0  0  0  0  0  0  0  0  0  0  0  0
   18.3018   19.0492   22.6149 C   0  0  0  0  0  0  0  0  0  0  0  0
   17.4243   19.4974   22.1313 H   0  0  0  0  0  0  0  0  0  0  0  0
   18.0593   18.8918   23.6747 H   0  0  0  0  0  0  0  0  0  0  0  0
   18.6941   17.7121   21.9517 C   0  0  0  0  0  0  0  0  0  0  0  0
   18.1974   17.6163   20.9752 H   0  0  0  0  0  0  0  0  0  0  0  0
   20.2218   17.7622   21.7435 C   0  0  0  0  0  0  0  0  0  0  0  0
   20.7196   16.8457   22.0874 H   0  0  0  0  0  0  0  0  0  0  0  0
   20.4336   17.8751   20.6723 H   0  0  0  0  0  0  0  0  0  0  0  0
   18.3501   16.6235   22.8006 O   0  0  0  0  0  0  0  0  0  0  0  0
   17.3755   16.6467   22.9066 H   0  0  0  0  0  0  0  0  0  0  0  0
  1  2  1  0  0  0  0
  1  3  1  0  0  0  0
  1  4  1  0  0  0  0
  4  5  1  0  0  0  0
  4  6  1  0  0  0  0
  4  7  1  0  0  0  0
  7  8  1  0  0  0  0
  7  9  1  0  0  0  0
  7 10  1  0  0  0  0
 10 11  1  0  0  0  0
  1 12  1  0  0  0  0
 10 12  1  0  0  0  0
 12 13  1  0  0  0  0
 12 14  1  0  0  0  0
 10 15  1  0  0  0  0
 15 16  1  0  0  0  0
M  END
> <VConfSearch Rank>
97

> <Conf_Id>
59

> <Delta U+W>
0.000

> <U+W>
3.010

> <U>
5.843

> <W>
-2.833

> <W(PB)>
-4.568

> <W(SA)>
1.735

> <Valence>
13.789

> <Coulomb>
-8.574

> <VdW>
0.628

> <VdW6>
-3.284

> <VdW12>
3.912

> <Bond>
0.054

> <Angle>
4.034

> <Pdih>
9.702

> <Idih>
0.000

> <Tether>
0.000

$$$$
VeraChem MOL file


 16 16  0  0  0  0  0  0  0  0999 V2000     
   19.2363   19.8952   22.8990 C   0  0  0  0  0  0  0  0  0  0  0  0
   18.6742   20.3385   23.7323 H   0  0  0  0  0  0  0  0  0  0  0  0
   19.9067   20.6636   22.4895 H   0  0  0  0  0  0  0  0  0  0  0  0
   18.3166   19.3679   21.7892 C   0  0  0  0  0  0  0  0  0  0  0  0
   17.4353   18.8887   22.2380 H   0  0  0  0  0  0  0  0  0  0  0  0
   17.9702   20.1649   21.1173 H   0  0  0  0  0  0  0  0  0  0  0  0
   19.1628   18.3093   21.0581 C   0  0  0  0  0  0  0  0  0  0  0  0
   19.7205   18.7840   20.2404 H   0  0  0  0  0  0  0  0  0  0  0  0
   18.5351   17.5214   20.6208 H   0  0  0  0  0  0  0  0  0  0  0  0
   20.1629   17.7542   22.0932 C   0  0  0  0  0  0  0  0  0  0  0  0
   21.1800   17.8016   21.6774 H   0  0  0  0  0  0  0  0  0  0  0  0
   20.0562   18.6665   23.3334 C   0  0  0  0  0  0  0  0  0  0  0  0
   19.5289   18.1461   24.1445 H   0  0  0  0  0  0  0  0  0  0  0  0
   21.0466   18.9569   23.7070 H   0  0  0  0  0  0  0  0  0  0  0  0
   19.8214   16.4166   22.4369 O   0  0  0  0  0  0  0  0  0  0  0  0
   20.4788   16.1204   23.1014 H   0  0  0  0  0  0  0  0  0  0  0  0
  1  2  1  0  0  0  0
  1  3  1  0  0  0  0
  1  4  1  0  0  0  0
  4  5  1  0  0  0  0
  4  6  1  0  0  0  0
  4  7  1  0  0  0  0
  7  8  1  0  0  0  0
  7  9  1  0  0  0  0
  7 10  1  0  0  0  0
 10 11  1  0  0  0  0
  1 12  1  0  0  0  0
 10 12  1  0  0  0  0
 12 13  1  0  0  0  0
 12 14  1  0  0  0  0
 10 15  1  0  0  0  0
 15 16  1  0  0  0  0
M  END
> <VConfSearch Rank>
98

> <Conf_Id>
33

> <Delta U+W>
0.015

> <U+W>
3.025

> <U>
5.843

> <W>
-2.819

> <W(PB)>
-4.568

> <W(SA)>
1.750

> <Valence>
13.789

> <Coulomb>
-8.574

> <VdW>
0.628

> <VdW6>
-3.284

> <VdW12>
3.913

> <Bond>
0.054

> <Angle>
4.033

> <Pdih>
9.702

> <Idih>
0.000

> <Tether>
0.000

$$$$
VeraChem MOL file


 16 16  0  0  0  0  0  0  0  0999 V2000     
   18.3330   18.1212   22.9314 C   0  0  0  0  0  0  0  0  0  0  0  0
   17.8507   18.8435   23.6044 H   0  0  0  0  0  0  0  0  0  0  0  0
   17.7776   17.1761   23.0035 H   0  0  0  0  0  0  0  0  0  0  0  0
   19.8144   17.9410   23.3292 C   0  0  0  0  0  0  0  0  0  0  0  0
   20.0486   18.5752   24.1952 H   0  0  0  0  0  0  0  0  0  0  0  0
   20.0340   16.9014   23.6083 H   0  0  0  0  0  0  0  0  0  0  0  0
   20.6516   18.3762   22.1076 C   0  0  0  0  0  0  0  0  0  0  0  0
   20.9452   17.4900   21.5296 H   0  0  0  0  0  0  0  0  0  0  0  0
   21.5693   18.9043   22.3988 H   0  0  0  0  0  0  0  0  0  0  0  0
   19.7270   19.2482   21.2475 C   0  0  0  0  0  0  0  0  0  0  0  0
   20.0079   19.2102   20.1851 H   0  0  0  0  0  0  0  0  0  0  0  0
   18.3307   18.6573   21.4841 C   0  0  0  0  0  0  0  0  0  0  0  0
   17.5334   19.3931   21.3140 H   0  0  0  0  0  0  0  0  0  0  0  0
   18.1724   17.8256   20.7850 H   0  0  0  0  0  0  0  0  0  0  0  0
   19.7585   20.5827   21.7323 O   0  0  0  0  0  0  0  0  0  0  0  0
   19.4976   20.5179   22.6741 H   0  0  0  0  0  0  0  0  0  0  0  0
  1  2  1  0  0  0  0
  1  3  1  0  0  0  0
  1  4  1  0  0  0  0
  4  5  1  0  0  0  0
  4  6  1  0  0  0  0
  4  7  1  0  0  0  0
  7  8  1  0  0  0  0
  7  9  1  0  0  0  0
  7 10  1  0  0  0  0
 10 11  1  0  0  0  0
  1 12  1  0  0  0  0
 10 12  1  0  0  0  0
 12 13  1  0  0  0  0
 12 14  1  0  0  0  0
 10 15  1  0  0  0  0
 15 16  1  0  0  0  0
M  END
> <VConfSearch Rank>
99

> <Conf_Id>
20

> <Delta U+W>
-0.483

> <U+W>
2.527

> <U>
4.508

> <W>
-1.981

> <W(PB)>
-3.712

> <W(SA)>
1.732

> <Valence>
14.705

> <Coulomb>
-10.687

> <VdW>
0.490

> <VdW6>
-3.745

> <VdW12>
4.235

> <Bond>
0.068

> <Angle>
3.901

> <Pdih>
10.737

> <Idih>
0.000

> <Tether>
0.000

$$$$
VeraChem MOL file


 16 16  0  0  0  0  0  0  0  0999 V2000     
   18.6566   18.1880   23.5338 C   0  0  0  0  0  0  0  0  0  0  0  0
   17.6126   18.4846   23.3612 H   0  0  0  0  0  0  0  0  0  0  0  0
   18.7172   17.6971   24.5146 H   0  0  0  0  0  0  0  0  0  0  0  0
   19.5643   19.4220   23.4388 C   0  0  0  0  0  0  0  0  0  0  0  0
   19.1114   20.3105   23.8994 H   0  0  0  0  0  0  0  0  0  0  0  0
   20.5175   19.2197   23.9469 H   0  0  0  0  0  0  0  0  0  0  0  0
   19.8070   19.6038   21.9293 C   0  0  0  0  0  0  0  0  0  0  0  0
   20.7805   20.0714   21.7330 H   0  0  0  0  0  0  0  0  0  0  0  0
   19.0286   20.2573   21.5124 H   0  0  0  0  0  0  0  0  0  0  0  0
   19.7166   18.1968   21.3017 C   0  0  0  0  0  0  0  0  0  0  0  0
   20.7208   17.8417   21.0276 H   0  0  0  0  0  0  0  0  0  0  0  0
   19.1287   17.2732   22.3886 C   0  0  0  0  0  0  0  0  0  0  0  0
   18.3103   16.6484   22.0067 H   0  0  0  0  0  0  0  0  0  0  0  0
   19.9177   16.6030   22.7539 H   0  0  0  0  0  0  0  0  0  0  0  0
   18.8630   18.2206   20.1639 O   0  0  0  0  0  0  0  0  0  0  0  0
   19.2770   18.8275   19.5144 H   0  0  0  0  0  0  0  0  0  0  0  0
  1  2  1  0  0  0  0
  1  3  1  0  0  0  0
  1  4  1  0  0  0  0
  4  5  1  0  0  0  0
  4  6  1  0  0  0  0
  4  7  1  0  0  0  0
  7  8  1  0  0  0  0
  7  9  1  0  0  0  0
  7 10  1  0  0  0  0
 10 11  1  0  0  0  0
  1 12  1  0  0  0  0
 10 12  1  0  0  0  0
 12 13  1  0  0  0  0
 12 14  1  0  0  0  0
 10 15  1  0  0  0  0
 15 16  1  0  0  0  0
M  END
> <VConfSearch Rank>
100

> <Conf_Id>
59

> <Delta U+W>
0.000

> <U+W>
3.010

> <U>
5.843

> <W>
-2.833

> <W(PB)>
-4.568

> <W(SA)>
1.735

> <Valence>
13.789

> <Coulomb>
-8.574

> <VdW>
0.628

> <VdW6>
-3.284

> <VdW12>
3.912

> <Bond>
0.054

> <Angle>
4.034

> <Pdih>
9.702

> <Idih>
0.000

> <Tether>
0.000

$$$$
VeraChem MOL file


 16 16  0  0  0  0  0  0  0  0999 V2000     
   19.4330   19.2399   21.0015 C   0  0  0  0  0  0  0  0  0  0  0  0
   20.1278   19.4984   20.1909 H   0  0  0  0  0  0  0  0  0  0  0  0
   18.4094   19.4339   20.6518 H   0  0  0  0  0  0  0  0  0  0  0  0
   19.7027   20.0442   22.2806 C   0  0  0  0  0  0  0  0  0  0  0  0
   20.7867   20.1440   22.4312 H   0  0  0  0  0  0  0  0  0  0  0  0
   19.2663   21.0516   22.2426 H   0  0  0  0  0  0  0  0  0  0  0  0
   19.1022   19.1859   23.4092 C   0  0  0  0  0  0  0  0  0  0  0  0
   18.0526   19.4665   23.5669 H   0  0  0  0  0  0  0  0  0  0  0  0
   19.6340   19.3362   24.3582 H   0  0  0  0  0  0  0  0  0  0  0  0
   19.1645   17.7213   22.9287 C   0  0  0  0  0  0  0  0  0  0  0  0
   18.1718   17.2606   23.0376 H   0  0  0  0  0  0  0  0  0  0  0  0
   19.5640   17.7694   21.4388 C   0  0  0  0  0  0  0  0  0  0  0  0
   20.6059   17.4446   21.3133 H   0  0  0  0  0  0  0  0  0  0  0  0
   18.9302   17.1119   20.8298 H   0  0  0  0  0  0  0  0  0  0  0  0
   20.1384   17.0012   23.6750 O   0  0  0  0  0  0  0  0  0  0  0  0
   20.1432   16.0864   23.3221 H   0  0  0  0  0  0  0  0  0  0  0  0
  1  2  1  0  0  0  0
  1  3  1  0  0  0  0
  1  4  1  0  0  0  0
  4  5  1  0  0  0  0
  4  6  1  0  0  0  0
  4  7  1  0  0  0  0
  7  8  1  0  0  0  0
  7  9  1  0  0  0  0
  7 10  1  0  0  0  0
 10 11  1  0  0  0  0
  1 12  1  0  0  0  0
 10 12  1  0  0  0  0
 12 13  1  0  0  0  0
 12 14  1  0  0  0  0
 10 15  1  0  0  0  0
 15 16  1  0  0  0  0
M  END
> <VConfSearch Rank>
101

> <Conf_Id>
33

> <Delta U+W>
0.015

> <U+W>
3.025

> <U>
5.843

> <W>
-2.819

> <W(PB)>
-4.568

> <W(SA)>
1.750

> <Valence>
13.789

> <Coulomb>
-8.574

> <VdW>
0.628

> <VdW6>
-3.284

> <VdW12>
3.913

> <Bond>
0.054

> <Angle>
4.033

> <Pdih>
9.702

> <Idih>
0.000

> <Tether>
0.000

$$$$
VeraChem MOL file


 16 16  0  0  0  0  0  0  0  0999 V2000     
   20.5669   18.4290   22.8405 C   0  0  0  0  0  0  0  0  0  0  0  0
   20.5120   18.1143   23.8918 H   0  0  0  0  0  0  0  0  0  0  0  0
   21.6288   18.4870   22.5650 H   0  0  0  0  0  0  0  0  0  0  0  0
   19.8587   19.7897   22.6620 C   0  0  0  0  0  0  0  0  0  0  0  0
   19.4621   20.1341   23.6270 H   0  0  0  0  0  0  0  0  0  0  0  0
   20.5500   20.5593   22.2920 H   0  0  0  0  0  0  0  0  0  0  0  0
   18.7046   19.5549   21.6643 C   0  0  0  0  0  0  0  0  0  0  0  0
   19.0228   19.8565   20.6576 H   0  0  0  0  0  0  0  0  0  0  0  0
   17.8088   20.1365   21.9198 H   0  0  0  0  0  0  0  0  0  0  0  0
   18.4379   18.0437   21.6708 C   0  0  0  0  0  0  0  0  0  0  0  0
   18.0227   17.7020   20.7117 H   0  0  0  0  0  0  0  0  0  0  0  0
   19.8149   17.4233   21.9431 C   0  0  0  0  0  0  0  0  0  0  0  0
   19.7395   16.4294   22.4041 H   0  0  0  0  0  0  0  0  0  0  0  0
   20.3496   17.3101   20.9908 H   0  0  0  0  0  0  0  0  0  0  0  0
   17.5623   17.7278   22.7433 O   0  0  0  0  0  0  0  0  0  0  0  0
   18.0101   18.0661   23.5459 H   0  0  0  0  0  0  0  0  0  0  0  0
  1  2  1  0  0  0  0
  1  3  1  0  0  0  0
  1  4  1  0  0  0  0
  4  5  1  0  0  0  0
  4  6  1  0  0  0  0
  4  7  1  0  0  0  0
  7  8  1  0  0  0  0
  7  9  1  0  0  0  0
  7 10  1  0  0  0  0
 10 11  1  0  0  0  0
  1 12  1  0  0  0  0
 10 12  1  0  0  0  0
 12 13  1  0  0  0  0
 12 14  1  0  0  0  0
 10 15  1  0  0  0  0
 15 16  1  0  0  0  0
M  END
> <VConfSearch Rank>
102

> <Conf_Id>
20

> <Delta U+W>
-0.483

> <U+W>
2.527

> <U>
4.508

> <W>
-1.981

> <W(PB)>
-3.712

> <W(SA)>
1.732

> <Valence>
14.705

> <Coulomb>
-10.687

> <VdW>
0.490

> <VdW6>
-3.745

> <VdW12>
4.235

> <Bond>
0.068

> <Angle>
3.901

> <Pdih>
10.737

> <Idih>
0.000

> <Tether>
0.000

$$$$
VeraChem MOL file


 16 16  0  0  0  0  0  0  0  0999 V2000     
   18.6357   17.5331   21.5730 C   0  0  0  0  0  0  0  0  0  0  0  0
   18.0480   18.0857   20.8268 H   0  0  0  0  0  0  0  0  0  0  0  0
   18.4760   16.4586   21.4097 H   0  0  0  0  0  0  0  0  0  0  0  0
   18.2259   17.9788   22.9833 C   0  0  0  0  0  0  0  0  0  0  0  0
   17.1426   18.1372   23.0734 H   0  0  0  0  0  0  0  0  0  0  0  0
   18.5232   17.2136   23.7139 H   0  0  0  0  0  0  0  0  0  0  0  0
   19.0288   19.2700   23.2254 C   0  0  0  0  0  0  0  0  0  0  0  0
   19.2455   19.4137   24.2919 H   0  0  0  0  0  0  0  0  0  0  0  0
   18.4421   20.1326   22.8811 H   0  0  0  0  0  0  0  0  0  0  0  0
   20.3238   19.1388   22.3962 C   0  0  0  0  0  0  0  0  0  0  0  0
   21.1779   18.9423   23.0606 H   0  0  0  0  0  0  0  0  0  0  0  0
   20.1189   17.9308   21.4589 C   0  0  0  0  0  0  0  0  0  0  0  0
   20.3982   18.1564   20.4211 H   0  0  0  0  0  0  0  0  0  0  0  0
   20.7504   17.1008   21.8015 H   0  0  0  0  0  0  0  0  0  0  0  0
   20.5403   20.3202   21.6338 O   0  0  0  0  0  0  0  0  0  0  0  0
   20.6523   21.0528   22.2759 H   0  0  0  0  0  0  0  0  0  0  0  0
  1  2  1  0  0  0  0
  1  3  1  0  0  0  0
  1  4  1  0  0  0  0
  4  5  1  0  0  0  0
  4  6  1  0  0  0  0
  4  7  1  0  0  0  0
  7  8  1  0  0  0  0
  7  9  1  0  0  0  0
  7 10  1  0  0  0  0
 10 11  1  0  0  0  0
  1 12  1  0  0  0  0
 10 12  1  0  0  0  0
 12 13  1  0  0  0  0
 12 14  1  0  0  0  0
 10 15  1  0  0  0  0
 15 16  1  0  0  0  0
M  END
> <VConfSearch Rank>
103

> <Conf_Id>
59

> <Delta U+W>
0.000

> <U+W>
3.010

> <U>
5.843

> <W>
-2.833

> <W(PB)>
-4.568

> <W(SA)>
1.735

> <Valence>
13.789

> <Coulomb>
-8.574

> <VdW>
0.628

> <VdW6>
-3.284

> <VdW12>
3.912

> <Bond>
0.054

> <Angle>
4.034

> <Pdih>
9.702

> <Idih>
0.000

> <Tether>
0.000

$$$$
VeraChem MOL file


 16 16  0  0  0  0  0  0  0  0999 V2000     
   20.7299   18.2530   22.8388 C   0  0  0  0  0  0  0  0  0  0  0  0
   21.1976   18.0769   23.8171 H   0  0  0  0  0  0  0  0  0  0  0  0
   21.4446   17.9574   22.0581 H   0  0  0  0  0  0  0  0  0  0  0  0
   20.3262   19.7205   22.6404 C   0  0  0  0  0  0  0  0  0  0  0  0
   19.9179   20.1203   23.5790 H   0  0  0  0  0  0  0  0  0  0  0  0
   21.1729   20.3512   22.3371 H   0  0  0  0  0  0  0  0  0  0  0  0
   19.2165   19.6739   21.5739 C   0  0  0  0  0  0  0  0  0  0  0  0
   19.6622   19.7596   20.5743 H   0  0  0  0  0  0  0  0  0  0  0  0
   18.5050   20.5017   21.6942 H   0  0  0  0  0  0  0  0  0  0  0  0
   18.5378   18.2948   21.7053 C   0  0  0  0  0  0  0  0  0  0  0  0
   18.5027   17.8115   20.7180 H   0  0  0  0  0  0  0  0  0  0  0  0
   19.4167   17.4678   22.6672 C   0  0  0  0  0  0  0  0  0  0  0  0
   18.9229   17.3680   23.6434 H   0  0  0  0  0  0  0  0  0  0  0  0
   19.6011   16.4581   22.2780 H   0  0  0  0  0  0  0  0  0  0  0  0
   17.2280   18.4417   22.2408 O   0  0  0  0  0  0  0  0  0  0  0  0
   16.8507   17.5394   22.3127 H   0  0  0  0  0  0  0  0  0  0  0  0
  1  2  1  0  0  0  0
  1  3  1  0  0  0  0
  1  4  1  0  0  0  0
  4  5  1  0  0  0  0
  4  6  1  0  0  0  0
  4  7  1  0  0  0  0
  7  8  1  0  0  0  0
  7  9  1  0  0  0  0
  7 10  1  0  0  0  0
 10 11  1  0  0  0  0
  1 12  1  0  0  0  0
 10 12  1  0  0  0  0
 12 13  1  0  0  0  0
 12 14  1  0  0  0  0
 10 15  1  0  0  0  0
 15 16  1  0  0  0  0
M  END
> <VConfSearch Rank>
104

> <Conf_Id>
33

> <Delta U+W>
0.015

> <U+W>
3.025

> <U>
5.843

> <W>
-2.819

> <W(PB)>
-4.568

> <W(SA)>
1.750

> <Valence>
13.789

> <Coulomb>
-8.574

> <VdW>
0.628

> <VdW6>
-3.284

> <VdW12>
3.913

> <Bond>
0.054

> <Angle>
4.033

> <Pdih>
9.702

> <Idih>
0.000

> <Tether>
0.000

$$$$
VeraChem MOL file


 16 16  0  0  0  0  0  0  0  0999 V2000     
   19.3302   18.7933   20.9356 C   0  0  0  0  0  0  0  0  0  0  0  0
   18.3303   18.6682   20.4978 H   0  0  0  0  0  0  0  0  0  0  0  0
   20.0191   19.0598   20.1223 H   0  0  0  0  0  0  0  0  0  0  0  0
   19.7618   17.4890   21.6409 C   0  0  0  0  0  0  0  0  0  0  0  0
   18.9712   16.7323   21.5436 H   0  0  0  0  0  0  0  0  0  0  0  0
   20.6771   17.0737   21.1972 H   0  0  0  0  0  0  0  0  0  0  0  0
   19.9781   17.8460   23.1269 C   0  0  0  0  0  0  0  0  0  0  0  0
   21.0467   18.0193   23.3107 H   0  0  0  0  0  0  0  0  0  0  0  0
   19.6492   17.0430   23.8000 H   0  0  0  0  0  0  0  0  0  0  0  0
   19.2128   19.1545   23.3656 C   0  0  0  0  0  0  0  0  0  0  0  0
   19.6608   19.7426   24.1795 H   0  0  0  0  0  0  0  0  0  0  0  0
   19.3032   19.8898   22.0216 C   0  0  0  0  0  0  0  0  0  0  0  0
   18.4758   20.5975   21.8782 H   0  0  0  0  0  0  0  0  0  0  0  0
   20.2405   20.4607   21.9899 H   0  0  0  0  0  0  0  0  0  0  0  0
   17.8527   18.8566   23.6451 O   0  0  0  0  0  0  0  0  0  0  0  0
   17.5421   18.3375   22.8749 H   0  0  0  0  0  0  0  0  0  0  0  0
  1  2  1  0  0  0  0
  1  3  1  0  0  0  0
  1  4  1  0  0  0  0
  4  5  1  0  0  0  0
  4  6  1  0  0  0  0
  4  7  1  0  0  0  0
  7  8  1  0  0  0  0
  7  9  1  0  0  0  0
  7 10  1  0  0  0  0
 10 11  1  0  0  0  0
  1 12  1  0  0  0  0
 10 12  1  0  0  0  0
 12 13  1  0  0  0  0
 12 14  1  0  0  0  0
 10 15  1  0  0  0  0
 15 16  1  0  0  0  0
M  END
> <VConfSearch Rank>
105

> <Conf_Id>
20

> <Delta U+W>
-0.483

> <U+W>
2.527

> <U>
4.508

> <W>
-1.981

> <W(PB)>
-3.712

> <W(SA)>
1.732

> <Valence>
14.705

> <Coulomb>
-10.687

> <VdW>
0.490

> <VdW6>
-3.745

> <VdW12>
4.235

> <Bond>
0.068

> <Angle>
3.901

> <Pdih>
10.737

> <Idih>
0.000

> <Tether>
0.000

$$$$
VeraChem MOL file


 16 16  0  0  0  0  0  0  0  0999 V2000     
   20.0482   18.6589   23.5895 C   0  0  0  0  0  0  0  0  0  0  0  0
   20.6936   19.5429   23.4917 H   0  0  0  0  0  0  0  0  0  0  0  0
   20.1524   18.2680   24.6108 H   0  0  0  0  0  0  0  0  0  0  0  0
   20.4302   17.6228   22.5235 C   0  0  0  0  0  0  0  0  0  0  0  0
   21.5167   17.5563   22.3756 H   0  0  0  0  0  0  0  0  0  0  0  0
   20.0630   16.6313   22.8233 H   0  0  0  0  0  0  0  0  0  0  0  0
   19.6936   18.0892   21.2545 C   0  0  0  0  0  0  0  0  0  0  0  0
   19.4461   17.2432   20.6005 H   0  0  0  0  0  0  0  0  0  0  0  0
   20.3407   18.7742   20.6899 H   0  0  0  0  0  0  0  0  0  0  0  0
   18.4249   18.8256   21.7340 C   0  0  0  0  0  0  0  0  0  0  0  0
   17.5370   18.2023   21.5531 H   0  0  0  0  0  0  0  0  0  0  0  0
   18.5953   19.0412   23.2520 C   0  0  0  0  0  0  0  0  0  0  0  0
   18.3678   20.0721   23.5547 H   0  0  0  0  0  0  0  0  0  0  0  0
   17.9054   18.3763   23.7877 H   0  0  0  0  0  0  0  0  0  0  0  0
   18.3042   20.0784   21.0710 O   0  0  0  0  0  0  0  0  0  0  0  0
   18.2104   19.8827   20.1147 H   0  0  0  0  0  0  0  0  0  0  0  0
  1  2  1  0  0  0  0
  1  3  1  0  0  0  0
  1  4  1  0  0  0  0
  4  5  1  0  0  0  0
  4  6  1  0  0  0  0
  4  7  1  0  0  0  0
  7  8  1  0  0  0  0
  7  9  1  0  0  0  0
  7 10  1  0  0  0  0
 10 11  1  0  0  0  0
  1 12  1  0  0  0  0
 10 12  1  0  0  0  0
 12 13  1  0  0  0  0
 12 14  1  0  0  0  0
 10 15  1  0  0  0  0
 15 16  1  0  0  0  0
M  END
> <VConfSearch Rank>
106

> <Conf_Id>
59

> <Delta U+W>
0.000

> <U+W>
3.010

> <U>
5.843

> <W>
-2.833

> <W(PB)>
-4.568

> <W(SA)>
1.735

> <Valence>
13.789

> <Coulomb>
-8.574

> <VdW>
0.628

> <VdW6>
-3.284

> <VdW12>
3.912

> <Bond>
0.054

> <Angle>
4.034

> <Pdih>
9.702

> <Idih>
0.000

> <Tether>
0.000

$$$$
VeraChem MOL file


 16 16  0  0  0  0  0  0  0  0999 V2000     
   18.8518   17.4738   22.9282 C   0  0  0  0  0  0  0  0  0  0  0  0
   18.4040   17.1985   23.8927 H   0  0  0  0  0  0  0  0  0  0  0  0
   18.6828   16.6483   22.2228 H   0  0  0  0  0  0  0  0  0  0  0  0
   20.3563   17.7556   23.0421 C   0  0  0  0  0  0  0  0  0  0  0  0
   20.5590   18.3027   23.9734 H   0  0  0  0  0  0  0  0  0  0  0  0
   20.9564   16.8356   23.0459 H   0  0  0  0  0  0  0  0  0  0  0  0
   20.6716   18.6580   21.8349 C   0  0  0  0  0  0  0  0  0  0  0  0
   20.9491   18.0370   20.9732 H   0  0  0  0  0  0  0  0  0  0  0  0
   21.5118   19.3337   22.0437 H   0  0  0  0  0  0  0  0  0  0  0  0
   19.3728   19.4228   21.5062 C   0  0  0  0  0  0  0  0  0  0  0  0
   19.1438   19.3071   20.4368 H   0  0  0  0  0  0  0  0  0  0  0  0
   18.2602   18.7758   22.3577 C   0  0  0  0  0  0  0  0  0  0  0  0
   17.9793   19.4406   23.1859 H   0  0  0  0  0  0  0  0  0  0  0  0
   17.3590   18.5797   21.7624 H   0  0  0  0  0  0  0  0  0  0  0  0
   19.5138   20.7973   21.8451 O   0  0  0  0  0  0  0  0  0  0  0  0
   18.6610   21.2295   21.6273 H   0  0  0  0  0  0  0  0  0  0  0  0
  1  2  1  0  0  0  0
  1  3  1  0  0  0  0
  1  4  1  0  0  0  0
  4  5  1  0  0  0  0
  4  6  1  0  0  0  0
  4  7  1  0  0  0  0
  7  8  1  0  0  0  0
  7  9  1  0  0  0  0
  7 10  1  0  0  0  0
 10 11  1  0  0  0  0
  1 12  1  0  0  0  0
 10 12  1  0  0  0  0
 12 13  1  0  0  0  0
 12 14  1  0  0  0  0
 10 15  1  0  0  0  0
 15 16  1  0  0  0  0
M  END
> <VConfSearch Rank>
107

> <Conf_Id>
33

> <Delta U+W>
0.015

> <U+W>
3.025

> <U>
5.843

> <W>
-2.819

> <W(PB)>
-4.568

> <W(SA)>
1.750

> <Valence>
13.789

> <Coulomb>
-8.574

> <VdW>
0.628

> <VdW6>
-3.284

> <VdW12>
3.913

> <Bond>
0.054

> <Angle>
4.033

> <Pdih>
9.702

> <Idih>
0.000

> <Tether>
0.000

$$$$
VeraChem MOL file


 16 16  0  0  0  0  0  0  0  0999 V2000     
   19.8168   17.5004   21.6574 C   0  0  0  0  0  0  0  0  0  0  0  0
   20.2174   16.7424   22.3446 H   0  0  0  0  0  0  0  0  0  0  0  0
   19.8839   17.0952   20.6384 H   0  0  0  0  0  0  0  0  0  0  0  0
   20.6168   18.8137   21.8000 C   0  0  0  0  0  0  0  0  0  0  0  0
   21.4051   18.6910   22.5555 H   0  0  0  0  0  0  0  0  0  0  0  0
   21.1014   19.0960   20.8553 H   0  0  0  0  0  0  0  0  0  0  0  0
   19.6095   19.8929   22.2509 C   0  0  0  0  0  0  0  0  0  0  0  0
   19.2745   20.4694   21.3785 H   0  0  0  0  0  0  0  0  0  0  0  0
   20.0488   20.5983   22.9689 H   0  0  0  0  0  0  0  0  0  0  0  0
   18.4106   19.1364   22.8385 C   0  0  0  0  0  0  0  0  0  0  0  0
   17.4802   19.7140   22.7404 H   0  0  0  0  0  0  0  0  0  0  0  0
   18.3560   17.8356   22.0263 C   0  0  0  0  0  0  0  0  0  0  0  0
   17.8686   17.0208   22.5781 H   0  0  0  0  0  0  0  0  0  0  0  0
   17.7773   18.0115   21.1099 H   0  0  0  0  0  0  0  0  0  0  0  0
   18.6740   18.8274   24.1994 O   0  0  0  0  0  0  0  0  0  0  0  0
   19.5108   18.3188   24.1878 H   0  0  0  0  0  0  0  0  0  0  0  0
  1  2  1  0  0  0  0
  1  3  1  0  0  0  0
  1  4  1  0  0  0  0
  4  5  1  0  0  0  0
  4  6  1  0  0  0  0
  4  7  1  0  0  0  0
  7  8  1  0  0  0  0
  7  9  1  0  0  0  0
  7 10  1  0  0  0  0
 10 11  1  0  0  0  0
  1 12  1  0  0  0  0
 10 12  1  0  0  0  0
 12 13  1  0  0  0  0
 12 14  1  0  0  0  0
 10 15  1  0  0  0  0
 15 16  1  0  0  0  0
M  END
> <VConfSearch Rank>
108

> <Conf_Id>
20

> <Delta U+W>
-0.483

> <U+W>
2.527

> <U>
4.508

> <W>
-1.981

> <W(PB)>
-3.712

> <W(SA)>
1.732

> <Valence>
14.705

> <Coulomb>
-10.687

> <VdW>
0.490

> <VdW6>
-3.745

> <VdW12>
4.235

> <Bond>
0.068

> <Angle>
3.901

> <Pdih>
10.737

> <Idih>
0.000

> <Tether>
0.000

$$$$
VeraChem MOL file


 16 16  0  0  0  0  0  0  0  0999 V2000     
   19.4445   19.0408   23.6814 C   0  0  0  0  0  0  0  0  0  0  0  0
   18.4031   19.2078   23.9901 H   0  0  0  0  0  0  0  0  0  0  0  0
   20.0962   19.2538   24.5396 H   0  0  0  0  0  0  0  0  0  0  0  0
   19.7684   19.9212   22.4666 C   0  0  0  0  0  0  0  0  0  0  0  0
   19.3210   20.9215   22.5442 H   0  0  0  0  0  0  0  0  0  0  0  0
   20.8572   20.0381   22.3746 H   0  0  0  0  0  0  0  0  0  0  0  0
   19.2260   19.1284   21.2634 C   0  0  0  0  0  0  0  0  0  0  0  0
   19.7999   19.3400   20.3520 H   0  0  0  0  0  0  0  0  0  0  0  0
   18.1820   19.4167   21.0793 H   0  0  0  0  0  0  0  0  0  0  0  0
   19.3083   17.6372   21.6523 C   0  0  0  0  0  0  0  0  0  0  0  0
   20.1316   17.1514   21.1085 H   0  0  0  0  0  0  0  0  0  0  0  0
   19.6046   17.5987   23.1657 C   0  0  0  0  0  0  0  0  0  0  0  0
   18.9461   16.9023   23.7018 H   0  0  0  0  0  0  0  0  0  0  0  0
   20.6390   17.2651   23.3196 H   0  0  0  0  0  0  0  0  0  0  0  0
   18.0719   16.9893   21.3777 O   0  0  0  0  0  0  0  0  0  0  0  0
   17.9298   17.0533   20.4096 H   0  0  0  0  0  0  0  0  0  0  0  0
  1  2  1  0  0  0  0
  1  3  1  0  0  0  0
  1  4  1  0  0  0  0
  4  5  1  0  0  0  0
  4  6  1  0  0  0  0
  4  7  1  0  0  0  0
  7  8  1  0  0  0  0
  7  9  1  0  0  0  0
  7 10  1  0  0  0  0
 10 11  1  0  0  0  0
  1 12  1  0  0  0  0
 10 12  1  0  0  0  0
 12 13  1  0  0  0  0
 12 14  1  0  0  0  0
 10 15  1  0  0  0  0
 15 16  1  0  0  0  0
M  END
> <VConfSearch Rank>
109

> <Conf_Id>
59

> <Delta U+W>
0.000

> <U+W>
3.010

> <U>
5.843

> <W>
-2.833

> <W(PB)>
-4.568

> <W(SA)>
1.735

> <Valence>
13.789

> <Coulomb>
-8.574

> <VdW>
0.628

> <VdW6>
-3.284

> <VdW12>
3.912

> <Bond>
0.054

> <Angle>
4.034

> <Pdih>
9.702

> <Idih>
0.000

> <Tether>
0.000

$$$$
VeraChem MOL file


 16 16  0  0  0  0  0  0  0  0999 V2000     
   18.7261   18.5838   23.5304 C   0  0  0  0  0  0  0  0  0  0  0  0
   17.8825   18.0502   23.9891 H   0  0  0  0  0  0  0  0  0  0  0  0
   19.2067   19.1974   24.3052 H   0  0  0  0  0  0  0  0  0  0  0  0
   18.2862   19.4778   22.3630 C   0  0  0  0  0  0  0  0  0  0  0  0
   17.5139   18.9625   21.7752 H   0  0  0  0  0  0  0  0  0  0  0  0
   17.8765   20.4391   22.7019 H   0  0  0  0  0  0  0  0  0  0  0  0
   19.5560   19.6486   21.5089 C   0  0  0  0  0  0  0  0  0  0  0  0
   20.1139   20.5303   21.8503 H   0  0  0  0  0  0  0  0  0  0  0  0
   19.3129   19.7975   20.4483 H   0  0  0  0  0  0  0  0  0  0  0  0
   20.4152   18.3887   21.7414 C   0  0  0  0  0  0  0  0  0  0  0  0
   21.4365   18.6909   22.0154 H   0  0  0  0  0  0  0  0  0  0  0  0
   19.7588   17.6246   22.9106 C   0  0  0  0  0  0  0  0  0  0  0  0
   19.2443   16.7282   22.5384 H   0  0  0  0  0  0  0  0  0  0  0  0
   20.5028   17.3035   23.6509 H   0  0  0  0  0  0  0  0  0  0  0  0
   20.4264   17.5798   20.5711 O   0  0  0  0  0  0  0  0  0  0  0  0
   20.9739   16.7931   20.7782 H   0  0  0  0  0  0  0  0  0  0  0  0
  1  2  1  0  0  0  0
  1  3  1  0  0  0  0
  1  4  1  0  0  0  0
  4  5  1  0  0  0  0
  4  6  1  0  0  0  0
  4  7  1  0  0  0  0
  7  8  1  0  0  0  0
  7  9  1  0  0  0  0
  7 10  1  0  0  0  0
 10 11  1  0  0  0  0
  1 12  1  0  0  0  0
 10 12  1  0  0  0  0
 12 13  1  0  0  0  0
 12 14  1  0  0  0  0
 10 15  1  0  0  0  0
 15 16  1  0  0  0  0
M  END
> <VConfSearch Rank>
110

> <Conf_Id>
33

> <Delta U+W>
0.015

> <U+W>
3.025

> <U>
5.843

> <W>
-2.819

> <W(PB)>
-4.568

> <W(SA)>
1.750

> <Valence>
13.789

> <Coulomb>
-8.574

> <VdW>
0.628

> <VdW6>
-3.284

> <VdW12>
3.913

> <Bond>
0.054

> <Angle>
4.033

> <Pdih>
9.702

> <Idih>
0.000

> <Tether>
0.000

$$$$
VeraChem MOL file


 16 16  0  0  0  0  0  0  0  0999 V2000     
   19.0160   18.7192   20.9768 C   0  0  0  0  0  0  0  0  0  0  0  0
   18.0158   19.1476   20.8245 H   0  0  0  0  0  0  0  0  0  0  0  0
   19.4454   18.5148   19.9864 H   0  0  0  0  0  0  0  0  0  0  0  0
   18.9131   17.4342   21.8272 C   0  0  0  0  0  0  0  0  0  0  0  0
   17.8630   17.2401   22.0856 H   0  0  0  0  0  0  0  0  0  0  0  0
   19.2896   16.5578   21.2820 H   0  0  0  0  0  0  0  0  0  0  0  0
   19.7387   17.6886   23.1063 C   0  0  0  0  0  0  0  0  0  0  0  0
   20.7381   17.2486   22.9914 H   0  0  0  0  0  0  0  0  0  0  0  0
   19.2766   17.2403   23.9960 H   0  0  0  0  0  0  0  0  0  0  0  0
   19.8759   19.2122   23.2277 C   0  0  0  0  0  0  0  0  0  0  0  0
   20.7926   19.4943   23.7653 H   0  0  0  0  0  0  0  0  0  0  0  0
   19.9009   19.7013   21.7733 C   0  0  0  0  0  0  0  0  0  0  0  0
   19.5592   20.7406   21.6781 H   0  0  0  0  0  0  0  0  0  0  0  0
   20.9319   19.6530   21.3986 H   0  0  0  0  0  0  0  0  0  0  0  0
   18.7264   19.7350   23.8773 O   0  0  0  0  0  0  0  0  0  0  0  0
   17.9685   19.4361   23.3337 H   0  0  0  0  0  0  0  0  0  0  0  0
  1  2  1  0  0  0  0
  1  3  1  0  0  0  0
  1  4  1  0  0  0  0
  4  5  1  0  0  0  0
  4  6  1  0  0  0  0
  4  7  1  0  0  0  0
  7  8  1  0  0  0  0
  7  9  1  0  0  0  0
  7 10  1  0  0  0  0
 10 11  1  0  0  0  0
  1 12  1  0  0  0  0
 10 12  1  0  0  0  0
 12 13  1  0  0  0  0
 12 14  1  0  0  0  0
 10 15  1  0  0  0  0
 15 16  1  0  0  0  0
M  END
> <VConfSearch Rank>
111

> <Conf_Id>
20

> <Delta U+W>
-0.483

> <U+W>
2.527

> <U>
4.508

> <W>
-1.981

> <W(PB)>
-3.712

> <W(SA)>
1.732

> <Valence>
14.705

> <Coulomb>
-10.687

> <VdW>
0.490

> <VdW6>
-3.745

> <VdW12>
4.235

> <Bond>
0.068

> <Angle>
3.901

> <Pdih>
10.737

> <Idih>
0.000

> <Tether>
0.000

$$$$
VeraChem MOL file


 16 16  0  0  0  0  0  0  0  0999 V2000     
   18.0205   18.5358   21.7448 C   0  0  0  0  0  0  0  0  0  0  0  0
   17.3492   18.3805   22.6009 H   0  0  0  0  0  0  0  0  0  0  0  0
   17.4051   18.6664   20.8443 H   0  0  0  0  0  0  0  0  0  0  0  0
   18.9871   17.3494   21.6273 C   0  0  0  0  0  0  0  0  0  0  0  0
   18.4970   16.3887   21.8361 H   0  0  0  0  0  0  0  0  0  0  0  0
   19.4018   17.3097   20.6104 H   0  0  0  0  0  0  0  0  0  0  0  0
   20.1074   17.6668   22.6346 C   0  0  0  0  0  0  0  0  0  0  0  0
   21.0646   17.2309   22.3206 H   0  0  0  0  0  0  0  0  0  0  0  0
   19.8475   17.2407   23.6132 H   0  0  0  0  0  0  0  0  0  0  0  0
   20.1874   19.2053   22.7256 C   0  0  0  0  0  0  0  0  0  0  0  0
   21.0846   19.5671   22.2025 H   0  0  0  0  0  0  0  0  0  0  0  0
   18.9299   19.7485   22.0159 C   0  0  0  0  0  0  0  0  0  0  0  0
   18.4148   20.5154   22.6096 H   0  0  0  0  0  0  0  0  0  0  0  0
   19.2263   20.2070   21.0636 H   0  0  0  0  0  0  0  0  0  0  0  0
   20.1984   19.6167   24.0874 O   0  0  0  0  0  0  0  0  0  0  0  0
   21.0079   19.2365   24.4895 H   0  0  0  0  0  0  0  0  0  0  0  0
  1  2  1  0  0  0  0
  1  3  1  0  0  0  0
  1  4  1  0  0  0  0
  4  5  1  0  0  0  0
  4  6  1  0  0  0  0
  4  7  1  0  0  0  0
  7  8  1  0  0  0  0
  7  9  1  0  0  0  0
  7 10  1  0  0  0  0
 10 11  1  0  0  0  0
  1 12  1  0  0  0  0
 10 12  1  0  0  0  0
 12 13  1  0  0  0  0
 12 14  1  0  0  0  0
 10 15  1  0  0  0  0
 15 16  1  0  0  0  0
M  END
> <VConfSearch Rank>
112

> <Conf_Id>
59

> <Delta U+W>
0.000

> <U+W>
3.010

> <U>
5.843

> <W>
-2.833

> <W(PB)>
-4.568

> <W(SA)>
1.735

> <Valence>
13.789

> <Coulomb>
-8.574

> <VdW>
0.628

> <VdW6>
-3.284

> <VdW12>
3.912

> <Bond>
0.054

> <Angle>
4.034

> <Pdih>
9.702

> <Idih>
0.000

> <Tether>
0.000

$$$$
VeraChem MOL file


 16 16  0  0  0  0  0  0  0  0999 V2000     
   18.8762   17.4428   21.6913 C   0  0  0  0  0  0  0  0  0  0  0  0
   18.1163   17.1794   20.9430 H   0  0  0  0  0  0  0  0  0  0  0  0
   19.4150   16.5268   21.9709 H   0  0  0  0  0  0  0  0  0  0  0  0
   18.2644   18.0847   22.9440 C   0  0  0  0  0  0  0  0  0  0  0  0
   17.4532   18.7655   22.6502 H   0  0  0  0  0  0  0  0  0  0  0  0
   17.8537   17.3399   23.6391 H   0  0  0  0  0  0  0  0  0  0  0  0
   19.4178   18.8944   23.5644 C   0  0  0  0  0  0  0  0  0  0  0  0
   19.9711   18.2642   24.2727 H   0  0  0  0  0  0  0  0  0  0  0  0
   19.0472   19.7693   24.1151 H   0  0  0  0  0  0  0  0  0  0  0  0
   20.3541   19.2871   22.4029 C   0  0  0  0  0  0  0  0  0  0  0  0
   21.3856   19.0008   22.6551 H   0  0  0  0  0  0  0  0  0  0  0  0
   19.8724   18.4944   21.1695 C   0  0  0  0  0  0  0  0  0  0  0  0
   19.3594   19.1624   20.4642 H   0  0  0  0  0  0  0  0  0  0  0  0
   20.7108   18.0244   20.6394 H   0  0  0  0  0  0  0  0  0  0  0  0
   20.2663   20.6849   22.1531 O   0  0  0  0  0  0  0  0  0  0  0  0
   20.8690   20.8750   21.4034 H   0  0  0  0  0  0  0  0  0  0  0  0
  1  2  1  0  0  0  0
  1  3  1  0  0  0  0
  1  4  1  0  0  0  0
  4  5  1  0  0  0  0
  4  6  1  0  0  0  0
  4  7  1  0  0  0  0
  7  8  1  0  0  0  0
  7  9  1  0  0  0  0
  7 10  1  0  0  0  0
 10 11  1  0  0  0  0
  1 12  1  0  0  0  0
 10 12  1  0  0  0  0
 12 13  1  0  0  0  0
 12 14  1  0  0  0  0
 10 15  1  0  0  0  0
 15 16  1  0  0  0  0
M  END
> <VConfSearch Rank>
113

> <Conf_Id>
33

> <Delta U+W>
0.015

> <U+W>
3.025

> <U>
5.843

> <W>
-2.819

> <W(PB)>
-4.568

> <W(SA)>
1.750

> <Valence>
13.789

> <Coulomb>
-8.574

> <VdW>
0.628

> <VdW6>
-3.284

> <VdW12>
3.913

> <Bond>
0.054

> <Angle>
4.033

> <Pdih>
9.702

> <Idih>
0.000

> <Tether>
0.000

$$$$
VeraChem MOL file


 16 16  0  0  0  0  0  0  0  0999 V2000     
   18.1746   18.5165   22.8304 C   0  0  0  0  0  0  0  0  0  0  0  0
   18.0787   17.6908   23.5489 H   0  0  0  0  0  0  0  0  0  0  0  0
   17.2158   19.0523   22.8085 H   0  0  0  0  0  0  0  0  0  0  0  0
   18.5467   17.9608   21.4383 C   0  0  0  0  0  0  0  0  0  0  0  0
   18.6298   16.8662   21.4829 H   0  0  0  0  0  0  0  0  0  0  0  0
   17.7829   18.2069   20.6879 H   0  0  0  0  0  0  0  0  0  0  0  0
   19.9093   18.5843   21.0681 C   0  0  0  0  0  0  0  0  0  0  0  0
   19.7500   19.4537   20.4165 H   0  0  0  0  0  0  0  0  0  0  0  0
   20.5578   17.8790   20.5315 H   0  0  0  0  0  0  0  0  0  0  0  0
   20.5325   19.0584   22.3879 C   0  0  0  0  0  0  0  0  0  0  0  0
   21.2149   19.9063   22.2316 H   0  0  0  0  0  0  0  0  0  0  0  0
   19.3258   19.4558   23.2486 C   0  0  0  0  0  0  0  0  0  0  0  0
   19.5432   19.3949   24.3233 H   0  0  0  0  0  0  0  0  0  0  0  0
   19.0525   20.4947   23.0213 H   0  0  0  0  0  0  0  0  0  0  0  0
   21.2081   17.9712   23.0032 O   0  0  0  0  0  0  0  0  0  0  0  0
   20.5293   17.2720   23.1010 H   0  0  0  0  0  0  0  0  0  0  0  0
  1  2  1  0  0  0  0
  1  3  1  0  0  0  0
  1  4  1  0  0  0  0
  4  5  1  0  0  0  0
  4  6  1  0  0  0  0
  4  7  1  0  0  0  0
  7  8  1  0  0  0  0
  7  9  1  0  0  0  0
  7 10  1  0  0  0  0
 10 11  1  0  0  0  0
  1 12  1  0  0  0  0
 10 12  1  0  0  0  0
 12 13  1  0  0  0  0
 12 14  1  0  0  0  0
 10 15  1  0  0  0  0
 15 16  1  0  0  0  0
M  END
> <VConfSearch Rank>
114

> <Conf_Id>
20

> <Delta U+W>
-0.483

> <U+W>
2.527

> <U>
4.508

> <W>
-1.981

> <W(PB)>
-3.712

> <W(SA)>
1.732

> <Valence>
14.705

> <Coulomb>
-10.687

> <VdW>
0.490

> <VdW6>
-3.745

> <VdW12>
4.235

> <Bond>
0.068

> <Angle>
3.901

> <Pdih>
10.737

> <Idih>
0.000

> <Tether>
0.000

$$$$
VeraChem MOL file


 16 16  0  0  0  0  0  0  0  0999 V2000     
   19.0444   17.1399   22.1907 C   0  0  0  0  0  0  0  0  0  0  0  0
   17.9813   17.1076   21.9141 H   0  0  0  0  0  0  0  0  0  0  0  0
   19.4286   16.1108   22.2012 H   0  0  0  0  0  0  0  0  0  0  0  0
   19.2015   17.8381   23.5485 C   0  0  0  0  0  0  0  0  0  0  0  0
   18.4080   17.5606   24.2556 H   0  0  0  0  0  0  0  0  0  0  0  0
   20.1689   17.5669   23.9938 H   0  0  0  0  0  0  0  0  0  0  0  0
   19.1863   19.3402   23.2108 C   0  0  0  0  0  0  0  0  0  0  0  0
   19.7742   19.9199   23.9341 H   0  0  0  0  0  0  0  0  0  0  0  0
   18.1522   19.7094   23.2433 H   0  0  0  0  0  0  0  0  0  0  0  0
   19.7561   19.4707   21.7825 C   0  0  0  0  0  0  0  0  0  0  0  0
   20.7745   19.8841   21.8198 H   0  0  0  0  0  0  0  0  0  0  0  0
   19.8071   18.0419   21.2029 C   0  0  0  0  0  0  0  0  0  0  0  0
   19.3803   17.9864   20.1926 H   0  0  0  0  0  0  0  0  0  0  0  0
   20.8541   17.7179   21.1411 H   0  0  0  0  0  0  0  0  0  0  0  0
   18.9080   20.2921   20.9887 O   0  0  0  0  0  0  0  0  0  0  0  0
   18.9041   21.1791   21.4068 H   0  0  0  0  0  0  0  0  0  0  0  0
  1  2  1  0  0  0  0
  1  3  1  0  0  0  0
  1  4  1  0  0  0  0
  4  5  1  0  0  0  0
  4  6  1  0  0  0  0
  4  7  1  0  0  0  0
  7  8  1  0  0  0  0
  7  9  1  0  0  0  0
  7 10  1  0  0  0  0
 10 11  1  0  0  0  0
  1 12  1  0  0  0  0
 10 12  1  0  0  0  0
 12 13  1  0  0  0  0
 12 14  1  0  0  0  0
 10 15  1  0  0  0  0
 15 16  1  0  0  0  0
M  END
> <VConfSearch Rank>
115

> <Conf_Id>
59

> <Delta U+W>
0.000

> <U+W>
3.010

> <U>
5.843

> <W>
-2.833

> <W(PB)>
-4.568

> <W(SA)>
1.735

> <Valence>
13.789

> <Coulomb>
-8.574

> <VdW>
0.628

> <VdW6>
-3.284

> <VdW12>
3.912

> <Bond>
0.054

> <Angle>
4.034

> <Pdih>
9.702

> <Idih>
0.000

> <Tether>
0.000

$$$$
VeraChem MOL file


 16 16  0  0  0  0  0  0  0  0999 V2000     
   18.4728   17.6665   22.7475 C   0  0  0  0  0  0  0  0  0  0  0  0
   17.5220   17.6516   23.2976 H   0  0  0  0  0  0  0  0  0  0  0  0
   18.6530   16.6597   22.3456 H   0  0  0  0  0  0  0  0  0  0  0  0
   19.6534   18.0877   23.6332 C   0  0  0  0  0  0  0  0  0  0  0  0
   19.3387   18.8982   24.3054 H   0  0  0  0  0  0  0  0  0  0  0  0
   20.0339   17.2599   24.2468 H   0  0  0  0  0  0  0  0  0  0  0  0
   20.7072   18.6184   22.6437 C   0  0  0  0  0  0  0  0  0  0  0  0
   21.3612   17.7960   22.3259 H   0  0  0  0  0  0  0  0  0  0  0  0
   21.3399   19.3900   23.1022 H   0  0  0  0  0  0  0  0  0  0  0  0
   19.9331   19.1476   21.4188 C   0  0  0  0  0  0  0  0  0  0  0  0
   20.3544   18.7056   20.5041 H   0  0  0  0  0  0  0  0  0  0  0  0
   18.4696   18.6927   21.5997 C   0  0  0  0  0  0  0  0  0  0  0  0
   17.8370   19.5467   21.8777 H   0  0  0  0  0  0  0  0  0  0  0  0
   18.0645   18.2598   20.6759 H   0  0  0  0  0  0  0  0  0  0  0  0
   20.0033   20.5677   21.3702 O   0  0  0  0  0  0  0  0  0  0  0  0
   19.4885   20.8480   20.5841 H   0  0  0  0  0  0  0  0  0  0  0  0
  1  2  1  0  0  0  0
  1  3  1  0  0  0  0
  1  4  1  0  0  0  0
  4  5  1  0  0  0  0
  4  6  1  0  0  0  0
  4  7  1  0  0  0  0
  7  8  1  0  0  0  0
  7  9  1  0  0  0  0
  7 10  1  0  0  0  0
 10 11  1  0  0  0  0
  1 12  1  0  0  0  0
 10 12  1  0  0  0  0
 12 13  1  0  0  0  0
 12 14  1  0  0  0  0
 10 15  1  0  0  0  0
 15 16  1  0  0  0  0
M  END
> <VConfSearch Rank>
116

> <Conf_Id>
33

> <Delta U+W>
0.015

> <U+W>
3.025

> <U>
5.843

> <W>
-2.819

> <W(PB)>
-4.568

> <W(SA)>
1.750

> <Valence>
13.789

> <Coulomb>
-8.574

> <VdW>
0.628

> <VdW6>
-3.284

> <VdW12>
3.913

> <Bond>
0.054

> <Angle>
4.033

> <Pdih>
9.702

> <Idih>
0.000

> <Tether>
0.000

$$$$
VeraChem MOL file


 16 16  0  0  0  0  0  0  0  0999 V2000     
   19.0105   18.3897   20.9928 C   0  0  0  0  0  0  0  0  0  0  0  0
   19.4645   17.4981   20.5388 H   0  0  0  0  0  0  0  0  0  0  0  0
   18.3477   18.8443   20.2438 H   0  0  0  0  0  0  0  0  0  0  0  0
   20.1153   19.3703   21.4431 C   0  0  0  0  0  0  0  0  0  0  0  0
   21.1040   18.9537   21.2061 H   0  0  0  0  0  0  0  0  0  0  0  0
   20.0299   20.3382   20.9304 H   0  0  0  0  0  0  0  0  0  0  0  0
   19.9583   19.5354   22.9697 C   0  0  0  0  0  0  0  0  0  0  0  0
   19.3897   20.4501   23.1832 H   0  0  0  0  0  0  0  0  0  0  0  0
   20.9266   19.6169   23.4814 H   0  0  0  0  0  0  0  0  0  0  0  0
   19.1487   18.3224   23.4475 C   0  0  0  0  0  0  0  0  0  0  0  0
   18.5748   18.5517   24.3569 H   0  0  0  0  0  0  0  0  0  0  0  0
   18.2265   18.0001   22.2640 C   0  0  0  0  0  0  0  0  0  0  0  0
   17.9147   16.9472   22.2544 H   0  0  0  0  0  0  0  0  0  0  0  0
   17.3208   18.6161   22.3397 H   0  0  0  0  0  0  0  0  0  0  0  0
   20.0287   17.2294   23.6659 O   0  0  0  0  0  0  0  0  0  0  0  0
   20.4912   17.1001   22.8123 H   0  0  0  0  0  0  0  0  0  0  0  0
  1  2  1  0  0  0  0
  1  3  1  0  0  0  0
  1  4  1  0  0  0  0
  4  5  1  0  0  0  0
  4  6  1  0  0  0  0
  4  7  1  0  0  0  0
  7  8  1  0  0  0  0
  7  9  1  0  0  0  0
  7 10  1  0  0  0  0
 10 11  1  0  0  0  0
  1 12  1  0  0  0  0
 10 12  1  0  0  0  0
 12 13  1  0  0  0  0
 12 14  1  0  0  0  0
 10 15  1  0  0  0  0
 15 16  1  0  0  0  0
M  END
> <VConfSearch Rank>
117

> <Conf_Id>
20

> <Delta U+W>
-0.483

> <U+W>
2.527

> <U>
4.508

> <W>
-1.981

> <W(PB)>
-3.712

> <W(SA)>
1.732

> <Valence>
14.705

> <Coulomb>
-10.687

> <VdW>
0.490

> <VdW6>
-3.745

> <VdW12>
4.235

> <Bond>
0.068

> <Angle>
3.901

> <Pdih>
10.737

> <Idih>
0.000

> <Tether>
0.000

$$$$
VeraChem MOL file


 16 16  0  0  0  0  0  0  0  0999 V2000     
   20.4685   19.4925   22.3161 C   0  0  0  0  0  0  0  0  0  0  0  0
   20.7813   19.5607   23.3674 H   0  0  0  0  0  0  0  0  0  0  0  0
   21.1511   20.1071   21.7135 H   0  0  0  0  0  0  0  0  0  0  0  0
   19.0062   19.9397   22.1844 C   0  0  0  0  0  0  0  0  0  0  0  0
   18.7742   20.8035   22.8223 H   0  0  0  0  0  0  0  0  0  0  0  0
   18.7967   20.2165   21.1417 H   0  0  0  0  0  0  0  0  0  0  0  0
   18.1883   18.6926   22.5667 C   0  0  0  0  0  0  0  0  0  0  0  0
   17.2179   18.6765   22.0539 H   0  0  0  0  0  0  0  0  0  0  0  0
   17.9980   18.7006   23.6487 H   0  0  0  0  0  0  0  0  0  0  0  0
   19.0521   17.4721   22.1847 C   0  0  0  0  0  0  0  0  0  0  0  0
   18.6437   16.9887   21.2852 H   0  0  0  0  0  0  0  0  0  0  0  0
   20.4615   18.0172   21.8749 C   0  0  0  0  0  0  0  0  0  0  0  0
   21.2507   17.4415   22.3766 H   0  0  0  0  0  0  0  0  0  0  0  0
   20.6395   17.9553   20.7934 H   0  0  0  0  0  0  0  0  0  0  0  0
   19.1091   16.5524   23.2687 O   0  0  0  0  0  0  0  0  0  0  0  0
   18.1906   16.2486   23.4283 H   0  0  0  0  0  0  0  0  0  0  0  0
  1  2  1  0  0  0  0
  1  3  1  0  0  0  0
  1  4  1  0  0  0  0
  4  5  1  0  0  0  0
  4  6  1  0  0  0  0
  4  7  1  0  0  0  0
  7  8  1  0  0  0  0
  7  9  1  0  0  0  0
  7 10  1  0  0  0  0
 10 11  1  0  0  0  0
  1 12  1  0  0  0  0
 10 12  1  0  0  0  0
 12 13  1  0  0  0  0
 12 14  1  0  0  0  0
 10 15  1  0  0  0  0
 15 16  1  0  0  0  0
M  END
> <VConfSearch Rank>
118

> <Conf_Id>
59

> <Delta U+W>
0.000

> <U+W>
3.010

> <U>
5.843

> <W>
-2.833

> <W(PB)>
-4.568

> <W(SA)>
1.735

> <Valence>
13.789

> <Coulomb>
-8.574

> <VdW>
0.628

> <VdW6>
-3.284

> <VdW12>
3.912

> <Bond>
0.054

> <Angle>
4.034

> <Pdih>
9.702

> <Idih>
0.000

> <Tether>
0.000

$$$$
VeraChem MOL file


 16 16  0  0  0  0  0  0  0  0999 V2000     
   19.2734   17.2518   21.8708 C   0  0  0  0  0  0  0  0  0  0  0  0
   19.3273   16.6504   20.9531 H   0  0  0  0  0  0  0  0  0  0  0  0
   19.1475   16.5687   22.7224 H   0  0  0  0  0  0  0  0  0  0  0  0
   18.1158   18.2592   21.8416 C   0  0  0  0  0  0  0  0  0  0  0  0
   18.0313   18.6940   20.8358 H   0  0  0  0  0  0  0  0  0  0  0  0
   17.1524   17.7989   22.0995 H   0  0  0  0  0  0  0  0  0  0  0  0
   18.5314   19.3527   22.8428 C   0  0  0  0  0  0  0  0  0  0  0  0
   18.1590   19.0970   23.8433 H   0  0  0  0  0  0  0  0  0  0  0  0
   18.1124   20.3306   22.5705 H   0  0  0  0  0  0  0  0  0  0  0  0
   20.0738   19.3630   22.8677 C   0  0  0  0  0  0  0  0  0  0  0  0
   20.4208   19.2966   23.9092 H   0  0  0  0  0  0  0  0  0  0  0  0
   20.5296   18.1174   22.0787 C   0  0  0  0  0  0  0  0  0  0  0  0
   20.9331   18.4130   21.1007 H   0  0  0  0  0  0  0  0  0  0  0  0
   21.3130   17.5653   22.6137 H   0  0  0  0  0  0  0  0  0  0  0  0
   20.5666   20.5446   22.2472 O   0  0  0  0  0  0  0  0  0  0  0  0
   21.5452   20.4928   22.2811 H   0  0  0  0  0  0  0  0  0  0  0  0
  1  2  1  0  0  0  0
  1  3  1  0  0  0  0
  1  4  1  0  0  0  0
  4  5  1  0  0  0  0
  4  6  1  0  0  0  0
  4  7  1  0  0  0  0
  7  8  1  0  0  0  0
  7  9  1  0  0  0  0
  7 10  1  0  0  0  0
 10 11  1  0  0  0  0
  1 12  1  0  0  0  0
 10 12  1  0  0  0  0
 12 13  1  0  0  0  0
 12 14  1  0  0  0  0
 10 15  1  0  0  0  0
 15 16  1  0  0  0  0
M  END
> <VConfSearch Rank>
119

> <Conf_Id>
33

> <Delta U+W>
0.015

> <U+W>
3.025

> <U>
5.843

> <W>
-2.819

> <W(PB)>
-4.568

> <W(SA)>
1.750

> <Valence>
13.789

> <Coulomb>
-8.574

> <VdW>
0.628

> <VdW6>
-3.284

> <VdW12>
3.913

> <Bond>
0.054

> <Angle>
4.033

> <Pdih>
9.702

> <Idih>
0.000

> <Tether>
0.000

$$$$
VeraChem MOL file


 16 16  0  0  0  0  0  0  0  0999 V2000     
   19.4605   17.3084   22.5468 C   0  0  0  0  0  0  0  0  0  0  0  0
   19.5898   16.6582   21.6706 H   0  0  0  0  0  0  0  0  0  0  0  0
   19.4540   16.6676   23.4392 H   0  0  0  0  0  0  0  0  0  0  0  0
   18.1484   18.1122   22.4153 C   0  0  0  0  0  0  0  0  0  0  0  0
   17.6422   17.8503   21.4760 H   0  0  0  0  0  0  0  0  0  0  0  0
   17.4560   17.8927   23.2396 H   0  0  0  0  0  0  0  0  0  0  0  0
   18.5475   19.6032   22.4082 C   0  0  0  0  0  0  0  0  0  0  0  0
   18.4243   20.0208   23.4163 H   0  0  0  0  0  0  0  0  0  0  0  0
   17.9279   20.1967   21.7228 H   0  0  0  0  0  0  0  0  0  0  0  0
   20.0343   19.6436   22.0305 C   0  0  0  0  0  0  0  0  0  0  0  0
   20.5343   20.5287   22.4494 H   0  0  0  0  0  0  0  0  0  0  0  0
   20.6030   18.3439   22.6155 C   0  0  0  0  0  0  0  0  0  0  0  0
   21.5027   18.0069   22.0834 H   0  0  0  0  0  0  0  0  0  0  0  0
   20.8797   18.5159   23.6640 H   0  0  0  0  0  0  0  0  0  0  0  0
   20.1585   19.6136   20.6161 O   0  0  0  0  0  0  0  0  0  0  0  0
   19.6888   18.8010   20.3363 H   0  0  0  0  0  0  0  0  0  0  0  0
  1  2  1  0  0  0  0
  1  3  1  0  0  0  0
  1  4  1  0  0  0  0
  4  5  1  0  0  0  0
  4  6  1  0  0  0  0
  4  7  1  0  0  0  0
  7  8  1  0  0  0  0
  7  9  1  0  0  0  0
  7 10  1  0  0  0  0
 10 11  1  0  0  0  0
  1 12  1  0  0  0  0
 10 12  1  0  0  0  0
 12 13  1  0  0  0  0
 12 14  1  0  0  0  0
 10 15  1  0  0  0  0
 15 16  1  0  0  0  0
M  END
> <VConfSearch Rank>
120

> <Conf_Id>
20

> <Delta U+W>
-0.483

> <U+W>
2.527

> <U>
4.508

> <W>
-1.981

> <W(PB)>
-3.712

> <W(SA)>
1.732

> <Valence>
14.705

> <Coulomb>
-10.687

> <VdW>
0.490

> <VdW6>
-3.745

> <VdW12>
4.235

> <Bond>
0.068

> <Angle>
3.901

> <Pdih>
10.737

> <Idih>
0.000

> <Tether>
0.000

$$$$
VeraChem MOL file


 16 16  0  0  0  0  0  0  0  0999 V2000     
   19.1306   19.9885   22.2467 C   0  0  0  0  0  0  0  0  0  0  0  0
   20.0973   20.4158   21.9460 H   0  0  0  0  0  0  0  0  0  0  0  0
   18.3989   20.8052   22.3127 H   0  0  0  0  0  0  0  0  0  0  0  0
   19.2914   19.2368   23.5752 C   0  0  0  0  0  0  0  0  0  0  0  0
   19.9565   19.7615   24.2745 H   0  0  0  0  0  0  0  0  0  0  0  0
   18.3099   19.1211   24.0557 H   0  0  0  0  0  0  0  0  0  0  0  0
   19.8390   17.8559   23.1701 C   0  0  0  0  0  0  0  0  0  0  0  0
   19.5312   17.0781   23.8808 H   0  0  0  0  0  0  0  0  0  0  0  0
   20.9370   17.8891   23.1609 H   0  0  0  0  0  0  0  0  0  0  0  0
   19.3005   17.5735   21.7517 C   0  0  0  0  0  0  0  0  0  0  0  0
   18.5047   16.8157   21.7952 H   0  0  0  0  0  0  0  0  0  0  0  0
   18.7105   18.9032   21.2383 C   0  0  0  0  0  0  0  0  0  0  0  0
   19.0480   19.1439   20.2214 H   0  0  0  0  0  0  0  0  0  0  0  0
   17.6158   18.8243   21.2166 H   0  0  0  0  0  0  0  0  0  0  0  0
   20.3577   17.1452   20.9015 O   0  0  0  0  0  0  0  0  0  0  0  0
   20.7004   16.3076   21.2791 H   0  0  0  0  0  0  0  0  0  0  0  0
  1  2  1  0  0  0  0
  1  3  1  0  0  0  0
  1  4  1  0  0  0  0
  4  5  1  0  0  0  0
  4  6  1  0  0  0  0
  4  7  1  0  0  0  0
  7  8  1  0  0  0  0
  7  9  1  0  0  0  0
  7 10  1  0  0  0  0
 10 11  1  0  0  0  0
  1 12  1  0  0  0  0
 10 12  1  0  0  0  0
 12 13  1  0  0  0  0
 12 14  1  0  0  0  0
 10 15  1  0  0  0  0
 15 16  1  0  0  0  0
M  END
> <VConfSearch Rank>
121

> <Conf_Id>
59

> <Delta U+W>
0.000

> <U+W>
3.010

> <U>
5.843

> <W>
-2.833

> <W(PB)>
-4.568

> <W(SA)>
1.735

> <Valence>
13.789

> <Coulomb>
-8.574

> <VdW>
0.628

> <VdW6>
-3.284

> <VdW12>
3.912

> <Bond>
0.054

> <Angle>
4.034

> <Pdih>
9.702

> <Idih>
0.000

> <Tether>
0.000

$$$$
VeraChem MOL file


 16 16  0  0  0  0  0  0  0  0999 V2000     
   19.6887   19.2013   21.0049 C   0  0  0  0  0  0  0  0  0  0  0  0
   19.5091   20.1474   20.4763 H   0  0  0  0  0  0  0  0  0  0  0  0
   20.3361   18.5740   20.3765 H   0  0  0  0  0  0  0  0  0  0  0  0
   18.3869   18.4502   21.3164 C   0  0  0  0  0  0  0  0  0  0  0  0
   17.6117   19.1673   21.6204 H   0  0  0  0  0  0  0  0  0  0  0  0
   18.0124   17.8840   20.4528 H   0  0  0  0  0  0  0  0  0  0  0  0
   18.7426   17.5400   22.5064 C   0  0  0  0  0  0  0  0  0  0  0  0
   19.1018   16.5714   22.1349 H   0  0  0  0  0  0  0  0  0  0  0  0
   17.8696   17.3497   23.1449 H   0  0  0  0  0  0  0  0  0  0  0  0
   19.8850   18.2409   23.2701 C   0  0  0  0  0  0  0  0  0  0  0  0
   20.7127   17.5316   23.4168 H   0  0  0  0  0  0  0  0  0  0  0  0
   20.3465   19.4146   22.3806 C   0  0  0  0  0  0  0  0  0  0  0  0
   20.0046   20.3694   22.8026 H   0  0  0  0  0  0  0  0  0  0  0  0
   21.4405   19.4540   22.3002 H   0  0  0  0  0  0  0  0  0  0  0  0
   19.4125   18.7286   24.5202 O   0  0  0  0  0  0  0  0  0  0  0  0
   20.1720   19.1714   24.9546 H   0  0  0  0  0  0  0  0  0  0  0  0
  1  2  1  0  0  0  0
  1  3  1  0  0  0  0
  1  4  1  0  0  0  0
  4  5  1  0  0  0  0
  4  6  1  0  0  0  0
  4  7  1  0  0  0  0
  7  8  1  0  0  0  0
  7  9  1  0  0  0  0
  7 10  1  0  0  0  0
 10 11  1  0  0  0  0
  1 12  1  0  0  0  0
 10 12  1  0  0  0  0
 12 13  1  0  0  0  0
 12 14  1  0  0  0  0
 10 15  1  0  0  0  0
 15 16  1  0  0  0  0
M  END
> <VConfSearch Rank>
122

> <Conf_Id>
33

> <Delta U+W>
0.015

> <U+W>
3.025

> <U>
5.843

> <W>
-2.819

> <W(PB)>
-4.568

> <W(SA)>
1.750

> <Valence>
13.789

> <Coulomb>
-8.574

> <VdW>
0.628

> <VdW6>
-3.284

> <VdW12>
3.913

> <Bond>
0.054

> <Angle>
4.033

> <Pdih>
9.702

> <Idih>
0.000

> <Tether>
0.000

$$$$
VeraChem MOL file


 16 16  0  0  0  0  0  0  0  0999 V2000     
   20.2764   17.8397   21.6380 C   0  0  0  0  0  0  0  0  0  0  0  0
   20.1790   16.7672   21.8555 H   0  0  0  0  0  0  0  0  0  0  0  0
   21.1089   17.9624   20.9317 H   0  0  0  0  0  0  0  0  0  0  0  0
   20.5228   18.6208   22.9473 C   0  0  0  0  0  0  0  0  0  0  0  0
   20.5457   17.9261   23.7983 H   0  0  0  0  0  0  0  0  0  0  0  0
   21.4838   19.1528   22.9255 H   0  0  0  0  0  0  0  0  0  0  0  0
   19.3455   19.6078   23.0963 C   0  0  0  0  0  0  0  0  0  0  0  0
   19.6474   20.5972   22.7279 H   0  0  0  0  0  0  0  0  0  0  0  0
   19.0285   19.7229   24.1414 H   0  0  0  0  0  0  0  0  0  0  0  0
   18.2208   19.0657   22.2041 C   0  0  0  0  0  0  0  0  0  0  0  0
   17.5634   19.8716   21.8473 H   0  0  0  0  0  0  0  0  0  0  0  0
   18.9601   18.3850   21.0444 C   0  0  0  0  0  0  0  0  0  0  0  0
   18.3582   17.5967   20.5728 H   0  0  0  0  0  0  0  0  0  0  0  0
   19.1874   19.1362   20.2765 H   0  0  0  0  0  0  0  0  0  0  0  0
   17.4815   18.0902   22.9243 O   0  0  0  0  0  0  0  0  0  0  0  0
   18.1421   17.4214   23.1988 H   0  0  0  0  0  0  0  0  0  0  0  0
  1  2  1  0  0  0  0
  1  3  1  0  0  0  0
  1  4  1  0  0  0  0
  4  5  1  0  0  0  0
  4  6  1  0  0  0  0
  4  7  1  0  0  0  0
  7  8  1  0  0  0  0
  7  9  1  0  0  0  0
  7 10  1  0  0  0  0
 10 11  1  0  0  0  0
  1 12  1  0  0  0  0
 10 12  1  0  0  0  0
 12 13  1  0  0  0  0
 12 14  1  0  0  0  0
 10 15  1  0  0  0  0
 15 16  1  0  0  0  0
M  END
> <VConfSearch Rank>
123

> <Conf_Id>
20

> <Delta U+W>
-0.483

> <U+W>
2.527

> <U>
4.508

> <W>
-1.981

> <W(PB)>
-3.712

> <W(SA)>
1.732

> <Valence>
14.705

> <Coulomb>
-10.687

> <VdW>
0.490

> <VdW6>
-3.745

> <VdW12>
4.235

> <Bond>
0.068

> <Angle>
3.901

> <Pdih>
10.737

> <Idih>
0.000

> <Tether>
0.000

$$$$
VeraChem MOL file


 16 16  0  0  0  0  0  0  0  0999 V2000     
   20.0901   17.9943   23.4386 C   0  0  0  0  0  0  0  0  0  0  0  0
   19.4192   18.1112   24.3011 H   0  0  0  0  0  0  0  0  0  0  0  0
   20.9909   17.4619   23.7730 H   0  0  0  0  0  0  0  0  0  0  0  0
   20.4104   19.3732   22.8455 C   0  0  0  0  0  0  0  0  0  0  0  0
   20.5609   20.1369   23.6207 H   0  0  0  0  0  0  0  0  0  0  0  0
   21.3262   19.3120   22.2412 H   0  0  0  0  0  0  0  0  0  0  0  0
   19.2074   19.6886   21.9378 C   0  0  0  0  0  0  0  0  0  0  0  0
   19.4970   20.3327   21.0975 H   0  0  0  0  0  0  0  0  0  0  0  0
   18.4416   20.2183   22.5207 H   0  0  0  0  0  0  0  0  0  0  0  0
   18.6629   18.3297   21.4496 C   0  0  0  0  0  0  0  0  0  0  0  0
   18.9269   18.1761   20.3930 H   0  0  0  0  0  0  0  0  0  0  0  0
   19.3533   17.2507   22.3093 C   0  0  0  0  0  0  0  0  0  0  0  0
   18.6408   16.5157   22.7069 H   0  0  0  0  0  0  0  0  0  0  0  0
   20.0798   16.7097   21.6892 H   0  0  0  0  0  0  0  0  0  0  0  0
   17.2529   18.2724   21.6297 O   0  0  0  0  0  0  0  0  0  0  0  0
   16.8692   18.9822   21.0725 H   0  0  0  0  0  0  0  0  0  0  0  0
  1  2  1  0  0  0  0
  1  3  1  0  0  0  0
  1  4  1  0  0  0  0
  4  5  1  0  0  0  0
  4  6  1  0  0  0  0
  4  7  1  0  0  0  0
  7  8  1  0  0  0  0
  7  9  1  0  0  0  0
  7 10  1  0  0  0  0
 10 11  1  0  0  0  0
  1 12  1  0  0  0  0
 10 12  1  0  0  0  0
 12 13  1  0  0  0  0
 12 14  1  0  0  0  0
 10 15  1  0  0  0  0
 15 16  1  0  0  0  0
M  END
> <VConfSearch Rank>
124

> <Conf_Id>
59

> <Delta U+W>
0.000

> <U+W>
3.010

> <U>
5.843

> <W>
-2.833

> <W(PB)>
-4.568

> <W(SA)>
1.735

> <Valence>
13.789

> <Coulomb>
-8.574

> <VdW>
0.628

> <VdW6>
-3.284

> <VdW12>
3.912

> <Bond>
0.054

> <Angle>
4.034

> <Pdih>
9.702

> <Idih>
0.000

> <Tether>
0.000

$$$$
VeraChem MOL file


 16 16  0  0  0  0  0  0  0  0999 V2000     
   18.8113   18.8957   23.5453 C   0  0  0  0  0  0  0  0  0  0  0  0
   18.0257   18.4810   24.1915 H   0  0  0  0  0  0  0  0  0  0  0  0
   19.3125   19.7071   24.0912 H   0  0  0  0  0  0  0  0  0  0  0  0
   18.2541   19.4326   22.2198 C   0  0  0  0  0  0  0  0  0  0  0  0
   17.4697   18.7577   21.8497 H   0  0  0  0  0  0  0  0  0  0  0  0
   17.8229   20.4377   22.3223 H   0  0  0  0  0  0  0  0  0  0  0  0
   19.4555   19.4040   21.2570 C   0  0  0  0  0  0  0  0  0  0  0  0
   19.9926   20.3599   21.3096 H   0  0  0  0  0  0  0  0  0  0  0  0
   19.1364   19.2572   20.2165 H   0  0  0  0  0  0  0  0  0  0  0  0
   20.3863   18.2763   21.7487 C   0  0  0  0  0  0  0  0  0  0  0  0
   21.4081   18.6689   21.8546 H   0  0  0  0  0  0  0  0  0  0  0  0
   19.8448   17.8347   23.1247 C   0  0  0  0  0  0  0  0  0  0  0  0
   19.3496   16.8575   23.0432 H   0  0  0  0  0  0  0  0  0  0  0  0
   20.6502   17.7438   23.8649 H   0  0  0  0  0  0  0  0  0  0  0  0
   20.3583   17.1846   20.8368 O   0  0  0  0  0  0  0  0  0  0  0  0
   20.9546   16.4974   21.2025 H   0  0  0  0  0  0  0  0  0  0  0  0
  1  2  1  0  0  0  0
  1  3  1  0  0  0  0
  1  4  1  0  0  0  0
  4  5  1  0  0  0  0
  4  6  1  0  0  0  0
  4  7  1  0  0  0  0
  7  8  1  0  0  0  0
  7  9  1  0  0  0  0
  7 10  1  0  0  0  0
 10 11  1  0  0  0  0
  1 12  1  0  0  0  0
 10 12  1  0  0  0  0
 12 13  1  0  0  0  0
 12 14  1  0  0  0  0
 10 15  1  0  0  0  0
 15 16  1  0  0  0  0
M  END
> <VConfSearch Rank>
125

> <Conf_Id>
33

> <Delta U+W>
0.015

> <U+W>
3.025

> <U>
5.843

> <W>
-2.819

> <W(PB)>
-4.568

> <W(SA)>
1.750

> <Valence>
13.789

> <Coulomb>
-8.574

> <VdW>
0.628

> <VdW6>
-3.284

> <VdW12>
3.913

> <Bond>
0.054

> <Angle>
4.033

> <Pdih>
9.702

> <Idih>
0.000

> <Tether>
0.000

$$$$
VeraChem MOL file


 16 16  0  0  0  0  0  0  0  0999 V2000     
   19.4853   19.7558   22.9371 C   0  0  0  0  0  0  0  0  0  0  0  0
   20.5187   20.0979   23.0867 H   0  0  0  0  0  0  0  0  0  0  0  0
   18.8186   20.4988   23.3959 H   0  0  0  0  0  0  0  0  0  0  0  0
   19.2980   18.3587   23.5679 C   0  0  0  0  0  0  0  0  0  0  0  0
   20.2405   18.0250   24.0236 H   0  0  0  0  0  0  0  0  0  0  0  0
   18.5326   18.3706   24.3559 H   0  0  0  0  0  0  0  0  0  0  0  0
   18.8963   17.4099   22.4186 C   0  0  0  0  0  0  0  0  0  0  0  0
   17.8050   17.2897   22.4066 H   0  0  0  0  0  0  0  0  0  0  0  0
   19.3412   16.4118   22.5280 H   0  0  0  0  0  0  0  0  0  0  0  0
   19.3355   18.1031   21.1219 C   0  0  0  0  0  0  0  0  0  0  0  0
   18.7089   17.8023   20.2699 H   0  0  0  0  0  0  0  0  0  0  0  0
   19.1885   19.5991   21.4306 C   0  0  0  0  0  0  0  0  0  0  0  0
   19.8489   20.2189   20.8095 H   0  0  0  0  0  0  0  0  0  0  0  0
   18.1539   19.9053   21.2267 H   0  0  0  0  0  0  0  0  0  0  0  0
   20.7026   17.8089   20.8741 O   0  0  0  0  0  0  0  0  0  0  0  0
   21.1771   18.1079   21.6769 H   0  0  0  0  0  0  0  0  0  0  0  0
  1  2  1  0  0  0  0
  1  3  1  0  0  0  0
  1  4  1  0  0  0  0
  4  5  1  0  0  0  0
  4  6  1  0  0  0  0
  4  7  1  0  0  0  0
  7  8  1  0  0  0  0
  7  9  1  0  0  0  0
  7 10  1  0  0  0  0
 10 11  1  0  0  0  0
  1 12  1  0  0  0  0
 10 12  1  0  0  0  0
 12 13  1  0  0  0  0
 12 14  1  0  0  0  0
 10 15  1  0  0  0  0
 15 16  1  0  0  0  0
M  END
> <VConfSearch Rank>
126

> <Conf_Id>
20

> <Delta U+W>
-0.483

> <U+W>
2.527

> <U>
4.508

> <W>
-1.981

> <W(PB)>
-3.712

> <W(SA)>
1.732

> <Valence>
14.705

> <Coulomb>
-10.687

> <VdW>
0.490

> <VdW6>
-3.745

> <VdW12>
4.235

> <Bond>
0.068

> <Angle>
3.901

> <Pdih>
10.737

> <Idih>
0.000

> <Tether>
0.000

$$$$
VeraChem MOL file


 16 16  0  0  0  0  0  0  0  0999 V2000     
   20.5328   19.3841   22.1022 C   0  0  0  0  0  0  0  0  0  0  0  0
   20.3059   20.3325   22.6090 H   0  0  0  0  0  0  0  0  0  0  0  0
   21.5555   19.4420   21.7056 H   0  0  0  0  0  0  0  0  0  0  0  0
   19.4919   19.1258   21.0042 C   0  0  0  0  0  0  0  0  0  0  0  0
   19.2187   20.0422   20.4634 H   0  0  0  0  0  0  0  0  0  0  0  0
   19.8919   18.4046   20.2780 H   0  0  0  0  0  0  0  0  0  0  0  0
   18.2953   18.5061   21.7489 C   0  0  0  0  0  0  0  0  0  0  0  0
   17.7270   17.8272   21.1001 H   0  0  0  0  0  0  0  0  0  0  0  0
   17.6174   19.3061   22.0764 H   0  0  0  0  0  0  0  0  0  0  0  0
   18.8793   17.7664   22.9710 C   0  0  0  0  0  0  0  0  0  0  0  0
   18.8436   16.6797   22.8055 H   0  0  0  0  0  0  0  0  0  0  0  0
   20.3503   18.2159   23.0887 C   0  0  0  0  0  0  0  0  0  0  0  0
   20.6165   18.5069   24.1136 H   0  0  0  0  0  0  0  0  0  0  0  0
   21.0035   17.3828   22.7981 H   0  0  0  0  0  0  0  0  0  0  0  0
   18.1624   18.1204   24.1477 O   0  0  0  0  0  0  0  0  0  0  0  0
   17.2377   17.8229   24.0139 H   0  0  0  0  0  0  0  0  0  0  0  0
  1  2  1  0  0  0  0
  1  3  1  0  0  0  0
  1  4  1  0  0  0  0
  4  5  1  0  0  0  0
  4  6  1  0  0  0  0
  4  7  1  0  0  0  0
  7  8  1  0  0  0  0
  7  9  1  0  0  0  0
  7 10  1  0  0  0  0
 10 11  1  0  0  0  0
  1 12  1  0  0  0  0
 10 12  1  0  0  0  0
 12 13  1  0  0  0  0
 12 14  1  0  0  0  0
 10 15  1  0  0  0  0
 15 16  1  0  0  0  0
M  END
> <VConfSearch Rank>
127

> <Conf_Id>
59

> <Delta U+W>
0.000

> <U+W>
3.010

> <U>
5.843

> <W>
-2.833

> <W(PB)>
-4.568

> <W(SA)>
1.735

> <Valence>
13.789

> <Coulomb>
-8.574

> <VdW>
0.628

> <VdW6>
-3.284

> <VdW12>
3.912

> <Bond>
0.054

> <Angle>
4.034

> <Pdih>
9.702

> <Idih>
0.000

> <Tether>
0.000

$$$$
VeraChem MOL file


 16 16  0  0  0  0  0  0  0  0999 V2000     
   18.5121   17.5712   22.5979 C   0  0  0  0  0  0  0  0  0  0  0  0
   17.4910   17.2666   22.3311 H   0  0  0  0  0  0  0  0  0  0  0  0
   18.9654   16.7678   23.1952 H   0  0  0  0  0  0  0  0  0  0  0  0
   18.5411   18.8842   23.3922 C   0  0  0  0  0  0  0  0  0  0  0  0
   17.7978   19.5806   22.9797 H   0  0  0  0  0  0  0  0  0  0  0  0
   18.3188   18.7350   24.4576 H   0  0  0  0  0  0  0  0  0  0  0  0
   19.9567   19.4438   23.1600 C   0  0  0  0  0  0  0  0  0  0  0  0
   20.6337   19.0680   23.9381 H   0  0  0  0  0  0  0  0  0  0  0  0
   19.9705   20.5409   23.2069 H   0  0  0  0  0  0  0  0  0  0  0  0
   20.4210   18.9105   21.7889 C   0  0  0  0  0  0  0  0  0  0  0  0
   21.4107   18.4432   21.8970 H   0  0  0  0  0  0  0  0  0  0  0  0
   19.3819   17.8535   21.3592 C   0  0  0  0  0  0  0  0  0  0  0  0
   18.7486   18.2480   20.5529 H   0  0  0  0  0  0  0  0  0  0  0  0
   19.8650   16.9390   20.9915 H   0  0  0  0  0  0  0  0  0  0  0  0
   20.4652   19.9696   20.8400 O   0  0  0  0  0  0  0  0  0  0  0  0
   20.7534   19.5740   19.9903 H   0  0  0  0  0  0  0  0  0  0  0  0
  1  2  1  0  0  0  0
  1  3  1  0  0  0  0
  1  4  1  0  0  0  0
  4  5  1  0  0  0  0
  4  6  1  0  0  0  0
  4  7  1  0  0  0  0
  7  8  1  0  0  0  0
  7  9  1  0  0  0  0
  7 10  1  0  0  0  0
 10 11  1  0  0  0  0
  1 12  1  0  0  0  0
 10 12  1  0  0  0  0
 12 13  1  0  0  0  0
 12 14  1  0  0  0  0
 10 15  1  0  0  0  0
 15 16  1  0  0  0  0
M  END
> <VConfSearch Rank>
128

> <Conf_Id>
33

> <Delta U+W>
0.015

> <U+W>
3.025

> <U>
5.843

> <W>
-2.819

> <W(PB)>
-4.568

> <W(SA)>
1.750

> <Valence>
13.789

> <Coulomb>
-8.574

> <VdW>
0.628

> <VdW6>
-3.284

> <VdW12>
3.913

> <Bond>
0.054

> <Angle>
4.033

> <Pdih>
9.702

> <Idih>
0.000

> <Tether>
0.000

$$$$
VeraChem MOL file


 16 16  0  0  0  0  0  0  0  0999 V2000     
   19.8901   19.7321   21.7440 C   0  0  0  0  0  0  0  0  0  0  0  0
   19.5013   20.6551   22.1959 H   0  0  0  0  0  0  0  0  0  0  0  0
   20.6283   20.0191   20.9826 H   0  0  0  0  0  0  0  0  0  0  0  0
   18.7295   18.9180   21.1313 C   0  0  0  0  0  0  0  0  0  0  0  0
   17.7792   19.4474   21.2858 H   0  0  0  0  0  0  0  0  0  0  0  0
   18.8612   18.7782   20.0496 H   0  0  0  0  0  0  0  0  0  0  0  0
   18.7100   17.5615   21.8676 C   0  0  0  0  0  0  0  0  0  0  0  0
   19.2397   16.8104   21.2670 H   0  0  0  0  0  0  0  0  0  0  0  0
   17.6889   17.1945   22.0369 H   0  0  0  0  0  0  0  0  0  0  0  0
   19.4745   17.7793   23.1803 C   0  0  0  0  0  0  0  0  0  0  0  0
   19.9385   16.8487   23.5375 H   0  0  0  0  0  0  0  0  0  0  0  0
   20.5290   18.8366   22.8266 C   0  0  0  0  0  0  0  0  0  0  0  0
   20.8525   19.4115   23.7046 H   0  0  0  0  0  0  0  0  0  0  0  0
   21.4129   18.3339   22.4122 H   0  0  0  0  0  0  0  0  0  0  0  0
   18.5885   18.3103   24.1550 O   0  0  0  0  0  0  0  0  0  0  0  0
   18.2276   19.1273   23.7531 H   0  0  0  0  0  0  0  0  0  0  0  0
  1  2  1  0  0  0  0
  1  3  1  0  0  0  0
  1  4  1  0  0  0  0
  4  5  1  0  0  0  0
  4  6  1  0  0  0  0
  4  7  1  0  0  0  0
  7  8  1  0  0  0  0
  7  9  1  0  0  0  0
  7 10  1  0  0  0  0
 10 11  1  0  0  0  0
  1 12  1  0  0  0  0
 10 12  1  0  0  0  0
 12 13  1  0  0  0  0
 12 14  1  0  0  0  0
 10 15  1  0  0  0  0
 15 16  1  0  0  0  0
M  END
> <VConfSearch Rank>
129

> <Conf_Id>
20

> <Delta U+W>
-0.483

> <U+W>
2.527

> <U>
4.508

> <W>
-1.981

> <W(PB)>
-3.712

> <W(SA)>
1.732

> <Valence>
14.705

> <Coulomb>
-10.687

> <VdW>
0.490

> <VdW6>
-3.745

> <VdW12>
4.235

> <Bond>
0.068

> <Angle>
3.901

> <Pdih>
10.737

> <Idih>
0.000

> <Tether>
0.000

$$$$
VeraChem MOL file


 16 16  0  0  0  0  0  0  0  0999 V2000     
   20.0319   19.6865   22.9285 C   0  0  0  0  0  0  0  0  0  0  0  0
   21.0960   19.4121   22.9399 H   0  0  0  0  0  0  0  0  0  0  0  0
   19.9350   20.7057   23.3266 H   0  0  0  0  0  0  0  0  0  0  0  0
   19.2276   18.6614   23.7397 C   0  0  0  0  0  0  0  0  0  0  0  0
   19.7534   18.3439   24.6505 H   0  0  0  0  0  0  0  0  0  0  0  0
   18.2630   19.0978   24.0341 H   0  0  0  0  0  0  0  0  0  0  0  0
   18.9950   17.4958   22.7610 C   0  0  0  0  0  0  0  0  0  0  0  0
   18.0623   16.9629   22.9863 H   0  0  0  0  0  0  0  0  0  0  0  0
   19.8227   16.7786   22.8470 H   0  0  0  0  0  0  0  0  0  0  0  0
   18.9678   18.1139   21.3471 C   0  0  0  0  0  0  0  0  0  0  0  0
   17.9370   18.1324   20.9642 H   0  0  0  0  0  0  0  0  0  0  0  0
   19.4823   19.5607   21.4955 C   0  0  0  0  0  0  0  0  0  0  0  0
   20.2455   19.8105   20.7465 H   0  0  0  0  0  0  0  0  0  0  0  0
   18.6426   20.2548   21.3607 H   0  0  0  0  0  0  0  0  0  0  0  0
   19.8164   17.3786   20.4735 O   0  0  0  0  0  0  0  0  0  0  0  0
   19.4509   16.4700   20.4253 H   0  0  0  0  0  0  0  0  0  0  0  0
  1  2  1  0  0  0  0
  1  3  1  0  0  0  0
  1  4  1  0  0  0  0
  4  5  1  0  0  0  0
  4  6  1  0  0  0  0
  4  7  1  0  0  0  0
  7  8  1  0  0  0  0
  7  9  1  0  0  0  0
  7 10  1  0  0  0  0
 10 11  1  0  0  0  0
  1 12  1  0  0  0  0
 10 12  1  0  0  0  0
 12 13  1  0  0  0  0
 12 14  1  0  0  0  0
 10 15  1  0  0  0  0
 15 16  1  0  0  0  0
M  END
> <VConfSearch Rank>
130

> <Conf_Id>
59

> <Delta U+W>
0.000

> <U+W>
3.010

> <U>
5.843

> <W>
-2.833

> <W(PB)>
-4.568

> <W(SA)>
1.735

> <Valence>
13.789

> <Coulomb>
-8.574

> <VdW>
0.628

> <VdW6>
-3.284

> <VdW12>
3.912

> <Bond>
0.054

> <Angle>
4.034

> <Pdih>
9.702

> <Idih>
0.000

> <Tether>
0.000

$$$$
VeraChem MOL file


 16 16  0  0  0  0  0  0  0  0999 V2000     
   18.4702   17.6253   21.9424 C   0  0  0  0  0  0  0  0  0  0  0  0
   17.6895   17.4583   21.1879 H   0  0  0  0  0  0  0  0  0  0  0  0
   18.5860   16.7021   22.5272 H   0  0  0  0  0  0  0  0  0  0  0  0
   18.1351   18.7924   22.8811 C   0  0  0  0  0  0  0  0  0  0  0  0
   17.6758   19.6080   22.3052 H   0  0  0  0  0  0  0  0  0  0  0  0
   17.4400   18.5016   23.6804 H   0  0  0  0  0  0  0  0  0  0  0  0
   19.4996   19.2517   23.4272 C   0  0  0  0  0  0  0  0  0  0  0  0
   19.7320   18.7013   24.3481 H   0  0  0  0  0  0  0  0  0  0  0  0
   19.4983   20.3227   23.6697 H   0  0  0  0  0  0  0  0  0  0  0  0
   20.5462   18.8962   22.3510 C   0  0  0  0  0  0  0  0  0  0  0  0
   21.3673   18.3309   22.8155 H   0  0  0  0  0  0  0  0  0  0  0  0
   19.8199   18.0155   21.3125 C   0  0  0  0  0  0  0  0  0  0  0  0
   19.6394   18.5847   20.3904 H   0  0  0  0  0  0  0  0  0  0  0  0
   20.4117   17.1289   21.0509 H   0  0  0  0  0  0  0  0  0  0  0  0
   21.0365   20.0803   21.7335 O   0  0  0  0  0  0  0  0  0  0  0  0
   21.6851   19.7960   21.0553 H   0  0  0  0  0  0  0  0  0  0  0  0
  1  2  1  0  0  0  0
  1  3  1  0  0  0  0
  1  4  1  0  0  0  0
  4  5  1  0  0  0  0
  4  6  1  0  0  0  0
  4  7  1  0  0  0  0
  7  8  1  0  0  0  0
  7  9  1  0  0  0  0
  7 10  1  0  0  0  0
 10 11  1  0  0  0  0
  1 12  1  0  0  0  0
 10 12  1  0  0  0  0
 12 13  1  0  0  0  0
 12 14  1  0  0  0  0
 10 15  1  0  0  0  0
 15 16  1  0  0  0  0
M  END
> <VConfSearch Rank>
131

> <Conf_Id>
33

> <Delta U+W>
0.015

> <U+W>
3.025

> <U>
5.843

> <W>
-2.819

> <W(PB)>
-4.568

> <W(SA)>
1.750

> <Valence>
13.789

> <Coulomb>
-8.574

> <VdW>
0.628

> <VdW6>
-3.284

> <VdW12>
3.913

> <Bond>
0.054

> <Angle>
4.033

> <Pdih>
9.702

> <Idih>
0.000

> <Tether>
0.000

$$$$
VeraChem MOL file


 16 16  0  0  0  0  0  0  0  0999 V2000     
   18.6510   18.5722   23.3783 C   0  0  0  0  0  0  0  0  0  0  0  0
   18.7519   17.6403   23.9514 H   0  0  0  0  0  0  0  0  0  0  0  0
   17.9656   19.2302   23.9298 H   0  0  0  0  0  0  0  0  0  0  0  0
   18.1230   18.2624   21.9604 C   0  0  0  0  0  0  0  0  0  0  0  0
   17.9673   17.1806   21.8477 H   0  0  0  0  0  0  0  0  0  0  0  0
   17.1618   18.7591   21.7700 H   0  0  0  0  0  0  0  0  0  0  0  0
   19.2050   18.7509   20.9740 C   0  0  0  0  0  0  0  0  0  0  0  0
   18.9365   19.7474   20.5990 H   0  0  0  0  0  0  0  0  0  0  0  0
   19.3094   18.0847   20.1073 H   0  0  0  0  0  0  0  0  0  0  0  0
   20.5032   18.8570   21.7853 C   0  0  0  0  0  0  0  0  0  0  0  0
   21.1810   19.6151   21.3670 H   0  0  0  0  0  0  0  0  0  0  0  0
   20.0317   19.2375   23.1953 C   0  0  0  0  0  0  0  0  0  0  0  0
   20.7473   18.9312   23.9700 H   0  0  0  0  0  0  0  0  0  0  0  0
   19.9237   20.3286   23.2528 H   0  0  0  0  0  0  0  0  0  0  0  0
   21.1322   17.5846   21.8300 O   0  0  0  0  0  0  0  0  0  0  0  0
   20.4612   16.9819   22.2117 H   0  0  0  0  0  0  0  0  0  0  0  0
  1  2  1  0  0  0  0
  1  3  1  0  0  0  0
  1  4  1  0  0  0  0
  4  5  1  0  0  0  0
  4  6  1  0  0  0  0
  4  7  1  0  0  0  0
  7  8  1  0  0  0  0
  7  9  1  0  0  0  0
  7 10  1  0  0  0  0
 10 11  1  0  0  0  0
  1 12  1  0  0  0  0
 10 12  1  0  0  0  0
 12 13  1  0  0  0  0
 12 14  1  0  0  0  0
 10 15  1  0  0  0  0
 15 16  1  0  0  0  0
M  END
> <VConfSearch Rank>
132

> <Conf_Id>
20

> <Delta U+W>
-0.483

> <U+W>
2.527

> <U>
4.508

> <W>
-1.981

> <W(PB)>
-3.712

> <W(SA)>
1.732

> <Valence>
14.705

> <Coulomb>
-10.687

> <VdW>
0.490

> <VdW6>
-3.745

> <VdW12>
4.235

> <Bond>
0.068

> <Angle>
3.901

> <Pdih>
10.737

> <Idih>
0.000

> <Tether>
0.000

$$$$
VeraChem MOL file


 16 16  0  0  0  0  0  0  0  0999 V2000     
   20.0009   17.4019   21.7036 C   0  0  0  0  0  0  0  0  0  0  0  0
   19.6757   17.4179   20.6540 H   0  0  0  0  0  0  0  0  0  0  0  0
   20.7069   16.5702   21.8324 H   0  0  0  0  0  0  0  0  0  0  0  0
   18.7758   17.2781   22.6198 C   0  0  0  0  0  0  0  0  0  0  0  0
   18.0208   16.5891   22.2173 H   0  0  0  0  0  0  0  0  0  0  0  0
   19.0878   16.9077   23.6062 H   0  0  0  0  0  0  0  0  0  0  0  0
   18.2461   18.7181   22.7477 C   0  0  0  0  0  0  0  0  0  0  0  0
   17.7424   18.8762   23.7101 H   0  0  0  0  0  0  0  0  0  0  0  0
   17.5160   18.9089   21.9494 H   0  0  0  0  0  0  0  0  0  0  0  0
   19.4682   19.6468   22.5879 C   0  0  0  0  0  0  0  0  0  0  0  0
   19.7461   20.0742   23.5624 H   0  0  0  0  0  0  0  0  0  0  0  0
   20.6218   18.7620   22.0719 C   0  0  0  0  0  0  0  0  0  0  0  0
   21.1430   19.2133   21.2171 H   0  0  0  0  0  0  0  0  0  0  0  0
   21.3561   18.6261   22.8765 H   0  0  0  0  0  0  0  0  0  0  0  0
   19.1825   20.6770   21.6493 O   0  0  0  0  0  0  0  0  0  0  0  0
   18.4395   21.1980   22.0210 H   0  0  0  0  0  0  0  0  0  0  0  0
  1  2  1  0  0  0  0
  1  3  1  0  0  0  0
  1  4  1  0  0  0  0
  4  5  1  0  0  0  0
  4  6  1  0  0  0  0
  4  7  1  0  0  0  0
  7  8  1  0  0  0  0
  7  9  1  0  0  0  0
  7 10  1  0  0  0  0
 10 11  1  0  0  0  0
  1 12  1  0  0  0  0
 10 12  1  0  0  0  0
 12 13  1  0  0  0  0
 12 14  1  0  0  0  0
 10 15  1  0  0  0  0
 15 16  1  0  0  0  0
M  END
> <VConfSearch Rank>
133

> <Conf_Id>
59

> <Delta U+W>
0.000

> <U+W>
3.010

> <U>
5.843

> <W>
-2.833

> <W(PB)>
-4.568

> <W(SA)>
1.735

> <Valence>
13.789

> <Coulomb>
-8.574

> <VdW>
0.628

> <VdW6>
-3.284

> <VdW12>
3.912

> <Bond>
0.054

> <Angle>
4.034

> <Pdih>
9.702

> <Idih>
0.000

> <Tether>
0.000

$$$$
VeraChem MOL file


 16 16  0  0  0  0  0  0  0  0999 V2000     
   19.0432   17.5156   21.4613 C   0  0  0  0  0  0  0  0  0  0  0  0
   19.4927   16.7095   20.8654 H   0  0  0  0  0  0  0  0  0  0  0  0
   17.9581   17.3476   21.5034 H   0  0  0  0  0  0  0  0  0  0  0  0
   19.3282   18.9046   20.8737 C   0  0  0  0  0  0  0  0  0  0  0  0
   20.3611   18.9416   20.5002 H   0  0  0  0  0  0  0  0  0  0  0  0
   18.6532   19.1559   20.0444 H   0  0  0  0  0  0  0  0  0  0  0  0
   19.1766   19.8661   22.0669 C   0  0  0  0  0  0  0  0  0  0  0  0
   18.1365   20.2110   22.1322 H   0  0  0  0  0  0  0  0  0  0  0  0
   19.8157   20.7522   21.9559 H   0  0  0  0  0  0  0  0  0  0  0  0
   19.5174   19.0532   23.3329 C   0  0  0  0  0  0  0  0  0  0  0  0
   18.7089   19.1712   24.0690 H   0  0  0  0  0  0  0  0  0  0  0  0
   19.6164   17.5784   22.8889 C   0  0  0  0  0  0  0  0  0  0  0  0
   20.6662   17.2552   22.8734 H   0  0  0  0  0  0  0  0  0  0  0  0
   19.0692   16.9143   23.5704 H   0  0  0  0  0  0  0  0  0  0  0  0
   20.7591   19.4870   23.8749 O   0  0  0  0  0  0  0  0  0  0  0  0
   20.9301   18.9325   24.6654 H   0  0  0  0  0  0  0  0  0  0  0  0
  1  2  1  0  0  0  0
  1  3  1  0  0  0  0
  1  4  1  0  0  0  0
  4  5  1  0  0  0  0
  4  6  1  0  0  0  0
  4  7  1  0  0  0  0
  7  8  1  0  0  0  0
  7  9  1  0  0  0  0
  7 10  1  0  0  0  0
 10 11  1  0  0  0  0
  1 12  1  0  0  0  0
 10 12  1  0  0  0  0
 12 13  1  0  0  0  0
 12 14  1  0  0  0  0
 10 15  1  0  0  0  0
 15 16  1  0  0  0  0
M  END
> <VConfSearch Rank>
134

> <Conf_Id>
33

> <Delta U+W>
0.015

> <U+W>
3.025

> <U>
5.843

> <W>
-2.819

> <W(PB)>
-4.568

> <W(SA)>
1.750

> <Valence>
13.789

> <Coulomb>
-8.574

> <VdW>
0.628

> <VdW6>
-3.284

> <VdW12>
3.913

> <Bond>
0.054

> <Angle>
4.033

> <Pdih>
9.702

> <Idih>
0.000

> <Tether>
0.000

$$$$
VeraChem MOL file


 16 16  0  0  0  0  0  0  0  0999 V2000     
   19.1130   19.3492   21.1771 C   0  0  0  0  0  0  0  0  0  0  0  0
   19.3054   18.8397   20.2228 H   0  0  0  0  0  0  0  0  0  0  0  0
   18.7272   20.3520   20.9478 H   0  0  0  0  0  0  0  0  0  0  0  0
   20.4132   19.4173   22.0077 C   0  0  0  0  0  0  0  0  0  0  0  0
   21.2351   18.9417   21.4549 H   0  0  0  0  0  0  0  0  0  0  0  0
   20.7070   20.4557   22.2137 H   0  0  0  0  0  0  0  0  0  0  0  0
   20.1367   18.6488   23.3174 C   0  0  0  0  0  0  0  0  0  0  0  0
   19.8728   19.3599   24.1113 H   0  0  0  0  0  0  0  0  0  0  0  0
   21.0108   18.0776   23.6574 H   0  0  0  0  0  0  0  0  0  0  0  0
   18.9276   17.7472   23.0341 C   0  0  0  0  0  0  0  0  0  0  0  0
   18.3542   17.5399   23.9491 H   0  0  0  0  0  0  0  0  0  0  0  0
   18.0992   18.5432   22.0167 C   0  0  0  0  0  0  0  0  0  0  0  0
   17.4674   17.8941   21.3958 H   0  0  0  0  0  0  0  0  0  0  0  0
   17.4389   19.2342   22.5572 H   0  0  0  0  0  0  0  0  0  0  0  0
   19.3744   16.5411   22.4321 O   0  0  0  0  0  0  0  0  0  0  0  0
   19.8688   16.8222   21.6348 H   0  0  0  0  0  0  0  0  0  0  0  0
  1  2  1  0  0  0  0
  1  3  1  0  0  0  0
  1  4  1  0  0  0  0
  4  5  1  0  0  0  0
  4  6  1  0  0  0  0
  4  7  1  0  0  0  0
  7  8  1  0  0  0  0
  7  9  1  0  0  0  0
  7 10  1  0  0  0  0
 10 11  1  0  0  0  0
  1 12  1  0  0  0  0
 10 12  1  0  0  0  0
 12 13  1  0  0  0  0
 12 14  1  0  0  0  0
 10 15  1  0  0  0  0
 15 16  1  0  0  0  0
M  END
> <VConfSearch Rank>
135

> <Conf_Id>
20

> <Delta U+W>
-0.483

> <U+W>
2.527

> <U>
4.508

> <W>
-1.981

> <W(PB)>
-3.712

> <W(SA)>
1.732

> <Valence>
14.705

> <Coulomb>
-10.687

> <VdW>
0.490

> <VdW6>
-3.745

> <VdW12>
4.235

> <Bond>
0.068

> <Angle>
3.901

> <Pdih>
10.737

> <Idih>
0.000

> <Tether>
0.000

$$$$
VeraChem MOL file


 16 16  0  0  0  0  0  0  0  0999 V2000     
   20.4223   19.2478   23.0212 C   0  0  0  0  0  0  0  0  0  0  0  0
   20.4115   18.8259   24.0359 H   0  0  0  0  0  0  0  0  0  0  0  0
   21.2546   19.9616   22.9542 H   0  0  0  0  0  0  0  0  0  0  0  0
   19.0655   19.8994   22.7206 C   0  0  0  0  0  0  0  0  0  0  0  0
   18.6593   20.4379   23.5877 H   0  0  0  0  0  0  0  0  0  0  0  0
   19.1738   20.6136   21.8925 H   0  0  0  0  0  0  0  0  0  0  0  0
   18.1664   18.7282   22.2843 C   0  0  0  0  0  0  0  0  0  0  0  0
   17.3903   19.0584   21.5819 H   0  0  0  0  0  0  0  0  0  0  0  0
   17.6657   18.3065   23.1665 H   0  0  0  0  0  0  0  0  0  0  0  0
   19.0996   17.6778   21.6459 C   0  0  0  0  0  0  0  0  0  0  0  0
   18.9726   17.6760   20.5535 H   0  0  0  0  0  0  0  0  0  0  0  0
   20.5399   18.1096   21.9908 C   0  0  0  0  0  0  0  0  0  0  0  0
   21.1439   17.2769   22.3753 H   0  0  0  0  0  0  0  0  0  0  0  0
   21.0285   18.4843   21.0820 H   0  0  0  0  0  0  0  0  0  0  0  0
   18.8309   16.3895   22.1862 O   0  0  0  0  0  0  0  0  0  0  0  0
   17.9049   16.1721   21.9478 H   0  0  0  0  0  0  0  0  0  0  0  0
  1  2  1  0  0  0  0
  1  3  1  0  0  0  0
  1  4  1  0  0  0  0
  4  5  1  0  0  0  0
  4  6  1  0  0  0  0
  4  7  1  0  0  0  0
  7  8  1  0  0  0  0
  7  9  1  0  0  0  0
  7 10  1  0  0  0  0
 10 11  1  0  0  0  0
  1 12  1  0  0  0  0
 10 12  1  0  0  0  0
 12 13  1  0  0  0  0
 12 14  1  0  0  0  0
 10 15  1  0  0  0  0
 15 16  1  0  0  0  0
M  END
> <VConfSearch Rank>
136

> <Conf_Id>
59

> <Delta U+W>
0.000

> <U+W>
3.010

> <U>
5.843

> <W>
-2.833

> <W(PB)>
-4.568

> <W(SA)>
1.735

> <Valence>
13.789

> <Coulomb>
-8.574

> <VdW>
0.628

> <VdW6>
-3.284

> <VdW12>
3.912

> <Bond>
0.054

> <Angle>
4.034

> <Pdih>
9.702

> <Idih>
0.000

> <Tether>
0.000

$$$$
VeraChem MOL file


 16 16  0  0  0  0  0  0  0  0999 V2000     
   20.3662   18.1888   23.3149 C   0  0  0  0  0  0  0  0  0  0  0  0
   20.9376   18.6162   24.1502 H   0  0  0  0  0  0  0  0  0  0  0  0
   20.4548   17.0945   23.3623 H   0  0  0  0  0  0  0  0  0  0  0  0
   20.8632   18.6884   21.9514 C   0  0  0  0  0  0  0  0  0  0  0  0
   21.1146   19.7560   22.0196 H   0  0  0  0  0  0  0  0  0  0  0  0
   21.7538   18.1466   21.6052 H   0  0  0  0  0  0  0  0  0  0  0  0
   19.6588   18.5014   21.0103 C   0  0  0  0  0  0  0  0  0  0  0  0
   19.6994   17.5039   20.5538 H   0  0  0  0  0  0  0  0  0  0  0  0
   19.6618   19.2406   20.1981 H   0  0  0  0  0  0  0  0  0  0  0  0
   18.3946   18.6016   21.8886 C   0  0  0  0  0  0  0  0  0  0  0  0
   17.7516   17.7294   21.7007 H   0  0  0  0  0  0  0  0  0  0  0  0
   18.8811   18.5933   23.3532 C   0  0  0  0  0  0  0  0  0  0  0  0
   18.7891   19.5968   23.7906 H   0  0  0  0  0  0  0  0  0  0  0  0
   18.2928   17.9016   23.9698 H   0  0  0  0  0  0  0  0  0  0  0  0
   17.6980   19.8102   21.6096 O   0  0  0  0  0  0  0  0  0  0  0  0
   16.9152   19.8264   22.2000 H   0  0  0  0  0  0  0  0  0  0  0  0
  1  2  1  0  0  0  0
  1  3  1  0  0  0  0
  1  4  1  0  0  0  0
  4  5  1  0  0  0  0
  4  6  1  0  0  0  0
  4  7  1  0  0  0  0
  7  8  1  0  0  0  0
  7  9  1  0  0  0  0
  7 10  1  0  0  0  0
 10 11  1  0  0  0  0
  1 12  1  0  0  0  0
 10 12  1  0  0  0  0
 12 13  1  0  0  0  0
 12 14  1  0  0  0  0
 10 15  1  0  0  0  0
 15 16  1  0  0  0  0
M  END
> <VConfSearch Rank>
137

> <Conf_Id>
33

> <Delta U+W>
0.015

> <U+W>
3.025

> <U>
5.843

> <W>
-2.819

> <W(PB)>
-4.568

> <W(SA)>
1.750

> <Valence>
13.789

> <Coulomb>
-8.574

> <VdW>
0.628

> <VdW6>
-3.284

> <VdW12>
3.913

> <Bond>
0.054

> <Angle>
4.033

> <Pdih>
9.702

> <Idih>
0.000

> <Tether>
0.000

$$$$
VeraChem MOL file


 16 16  0  0  0  0  0  0  0  0999 V2000     
   18.8607   18.1049   23.3814 C   0  0  0  0  0  0  0  0  0  0  0  0
   19.0756   17.0389   23.5386 H   0  0  0  0  0  0  0  0  0  0  0  0
   18.2730   18.4567   24.2404 H   0  0  0  0  0  0  0  0  0  0  0  0
   18.0958   18.2962   22.0535 C   0  0  0  0  0  0  0  0  0  0  0  0
   17.9396   17.3227   21.5686 H   0  0  0  0  0  0  0  0  0  0  0  0
   17.1084   18.7490   22.2177 H   0  0  0  0  0  0  0  0  0  0  0  0
   18.9791   19.1984   21.1657 C   0  0  0  0  0  0  0  0  0  0  0  0
   18.6331   20.2378   21.2400 H   0  0  0  0  0  0  0  0  0  0  0  0
   18.9394   18.9079   20.1073 H   0  0  0  0  0  0  0  0  0  0  0  0
   20.3982   19.1032   21.7417 C   0  0  0  0  0  0  0  0  0  0  0  0
   20.9796   20.0139   21.5378 H   0  0  0  0  0  0  0  0  0  0  0  0
   20.1769   18.8998   23.2466 C   0  0  0  0  0  0  0  0  0  0  0  0
   21.0226   18.3890   23.7261 H   0  0  0  0  0  0  0  0  0  0  0  0
   20.0636   19.8810   23.7262 H   0  0  0  0  0  0  0  0  0  0  0  0
   21.0450   17.9585   21.2052 O   0  0  0  0  0  0  0  0  0  0  0  0
   20.4613   17.2058   21.4331 H   0  0  0  0  0  0  0  0  0  0  0  0
  1  2  1  0  0  0  0
  1  3  1  0  0  0  0
  1  4  1  0  0  0  0
  4  5  1  0  0  0  0
  4  6  1  0  0  0  0
  4  7  1  0  0  0  0
  7  8  1  0  0  0  0
  7  9  1  0  0  0  0
  7 10  1  0  0  0  0
 10 11  1  0  0  0  0
  1 12  1  0  0  0  0
 10 12  1  0  0  0  0
 12 13  1  0  0  0  0
 12 14  1  0  0  0  0
 10 15  1  0  0  0  0
 15 16  1  0  0  0  0
M  END
> <VConfSearch Rank>
138

> <Conf_Id>
20

> <Delta U+W>
-0.483

> <U+W>
2.527

> <U>
4.508

> <W>
-1.981

> <W(PB)>
-3.712

> <W(SA)>
1.732

> <Valence>
14.705

> <Coulomb>
-10.687

> <VdW>
0.490

> <VdW6>
-3.745

> <VdW12>
4.235

> <Bond>
0.068

> <Angle>
3.901

> <Pdih>
10.737

> <Idih>
0.000

> <Tether>
0.000

$$$$
VeraChem MOL file


 16 16  0  0  0  0  0  0  0  0999 V2000     
   20.0248   17.5377   23.1118 C   0  0  0  0  0  0  0  0  0  0  0  0
   20.7005   17.0256   22.4126 H   0  0  0  0  0  0  0  0  0  0  0  0
   20.1773   17.1111   24.1124 H   0  0  0  0  0  0  0  0  0  0  0  0
   18.5759   17.3918   22.6269 C   0  0  0  0  0  0  0  0  0  0  0  0
   18.3699   16.3923   22.2203 H   0  0  0  0  0  0  0  0  0  0  0  0
   17.8863   17.5712   23.4635 H   0  0  0  0  0  0  0  0  0  0  0  0
   18.4122   18.4994   21.5700 C   0  0  0  0  0  0  0  0  0  0  0  0
   17.3740   18.8515   21.5155 H   0  0  0  0  0  0  0  0  0  0  0  0
   18.6863   18.1029   20.5829 H   0  0  0  0  0  0  0  0  0  0  0  0
   19.3755   19.6344   21.9768 C   0  0  0  0  0  0  0  0  0  0  0  0
   18.8072   20.4803   22.3903 H   0  0  0  0  0  0  0  0  0  0  0  0
   20.2937   19.0534   23.0719 C   0  0  0  0  0  0  0  0  0  0  0  0
   21.3538   19.2712   22.8858 H   0  0  0  0  0  0  0  0  0  0  0  0
   20.0258   19.5006   24.0380 H   0  0  0  0  0  0  0  0  0  0  0  0
   20.1488   20.0471   20.8563 O   0  0  0  0  0  0  0  0  0  0  0  0
   19.5174   20.3951   20.1916 H   0  0  0  0  0  0  0  0  0  0  0  0
  1  2  1  0  0  0  0
  1  3  1  0  0  0  0
  1  4  1  0  0  0  0
  4  5  1  0  0  0  0
  4  6  1  0  0  0  0
  4  7  1  0  0  0  0
  7  8  1  0  0  0  0
  7  9  1  0  0  0  0
  7 10  1  0  0  0  0
 10 11  1  0  0  0  0
  1 12  1  0  0  0  0
 10 12  1  0  0  0  0
 12 13  1  0  0  0  0
 12 14  1  0  0  0  0
 10 15  1  0  0  0  0
 15 16  1  0  0  0  0
M  END
> <VConfSearch Rank>
139

> <Conf_Id>
59

> <Delta U+W>
0.000

> <U+W>
3.010

> <U>
5.843

> <W>
-2.833

> <W(PB)>
-4.568

> <W(SA)>
1.735

> <Valence>
13.789

> <Coulomb>
-8.574

> <VdW>
0.628

> <VdW6>
-3.284

> <VdW12>
3.912

> <Bond>
0.054

> <Angle>
4.034

> <Pdih>
9.702

> <Idih>
0.000

> <Tether>
0.000

$$$$
VeraChem MOL file


 16 16  0  0  0  0  0  0  0  0999 V2000     
   20.3245   18.2648   21.2068 C   0  0  0  0  0  0  0  0  0  0  0  0
   20.2823   17.7542   20.2351 H   0  0  0  0  0  0  0  0  0  0  0  0
   21.3145   18.7313   21.3070 H   0  0  0  0  0  0  0  0  0  0  0  0
   20.0843   17.3062   22.3811 C   0  0  0  0  0  0  0  0  0  0  0  0
   19.2944   16.5897   22.1160 H   0  0  0  0  0  0  0  0  0  0  0  0
   20.9859   16.7400   22.6517 H   0  0  0  0  0  0  0  0  0  0  0  0
   19.5949   18.2134   23.5250 C   0  0  0  0  0  0  0  0  0  0  0  0
   20.4546   18.5646   24.1104 H   0  0  0  0  0  0  0  0  0  0  0  0
   18.9232   17.6763   24.2079 H   0  0  0  0  0  0  0  0  0  0  0  0
   18.9088   19.4257   22.8621 C   0  0  0  0  0  0  0  0  0  0  0  0
   19.3270   20.3531   23.2797 H   0  0  0  0  0  0  0  0  0  0  0  0
   19.2271   19.3346   21.3547 C   0  0  0  0  0  0  0  0  0  0  0  0
   18.3354   19.0199   20.7957 H   0  0  0  0  0  0  0  0  0  0  0  0
   19.5534   20.3022   20.9521 H   0  0  0  0  0  0  0  0  0  0  0  0
   17.5028   19.3685   23.0712 O   0  0  0  0  0  0  0  0  0  0  0  0
   17.1196   20.1515   22.6220 H   0  0  0  0  0  0  0  0  0  0  0  0
  1  2  1  0  0  0  0
  1  3  1  0  0  0  0
  1  4  1  0  0  0  0
  4  5  1  0  0  0  0
  4  6  1  0  0  0  0
  4  7  1  0  0  0  0
  7  8  1  0  0  0  0
  7  9  1  0  0  0  0
  7 10  1  0  0  0  0
 10 11  1  0  0  0  0
  1 12  1  0  0  0  0
 10 12  1  0  0  0  0
 12 13  1  0  0  0  0
 12 14  1  0  0  0  0
 10 15  1  0  0  0  0
 15 16  1  0  0  0  0
M  END
> <VConfSearch Rank>
140

> <Conf_Id>
33

> <Delta U+W>
0.015

> <U+W>
3.025

> <U>
5.843

> <W>
-2.819

> <W(PB)>
-4.568

> <W(SA)>
1.750

> <Valence>
13.789

> <Coulomb>
-8.574

> <VdW>
0.628

> <VdW6>
-3.284

> <VdW12>
3.913

> <Bond>
0.054

> <Angle>
4.033

> <Pdih>
9.702

> <Idih>
0.000

> <Tether>
0.000

$$$$
VeraChem MOL file


 16 16  0  0  0  0  0  0  0  0999 V2000     
   20.0182   18.5704   23.4302 C   0  0  0  0  0  0  0  0  0  0  0  0
   20.3488   17.5667   23.7309 H   0  0  0  0  0  0  0  0  0  0  0  0
   20.3412   19.2749   24.2089 H   0  0  0  0  0  0  0  0  0  0  0  0
   18.4843   18.5863   23.2509 C   0  0  0  0  0  0  0  0  0  0  0  0
   18.0726   17.5905   23.4658 H   0  0  0  0  0  0  0  0  0  0  0  0
   18.0051   19.2999   23.9350 H   0  0  0  0  0  0  0  0  0  0  0  0
   18.2198   18.9662   21.7784 C   0  0  0  0  0  0  0  0  0  0  0  0
   18.0011   20.0400   21.7102 H   0  0  0  0  0  0  0  0  0  0  0  0
   17.3638   18.4233   21.3559 H   0  0  0  0  0  0  0  0  0  0  0  0
   19.5234   18.6742   21.0233 C   0  0  0  0  0  0  0  0  0  0  0  0
   19.6331   19.3206   20.1405 H   0  0  0  0  0  0  0  0  0  0  0  0
   20.6228   18.9425   22.0597 C   0  0  0  0  0  0  0  0  0  0  0  0
   21.5428   18.3825   21.8448 H   0  0  0  0  0  0  0  0  0  0  0  0
   20.8718   20.0118   22.0467 H   0  0  0  0  0  0  0  0  0  0  0  0
   19.5531   17.3032   20.6541 O   0  0  0  0  0  0  0  0  0  0  0  0
   19.4499   16.8108   21.4944 H   0  0  0  0  0  0  0  0  0  0  0  0
  1  2  1  0  0  0  0
  1  3  1  0  0  0  0
  1  4  1  0  0  0  0
  4  5  1  0  0  0  0
  4  6  1  0  0  0  0
  4  7  1  0  0  0  0
  7  8  1  0  0  0  0
  7  9  1  0  0  0  0
  7 10  1  0  0  0  0
 10 11  1  0  0  0  0
  1 12  1  0  0  0  0
 10 12  1  0  0  0  0
 12 13  1  0  0  0  0
 12 14  1  0  0  0  0
 10 15  1  0  0  0  0
 15 16  1  0  0  0  0
M  END
> <VConfSearch Rank>
141

> <Conf_Id>
20

> <Delta U+W>
-0.483

> <U+W>
2.527

> <U>
4.508

> <W>
-1.981

> <W(PB)>
-3.712

> <W(SA)>
1.732

> <Valence>
14.705

> <Coulomb>
-10.687

> <VdW>
0.490

> <VdW6>
-3.745

> <VdW12>
4.235

> <Bond>
0.068

> <Angle>
3.901

> <Pdih>
10.737

> <Idih>
0.000

> <Tether>
0.000

$$$$
VeraChem MOL file


 16 16  0  0  0  0  0  0  0  0999 V2000     
   18.0925   18.0441   21.8122 C   0  0  0  0  0  0  0  0  0  0  0  0
   17.4030   18.1047   22.6657 H   0  0  0  0  0  0  0  0  0  0  0  0
   17.5299   17.6838   20.9402 H   0  0  0  0  0  0  0  0  0  0  0  0
   19.2720   17.1287   22.1679 C   0  0  0  0  0  0  0  0  0  0  0  0
   18.9588   16.2493   22.7470 H   0  0  0  0  0  0  0  0  0  0  0  0
   19.7587   16.7782   21.2470 H   0  0  0  0  0  0  0  0  0  0  0  0
   20.2367   18.0349   22.9544 C   0  0  0  0  0  0  0  0  0  0  0  0
   21.2791   17.7141   22.8308 H   0  0  0  0  0  0  0  0  0  0  0  0
   19.9924   17.9836   24.0242 H   0  0  0  0  0  0  0  0  0  0  0  0
   20.0175   19.4675   22.4240 C   0  0  0  0  0  0  0  0  0  0  0  0
   20.8652   19.7684   21.7913 H   0  0  0  0  0  0  0  0  0  0  0  0
   18.7343   19.4225   21.5689 C   0  0  0  0  0  0  0  0  0  0  0  0
   18.0421   20.2394   21.8127 H   0  0  0  0  0  0  0  0  0  0  0  0
   19.0063   19.5205   20.5098 H   0  0  0  0  0  0  0  0  0  0  0  0
   19.8526   20.3728   23.5089 O   0  0  0  0  0  0  0  0  0  0  0  0
   20.6884   20.3529   24.0213 H   0  0  0  0  0  0  0  0  0  0  0  0
  1  2  1  0  0  0  0
  1  3  1  0  0  0  0
  1  4  1  0  0  0  0
  4  5  1  0  0  0  0
  4  6  1  0  0  0  0
  4  7  1  0  0  0  0
  7  8  1  0  0  0  0
  7  9  1  0  0  0  0
  7 10  1  0  0  0  0
 10 11  1  0  0  0  0
  1 12  1  0  0  0  0
 10 12  1  0  0  0  0
 12 13  1  0  0  0  0
 12 14  1  0  0  0  0
 10 15  1  0  0  0  0
 15 16  1  0  0  0  0
M  END
> <VConfSearch Rank>
142

> <Conf_Id>
59

> <Delta U+W>
0.000

> <U+W>
3.010

> <U>
5.843

> <W>
-2.833

> <W(PB)>
-4.568

> <W(SA)>
1.735

> <Valence>
13.789

> <Coulomb>
-8.574

> <VdW>
0.628

> <VdW6>
-3.284

> <VdW12>
3.912

> <Bond>
0.054

> <Angle>
4.034

> <Pdih>
9.702

> <Idih>
0.000

> <Tether>
0.000

$$$$
VeraChem MOL file


 16 16  0  0  0  0  0  0  0  0999 V2000     
   18.7195   17.5909   21.5990 C   0  0  0  0  0  0  0  0  0  0  0  0
   17.6931   17.3810   21.2685 H   0  0  0  0  0  0  0  0  0  0  0  0
   19.3824   16.8286   21.1665 H   0  0  0  0  0  0  0  0  0  0  0  0
   18.8535   17.5842   23.1280 C   0  0  0  0  0  0  0  0  0  0  0  0
   17.9712   18.0613   23.5771 H   0  0  0  0  0  0  0  0  0  0  0  0
   18.9410   16.5685   23.5370 H   0  0  0  0  0  0  0  0  0  0  0  0
   20.1020   18.4405   23.4091 C   0  0  0  0  0  0  0  0  0  0  0  0
   20.9930   17.7994   23.4225 H   0  0  0  0  0  0  0  0  0  0  0  0
   20.0371   18.9423   24.3837 H   0  0  0  0  0  0  0  0  0  0  0  0
   20.2204   19.4419   22.2416 C   0  0  0  0  0  0  0  0  0  0  0  0
   21.2376   19.3967   21.8259 H   0  0  0  0  0  0  0  0  0  0  0  0
   19.1950   18.9937   21.1789 C   0  0  0  0  0  0  0  0  0  0  0  0
   18.3367   19.6793   21.1650 H   0  0  0  0  0  0  0  0  0  0  0  0
   19.6346   18.9837   20.1731 H   0  0  0  0  0  0  0  0  0  0  0  0
   19.9182   20.7574   22.6912 O   0  0  0  0  0  0  0  0  0  0  0  0
   19.9975   21.3464   21.9112 H   0  0  0  0  0  0  0  0  0  0  0  0
  1  2  1  0  0  0  0
  1  3  1  0  0  0  0
  1  4  1  0  0  0  0
  4  5  1  0  0  0  0
  4  6  1  0  0  0  0
  4  7  1  0  0  0  0
  7  8  1  0  0  0  0
  7  9  1  0  0  0  0
  7 10  1  0  0  0  0
 10 11  1  0  0  0  0
  1 12  1  0  0  0  0
 10 12  1  0  0  0  0
 12 13  1  0  0  0  0
 12 14  1  0  0  0  0
 10 15  1  0  0  0  0
 15 16  1  0  0  0  0
M  END
> <VConfSearch Rank>
143

> <Conf_Id>
33

> <Delta U+W>
0.015

> <U+W>
3.025

> <U>
5.843

> <W>
-2.819

> <W(PB)>
-4.568

> <W(SA)>
1.750

> <Valence>
13.789

> <Coulomb>
-8.574

> <VdW>
0.628

> <VdW6>
-3.284

> <VdW12>
3.913

> <Bond>
0.054

> <Angle>
4.033

> <Pdih>
9.702

> <Idih>
0.000

> <Tether>
0.000

$$$$
VeraChem MOL file


 16 16  0  0  0  0  0  0  0  0999 V2000     
   19.7194   17.3719   22.6257 C   0  0  0  0  0  0  0  0  0  0  0  0
   19.6148   16.6196   21.8318 H   0  0  0  0  0  0  0  0  0  0  0  0
   20.1061   16.8624   23.5189 H   0  0  0  0  0  0  0  0  0  0  0  0
   18.3542   18.0400   22.8995 C   0  0  0  0  0  0  0  0  0  0  0  0
   17.5886   17.6102   22.2388 H   0  0  0  0  0  0  0  0  0  0  0  0
   18.0272   17.8807   23.9362 H   0  0  0  0  0  0  0  0  0  0  0  0
   18.5345   19.5433   22.5994 C   0  0  0  0  0  0  0  0  0  0  0  0
   18.7202   20.0847   23.5364 H   0  0  0  0  0  0  0  0  0  0  0  0
   17.6449   19.9836   22.1296 H   0  0  0  0  0  0  0  0  0  0  0  0
   19.7776   19.6523   21.7061 C   0  0  0  0  0  0  0  0  0  0  0  0
   20.2770   20.6247   21.8247 H   0  0  0  0  0  0  0  0  0  0  0  0
   20.6738   18.4968   22.1717 C   0  0  0  0  0  0  0  0  0  0  0  0
   21.3653   18.1641   21.3861 H   0  0  0  0  0  0  0  0  0  0  0  0
   21.2757   18.8342   23.0257 H   0  0  0  0  0  0  0  0  0  0  0  0
   19.4020   19.4372   20.3536 O   0  0  0  0  0  0  0  0  0  0  0  0
   18.9704   18.5581   20.3457 H   0  0  0  0  0  0  0  0  0  0  0  0
  1  2  1  0  0  0  0
  1  3  1  0  0  0  0
  1  4  1  0  0  0  0
  4  5  1  0  0  0  0
  4  6  1  0  0  0  0
  4  7  1  0  0  0  0
  7  8  1  0  0  0  0
  7  9  1  0  0  0  0
  7 10  1  0  0  0  0
 10 11  1  0  0  0  0
  1 12  1  0  0  0  0
 10 12  1  0  0  0  0
 12 13  1  0  0  0  0
 12 14  1  0  0  0  0
 10 15  1  0  0  0  0
 15 16  1  0  0  0  0
M  END
> <VConfSearch Rank>
144

> <Conf_Id>
20

> <Delta U+W>
-0.483

> <U+W>
2.527

> <U>
4.508

> <W>
-1.981

> <W(PB)>
-3.712

> <W(SA)>
1.732

> <Valence>
14.705

> <Coulomb>
-10.687

> <VdW>
0.490

> <VdW6>
-3.745

> <VdW12>
4.235

> <Bond>
0.068

> <Angle>
3.901

> <Pdih>
10.737

> <Idih>
0.000

> <Tether>
0.000

$$$$
VeraChem MOL file


 16 16  0  0  0  0  0  0  0  0999 V2000     
   18.8739   19.9108   22.1176 C   0  0  0  0  0  0  0  0  0  0  0  0
   17.9830   19.8055   21.4828 H   0  0  0  0  0  0  0  0  0  0  0  0
   18.9874   20.9719   22.3780 H   0  0  0  0  0  0  0  0  0  0  0  0
   20.0994   19.3537   21.3805 C   0  0  0  0  0  0  0  0  0  0  0  0
   20.0942   19.6055   20.3112 H   0  0  0  0  0  0  0  0  0  0  0  0
   21.0166   19.7640   21.8256 H   0  0  0  0  0  0  0  0  0  0  0  0
   20.0360   17.8349   21.6252 C   0  0  0  0  0  0  0  0  0  0  0  0
   21.0377   17.3861   21.6230 H   0  0  0  0  0  0  0  0  0  0  0  0
   19.4526   17.3619   20.8235 H   0  0  0  0  0  0  0  0  0  0  0  0
   19.3311   17.6425   22.9845 C   0  0  0  0  0  0  0  0  0  0  0  0
   20.0632   17.3447   23.7493 H   0  0  0  0  0  0  0  0  0  0  0  0
   18.7305   19.0128   23.3603 C   0  0  0  0  0  0  0  0  0  0  0  0
   17.6841   18.9346   23.6840 H   0  0  0  0  0  0  0  0  0  0  0  0
   19.3060   19.4400   24.1919 H   0  0  0  0  0  0  0  0  0  0  0  0
   18.2995   16.6697   22.8692 O   0  0  0  0  0  0  0  0  0  0  0  0
   18.7343   15.8269   22.6196 H   0  0  0  0  0  0  0  0  0  0  0  0
  1  2  1  0  0  0  0
  1  3  1  0  0  0  0
  1  4  1  0  0  0  0
  4  5  1  0  0  0  0
  4  6  1  0  0  0  0
  4  7  1  0  0  0  0
  7  8  1  0  0  0  0
  7  9  1  0  0  0  0
  7 10  1  0  0  0  0
 10 11  1  0  0  0  0
  1 12  1  0  0  0  0
 10 12  1  0  0  0  0
 12 13  1  0  0  0  0
 12 14  1  0  0  0  0
 10 15  1  0  0  0  0
 15 16  1  0  0  0  0
M  END
> <VConfSearch Rank>
145

> <Conf_Id>
59

> <Delta U+W>
0.000

> <U+W>
3.010

> <U>
5.843

> <W>
-2.833

> <W(PB)>
-4.568

> <W(SA)>
1.735

> <Valence>
13.789

> <Coulomb>
-8.574

> <VdW>
0.628

> <VdW6>
-3.284

> <VdW12>
3.912

> <Bond>
0.054

> <Angle>
4.034

> <Pdih>
9.702

> <Idih>
0.000

> <Tether>
0.000

$$$$
VeraChem MOL file


 16 16  0  0  0  0  0  0  0  0999 V2000     
   20.5474   18.6454   23.2196 C   0  0  0  0  0  0  0  0  0  0  0  0
   20.8460   19.1699   24.1374 H   0  0  0  0  0  0  0  0  0  0  0  0
   21.2687   17.8370   23.0356 H   0  0  0  0  0  0  0  0  0  0  0  0
   20.4978   19.5797   22.0029 C   0  0  0  0  0  0  0  0  0  0  0  0
   20.0771   20.5503   22.3008 H   0  0  0  0  0  0  0  0  0  0  0  0
   21.4909   19.7543   21.5672 H   0  0  0  0  0  0  0  0  0  0  0  0
   19.5393   18.8821   21.0202 C   0  0  0  0  0  0  0  0  0  0  0  0
   20.1087   18.2116   20.3635 H   0  0  0  0  0  0  0  0  0  0  0  0
   19.0150   19.6070   20.3834 H   0  0  0  0  0  0  0  0  0  0  0  0
   18.5672   18.0429   21.8750 C   0  0  0  0  0  0  0  0  0  0  0  0
   18.5460   17.0114   21.4939 H   0  0  0  0  0  0  0  0  0  0  0  0
   19.1252   18.0630   23.3137 C   0  0  0  0  0  0  0  0  0  0  0  0
   18.5089   18.7108   23.9520 H   0  0  0  0  0  0  0  0  0  0  0  0
   19.1314   17.0594   23.7581 H   0  0  0  0  0  0  0  0  0  0  0  0
   17.2662   18.6176   21.8450 O   0  0  0  0  0  0  0  0  0  0  0  0
   16.6966   18.0538   22.4100 H   0  0  0  0  0  0  0  0  0  0  0  0
  1  2  1  0  0  0  0
  1  3  1  0  0  0  0
  1  4  1  0  0  0  0
  4  5  1  0  0  0  0
  4  6  1  0  0  0  0
  4  7  1  0  0  0  0
  7  8  1  0  0  0  0
  7  9  1  0  0  0  0
  7 10  1  0  0  0  0
 10 11  1  0  0  0  0
  1 12  1  0  0  0  0
 10 12  1  0  0  0  0
 12 13  1  0  0  0  0
 12 14  1  0  0  0  0
 10 15  1  0  0  0  0
 15 16  1  0  0  0  0
M  END
> <VConfSearch Rank>
146

> <Conf_Id>
33

> <Delta U+W>
0.015

> <U+W>
3.025

> <U>
5.843

> <W>
-2.819

> <W(PB)>
-4.568

> <W(SA)>
1.750

> <Valence>
13.789

> <Coulomb>
-8.574

> <VdW>
0.628

> <VdW6>
-3.284

> <VdW12>
3.913

> <Bond>
0.054

> <Angle>
4.033

> <Pdih>
9.702

> <Idih>
0.000

> <Tether>
0.000

$$$$
VeraChem MOL file


 16 16  0  0  0  0  0  0  0  0999 V2000     
   19.9481   17.8458   23.1940 C   0  0  0  0  0  0  0  0  0  0  0  0
   20.6268   18.3866   23.8679 H   0  0  0  0  0  0  0  0  0  0  0  0
   19.9265   16.7954   23.5152 H   0  0  0  0  0  0  0  0  0  0  0  0
   20.4362   17.9837   21.7353 C   0  0  0  0  0  0  0  0  0  0  0  0
   21.3518   18.5903   21.7034 H   0  0  0  0  0  0  0  0  0  0  0  0
   20.6691   17.0053   21.2931 H   0  0  0  0  0  0  0  0  0  0  0  0
   19.3029   18.6877   20.9592 C   0  0  0  0  0  0  0  0  0  0  0  0
   18.6961   17.9375   20.4352 H   0  0  0  0  0  0  0  0  0  0  0  0
   19.6870   19.3907   20.2081 H   0  0  0  0  0  0  0  0  0  0  0  0
   18.4329   19.3831   22.0150 C   0  0  0  0  0  0  0  0  0  0  0  0
   17.3921   19.4880   21.6764 H   0  0  0  0  0  0  0  0  0  0  0  0
   18.5376   18.4705   23.2443 C   0  0  0  0  0  0  0  0  0  0  0  0
   18.3557   19.0129   24.1817 H   0  0  0  0  0  0  0  0  0  0  0  0
   17.7821   17.6776   23.1651 H   0  0  0  0  0  0  0  0  0  0  0  0
   18.9953   20.6500   22.3238 O   0  0  0  0  0  0  0  0  0  0  0  0
   19.9114   20.4586   22.6124 H   0  0  0  0  0  0  0  0  0  0  0  0
  1  2  1  0  0  0  0
  1  3  1  0  0  0  0
  1  4  1  0  0  0  0
  4  5  1  0  0  0  0
  4  6  1  0  0  0  0
  4  7  1  0  0  0  0
  7  8  1  0  0  0  0
  7  9  1  0  0  0  0
  7 10  1  0  0  0  0
 10 11  1  0  0  0  0
  1 12  1  0  0  0  0
 10 12  1  0  0  0  0
 12 13  1  0  0  0  0
 12 14  1  0  0  0  0
 10 15  1  0  0  0  0
 15 16  1  0  0  0  0
M  END
> <VConfSearch Rank>
147

> <Conf_Id>
20

> <Delta U+W>
-0.483

> <U+W>
2.527

> <U>
4.508

> <W>
-1.981

> <W(PB)>
-3.712

> <W(SA)>
1.732

> <Valence>
14.705

> <Coulomb>
-10.687

> <VdW>
0.490

> <VdW6>
-3.745

> <VdW12>
4.235

> <Bond>
0.068

> <Angle>
3.901

> <Pdih>
10.737

> <Idih>
0.000

> <Tether>
0.000

$$$$
VeraChem MOL file


 16 16  0  0  0  0  0  0  0  0999 V2000     
   18.3136   19.5649   22.3487 C   0  0  0  0  0  0  0  0  0  0  0  0
   17.9821   19.5953   23.3960 H   0  0  0  0  0  0  0  0  0  0  0  0
   17.7658   20.3370   21.7917 H   0  0  0  0  0  0  0  0  0  0  0  0
   18.0867   18.1582   21.7780 C   0  0  0  0  0  0  0  0  0  0  0  0
   17.1401   17.7168   22.1185 H   0  0  0  0  0  0  0  0  0  0  0  0
   18.0697   18.2030   20.6802 H   0  0  0  0  0  0  0  0  0  0  0  0
   19.3115   17.3521   22.2476 C   0  0  0  0  0  0  0  0  0  0  0  0
   19.5560   16.5469   21.5428 H   0  0  0  0  0  0  0  0  0  0  0  0
   19.0927   16.8932   23.2215 H   0  0  0  0  0  0  0  0  0  0  0  0
   20.4715   18.3613   22.3805 C   0  0  0  0  0  0  0  0  0  0  0  0
   21.1840   18.2267   21.5537 H   0  0  0  0  0  0  0  0  0  0  0  0
   19.8391   19.7651   22.2848 C   0  0  0  0  0  0  0  0  0  0  0  0
   20.1923   20.4364   23.0789 H   0  0  0  0  0  0  0  0  0  0  0  0
   20.1115   20.2155   21.3214 H   0  0  0  0  0  0  0  0  0  0  0  0
   21.1208   18.2003   23.6360 O   0  0  0  0  0  0  0  0  0  0  0  0
   21.4923   17.2928   23.6462 H   0  0  0  0  0  0  0  0  0  0  0  0
  1  2  1  0  0  0  0
  1  3  1  0  0  0  0
  1  4  1  0  0  0  0
  4  5  1  0  0  0  0
  4  6  1  0  0  0  0
  4  7  1  0  0  0  0
  7  8  1  0  0  0  0
  7  9  1  0  0  0  0
  7 10  1  0  0  0  0
 10 11  1  0  0  0  0
  1 12  1  0  0  0  0
 10 12  1  0  0  0  0
 12 13  1  0  0  0  0
 12 14  1  0  0  0  0
 10 15  1  0  0  0  0
 15 16  1  0  0  0  0
M  END
> <VConfSearch Rank>
148

> <Conf_Id>
59

> <Delta U+W>
0.000

> <U+W>
3.010

> <U>
5.843

> <W>
-2.833

> <W(PB)>
-4.568

> <W(SA)>
1.735

> <Valence>
13.789

> <Coulomb>
-8.574

> <VdW>
0.628

> <VdW6>
-3.284

> <VdW12>
3.912

> <Bond>
0.054

> <Angle>
4.034

> <Pdih>
9.702

> <Idih>
0.000

> <Tether>
0.000

$$$$
VeraChem MOL file


 16 16  0  0  0  0  0  0  0  0999 V2000     
   19.8441   19.9737   22.5232 C   0  0  0  0  0  0  0  0  0  0  0  0
   19.6139   20.9812   22.1508 H   0  0  0  0  0  0  0  0  0  0  0  0
   20.4911   20.0732   23.4059 H   0  0  0  0  0  0  0  0  0  0  0  0
   20.5420   19.1061   21.4668 C   0  0  0  0  0  0  0  0  0  0  0  0
   20.0909   19.2910   20.4819 H   0  0  0  0  0  0  0  0  0  0  0  0
   21.6182   19.3145   21.3970 H   0  0  0  0  0  0  0  0  0  0  0  0
   20.2508   17.6585   21.9037 C   0  0  0  0  0  0  0  0  0  0  0  0
   21.0445   17.3103   22.5774 H   0  0  0  0  0  0  0  0  0  0  0  0
   20.2190   16.9754   21.0444 H   0  0  0  0  0  0  0  0  0  0  0  0
   18.9152   17.6920   22.6749 C   0  0  0  0  0  0  0  0  0  0  0  0
   19.0429   17.1891   23.6446 H   0  0  0  0  0  0  0  0  0  0  0  0
   18.5766   19.1818   22.8930 C   0  0  0  0  0  0  0  0  0  0  0  0
   17.7529   19.4856   22.2326 H   0  0  0  0  0  0  0  0  0  0  0  0
   18.2687   19.3782   23.9281 H   0  0  0  0  0  0  0  0  0  0  0  0
   17.8924   17.0626   21.9122 O   0  0  0  0  0  0  0  0  0  0  0  0
   17.0694   17.1227   22.4418 H   0  0  0  0  0  0  0  0  0  0  0  0
  1  2  1  0  0  0  0
  1  3  1  0  0  0  0
  1  4  1  0  0  0  0
  4  5  1  0  0  0  0
  4  6  1  0  0  0  0
  4  7  1  0  0  0  0
  7  8  1  0  0  0  0
  7  9  1  0  0  0  0
  7 10  1  0  0  0  0
 10 11  1  0  0  0  0
  1 12  1  0  0  0  0
 10 12  1  0  0  0  0
 12 13  1  0  0  0  0
 12 14  1  0  0  0  0
 10 15  1  0  0  0  0
 15 16  1  0  0  0  0
M  END
> <VConfSearch Rank>
149

> <Conf_Id>
33

> <Delta U+W>
0.015

> <U+W>
3.025

> <U>
5.843

> <W>
-2.819

> <W(PB)>
-4.568

> <W(SA)>
1.750

> <Valence>
13.789

> <Coulomb>
-8.574

> <VdW>
0.628

> <VdW6>
-3.284

> <VdW12>
3.913

> <Bond>
0.054

> <Angle>
4.033

> <Pdih>
9.702

> <Idih>
0.000

> <Tether>
0.000

$$$$
VeraChem MOL file


 16 16  0  0  0  0  0  0  0  0999 V2000     
   18.2352   18.4226   22.9239 C   0  0  0  0  0  0  0  0  0  0  0  0
   17.3719   18.1929   22.2843 H   0  0  0  0  0  0  0  0  0  0  0  0
   17.8895   18.4125   23.9667 H   0  0  0  0  0  0  0  0  0  0  0  0
   18.8266   19.7952   22.5350 C   0  0  0  0  0  0  0  0  0  0  0  0
   18.2488   20.2303   21.7078 H   0  0  0  0  0  0  0  0  0  0  0  0
   18.7912   20.5029   23.3746 H   0  0  0  0  0  0  0  0  0  0  0  0
   20.2814   19.5348   22.0899 C   0  0  0  0  0  0  0  0  0  0  0  0
   20.9634   19.7433   22.9249 H   0  0  0  0  0  0  0  0  0  0  0  0
   20.5796   20.1731   21.2475 H   0  0  0  0  0  0  0  0  0  0  0  0
   20.3593   18.0417   21.7440 C   0  0  0  0  0  0  0  0  0  0  0  0
   21.3747   17.6454   21.8883 H   0  0  0  0  0  0  0  0  0  0  0  0
   19.3553   17.3845   22.7005 C   0  0  0  0  0  0  0  0  0  0  0  0
   18.9695   16.4335   22.3095 H   0  0  0  0  0  0  0  0  0  0  0  0
   19.8567   17.1746   23.6546 H   0  0  0  0  0  0  0  0  0  0  0  0
   19.9255   17.8485   20.4056 O   0  0  0  0  0  0  0  0  0  0  0  0
   19.0232   18.2279   20.3729 H   0  0  0  0  0  0  0  0  0  0  0  0
  1  2  1  0  0  0  0
  1  3  1  0  0  0  0
  1  4  1  0  0  0  0
  4  5  1  0  0  0  0
  4  6  1  0  0  0  0
  4  7  1  0  0  0  0
  7  8  1  0  0  0  0
  7  9  1  0  0  0  0
  7 10  1  0  0  0  0
 10 11  1  0  0  0  0
  1 12  1  0  0  0  0
 10 12  1  0  0  0  0
 12 13  1  0  0  0  0
 12 14  1  0  0  0  0
 10 15  1  0  0  0  0
 15 16  1  0  0  0  0
M  END
> <VConfSearch Rank>
150

> <Conf_Id>
20

> <Delta U+W>
-0.483

> <U+W>
2.527

> <U>
4.508

> <W>
-1.981

> <W(PB)>
-3.712

> <W(SA)>
1.732

> <Valence>
14.705

> <Coulomb>
-10.687

> <VdW>
0.490

> <VdW6>
-3.745

> <VdW12>
4.235

> <Bond>
0.068

> <Angle>
3.901

> <Pdih>
10.737

> <Idih>
0.000

> <Tether>
0.000

$$$$
VeraChem MOL file


 16 16  0  0  0  0  0  0  0  0999 V2000     
   20.1107   19.6250   21.6814 C   0  0  0  0  0  0  0  0  0  0  0  0
   21.1079   19.2014   21.4974 H   0  0  0  0  0  0  0  0  0  0  0  0
   20.0865   20.6414   21.2655 H   0  0  0  0  0  0  0  0  0  0  0  0
   19.8111   19.6003   23.1865 C   0  0  0  0  0  0  0  0  0  0  0  0
   20.6908   19.8573   23.7921 H   0  0  0  0  0  0  0  0  0  0  0  0
   19.0133   20.3202   23.4165 H   0  0  0  0  0  0  0  0  0  0  0  0
   19.3134   18.1681   23.4545 C   0  0  0  0  0  0  0  0  0  0  0  0
   18.6104   18.1388   24.2969 H   0  0  0  0  0  0  0  0  0  0  0  0
   20.1694   17.5274   23.7070 H   0  0  0  0  0  0  0  0  0  0  0  0
   18.6518   17.6856   22.1464 C   0  0  0  0  0  0  0  0  0  0  0  0
   17.5580   17.6730   22.2603 H   0  0  0  0  0  0  0  0  0  0  0  0
   19.0392   18.7102   21.0601 C   0  0  0  0  0  0  0  0  0  0  0  0
   19.4021   18.2278   20.1426 H   0  0  0  0  0  0  0  0  0  0  0  0
   18.1547   19.3047   20.7970 H   0  0  0  0  0  0  0  0  0  0  0  0
   19.1368   16.3943   21.7982 O   0  0  0  0  0  0  0  0  0  0  0  0
   18.8734   15.7899   22.5240 H   0  0  0  0  0  0  0  0  0  0  0  0
  1  2  1  0  0  0  0
  1  3  1  0  0  0  0
  1  4  1  0  0  0  0
  4  5  1  0  0  0  0
  4  6  1  0  0  0  0
  4  7  1  0  0  0  0
  7  8  1  0  0  0  0
  7  9  1  0  0  0  0
  7 10  1  0  0  0  0
 10 11  1  0  0  0  0
  1 12  1  0  0  0  0
 10 12  1  0  0  0  0
 12 13  1  0  0  0  0
 12 14  1  0  0  0  0
 10 15  1  0  0  0  0
 15 16  1  0  0  0  0
M  END
> <VConfSearch Rank>
151

> <Conf_Id>
59

> <Delta U+W>
0.000

> <U+W>
3.010

> <U>
5.843

> <W>
-2.833

> <W(PB)>
-4.568

> <W(SA)>
1.735

> <Valence>
13.789

> <Coulomb>
-8.574

> <VdW>
0.628

> <VdW6>
-3.284

> <VdW12>
3.912

> <Bond>
0.054

> <Angle>
4.034

> <Pdih>
9.702

> <Idih>
0.000

> <Tether>
0.000

$$$$
VeraChem MOL file


 16 16  0  0  0  0  0  0  0  0999 V2000     
   19.7953   17.2472   22.5741 C   0  0  0  0  0  0  0  0  0  0  0  0
   20.6528   16.5673   22.4781 H   0  0  0  0  0  0  0  0  0  0  0  0
   19.0165   16.7376   23.1584 H   0  0  0  0  0  0  0  0  0  0  0  0
   19.2271   17.6666   21.2114 C   0  0  0  0  0  0  0  0  0  0  0  0
   20.0518   17.8401   20.5061 H   0  0  0  0  0  0  0  0  0  0  0  0
   18.5616   16.9054   20.7822 H   0  0  0  0  0  0  0  0  0  0  0  0
   18.4988   18.9944   21.4899 C   0  0  0  0  0  0  0  0  0  0  0  0
   17.4535   18.7922   21.7576 H   0  0  0  0  0  0  0  0  0  0  0  0
   18.4968   19.6473   20.6069 H   0  0  0  0  0  0  0  0  0  0  0  0
   19.2106   19.6421   22.6955 C   0  0  0  0  0  0  0  0  0  0  0  0
   18.4637   19.9121   23.4562 H   0  0  0  0  0  0  0  0  0  0  0  0
   20.1737   18.5746   23.2564 C   0  0  0  0  0  0  0  0  0  0  0  0
   21.2123   18.8292   23.0050 H   0  0  0  0  0  0  0  0  0  0  0  0
   20.1002   18.4991   24.3490 H   0  0  0  0  0  0  0  0  0  0  0  0
   19.9398   20.7894   22.2763 O   0  0  0  0  0  0  0  0  0  0  0  0
   20.3781   21.1515   23.0752 H   0  0  0  0  0  0  0  0  0  0  0  0
  1  2  1  0  0  0  0
  1  3  1  0  0  0  0
  1  4  1  0  0  0  0
  4  5  1  0  0  0  0
  4  6  1  0  0  0  0
  4  7  1  0  0  0  0
  7  8  1  0  0  0  0
  7  9  1  0  0  0  0
  7 10  1  0  0  0  0
 10 11  1  0  0  0  0
  1 12  1  0  0  0  0
 10 12  1  0  0  0  0
 12 13  1  0  0  0  0
 12 14  1  0  0  0  0
 10 15  1  0  0  0  0
 15 16  1  0  0  0  0
M  END
> <VConfSearch Rank>
152

> <Conf_Id>
33

> <Delta U+W>
0.015

> <U+W>
3.025

> <U>
5.843

> <W>
-2.819

> <W(PB)>
-4.568

> <W(SA)>
1.750

> <Valence>
13.789

> <Coulomb>
-8.574

> <VdW>
0.628

> <VdW6>
-3.284

> <VdW12>
3.913

> <Bond>
0.054

> <Angle>
4.033

> <Pdih>
9.702

> <Idih>
0.000

> <Tether>
0.000

$$$$
VeraChem MOL file


 16 16  0  0  0  0  0  0  0  0999 V2000     
   20.0188   17.7893   21.4211 C   0  0  0  0  0  0  0  0  0  0  0  0
   21.0921   17.9989   21.3151 H   0  0  0  0  0  0  0  0  0  0  0  0
   19.7856   16.9187   20.7927 H   0  0  0  0  0  0  0  0  0  0  0  0
   19.1977   19.0283   21.0020 C   0  0  0  0  0  0  0  0  0  0  0  0
   19.8737   19.8373   20.6923 H   0  0  0  0  0  0  0  0  0  0  0  0
   18.5343   18.8057   20.1551 H   0  0  0  0  0  0  0  0  0  0  0  0
   18.3873   19.4568   22.2438 C   0  0  0  0  0  0  0  0  0  0  0  0
   17.3687   19.0528   22.1745 H   0  0  0  0  0  0  0  0  0  0  0  0
   18.3084   20.5485   22.3330 H   0  0  0  0  0  0  0  0  0  0  0  0
   19.0931   18.8245   23.4509 C   0  0  0  0  0  0  0  0  0  0  0  0
   18.3927   18.6406   24.2784 H   0  0  0  0  0  0  0  0  0  0  0  0
   19.6727   17.5148   22.9000 C   0  0  0  0  0  0  0  0  0  0  0  0
   20.5433   17.1711   23.4744 H   0  0  0  0  0  0  0  0  0  0  0  0
   18.9043   16.7326   22.9579 H   0  0  0  0  0  0  0  0  0  0  0  0
   20.1569   19.6688   23.8658 O   0  0  0  0  0  0  0  0  0  0  0  0
   20.7220   19.7749   23.0730 H   0  0  0  0  0  0  0  0  0  0  0  0
  1  2  1  0  0  0  0
  1  3  1  0  0  0  0
  1  4  1  0  0  0  0
  4  5  1  0  0  0  0
  4  6  1  0  0  0  0
  4  7  1  0  0  0  0
  7  8  1  0  0  0  0
  7  9  1  0  0  0  0
  7 10  1  0  0  0  0
 10 11  1  0  0  0  0
  1 12  1  0  0  0  0
 10 12  1  0  0  0  0
 12 13  1  0  0  0  0
 12 14  1  0  0  0  0
 10 15  1  0  0  0  0
 15 16  1  0  0  0  0
M  END
> <VConfSearch Rank>
153

> <Conf_Id>
20

> <Delta U+W>
-0.483

> <U+W>
2.527

> <U>
4.508

> <W>
-1.981

> <W(PB)>
-3.712

> <W(SA)>
1.732

> <Valence>
14.705

> <Coulomb>
-10.687

> <VdW>
0.490

> <VdW6>
-3.745

> <VdW12>
4.235

> <Bond>
0.068

> <Angle>
3.901

> <Pdih>
10.737

> <Idih>
0.000

> <Tether>
0.000

$$$$
VeraChem MOL file


 16 16  0  0  0  0  0  0  0  0999 V2000     
   18.1450   18.3590   21.5370 C   0  0  0  0  0  0  0  0  0  0  0  0
   18.3254   17.4458   20.9529 H   0  0  0  0  0  0  0  0  0  0  0  0
   17.1211   18.7009   21.3336 H   0  0  0  0  0  0  0  0  0  0  0  0
   19.1982   19.4160   21.1774 C   0  0  0  0  0  0  0  0  0  0  0  0
   19.4275   19.4290   20.1031 H   0  0  0  0  0  0  0  0  0  0  0  0
   18.8342   20.4127   21.4631 H   0  0  0  0  0  0  0  0  0  0  0  0
   20.4226   19.0434   22.0333 C   0  0  0  0  0  0  0  0  0  0  0  0
   21.0236   19.9281   22.2802 H   0  0  0  0  0  0  0  0  0  0  0  0
   21.0608   18.3481   21.4712 H   0  0  0  0  0  0  0  0  0  0  0  0
   19.8737   18.3583   23.3026 C   0  0  0  0  0  0  0  0  0  0  0  0
   19.9618   19.0361   24.1642 H   0  0  0  0  0  0  0  0  0  0  0  0
   18.3826   18.0709   23.0309 C   0  0  0  0  0  0  0  0  0  0  0  0
   18.1016   17.0424   23.2939 H   0  0  0  0  0  0  0  0  0  0  0  0
   17.7706   18.7498   23.6389 H   0  0  0  0  0  0  0  0  0  0  0  0
   20.5714   17.1425   23.5450 O   0  0  0  0  0  0  0  0  0  0  0  0
   21.5096   17.3825   23.6993 H   0  0  0  0  0  0  0  0  0  0  0  0
  1  2  1  0  0  0  0
  1  3  1  0  0  0  0
  1  4  1  0  0  0  0
  4  5  1  0  0  0  0
  4  6  1  0  0  0  0
  4  7  1  0  0  0  0
  7  8  1  0  0  0  0
  7  9  1  0  0  0  0
  7 10  1  0  0  0  0
 10 11  1  0  0  0  0
  1 12  1  0  0  0  0
 10 12  1  0  0  0  0
 12 13  1  0  0  0  0
 12 14  1  0  0  0  0
 10 15  1  0  0  0  0
 15 16  1  0  0  0  0
M  END
> <VConfSearch Rank>
154

> <Conf_Id>
59

> <Delta U+W>
0.000

> <U+W>
3.010

> <U>
5.843

> <W>
-2.833

> <W(PB)>
-4.568

> <W(SA)>
1.735

> <Valence>
13.789

> <Coulomb>
-8.574

> <VdW>
0.628

> <VdW6>
-3.284

> <VdW12>
3.912

> <Bond>
0.054

> <Angle>
4.034

> <Pdih>
9.702

> <Idih>
0.000

> <Tether>
0.000

$$$$
VeraChem MOL file


 16 16  0  0  0  0  0  0  0  0999 V2000     
   20.1965   19.5412   23.0945 C   0  0  0  0  0  0  0  0  0  0  0  0
   20.0892   20.5497   23.5166 H   0  0  0  0  0  0  0  0  0  0  0  0
   21.1072   19.0892   23.5118 H   0  0  0  0  0  0  0  0  0  0  0  0
   20.2828   19.5556   21.5621 C   0  0  0  0  0  0  0  0  0  0  0  0
   19.5814   20.3003   21.1608 H   0  0  0  0  0  0  0  0  0  0  0  0
   21.2905   19.8023   21.2010 H   0  0  0  0  0  0  0  0  0  0  0  0
   19.8355   18.1446   21.1378 C   0  0  0  0  0  0  0  0  0  0  0  0
   20.7086   17.4812   21.0866 H   0  0  0  0  0  0  0  0  0  0  0  0
   19.3628   18.1513   20.1466 H   0  0  0  0  0  0  0  0  0  0  0  0
   18.8813   17.6362   22.2382 C   0  0  0  0  0  0  0  0  0  0  0  0
   19.2100   16.6415   22.5730 H   0  0  0  0  0  0  0  0  0  0  0  0
   18.9826   18.6452   23.4015 C   0  0  0  0  0  0  0  0  0  0  0  0
   18.0765   19.2646   23.4482 H   0  0  0  0  0  0  0  0  0  0  0  0
   19.0936   18.1369   24.3680 H   0  0  0  0  0  0  0  0  0  0  0  0
   17.5474   17.5865   21.7462 O   0  0  0  0  0  0  0  0  0  0  0  0
   16.9866   17.2697   22.4856 H   0  0  0  0  0  0  0  0  0  0  0  0
  1  2  1  0  0  0  0
  1  3  1  0  0  0  0
  1  4  1  0  0  0  0
  4  5  1  0  0  0  0
  4  6  1  0  0  0  0
  4  7  1  0  0  0  0
  7  8  1  0  0  0  0
  7  9  1  0  0  0  0
  7 10  1  0  0  0  0
 10 11  1  0  0  0  0
  1 12  1  0  0  0  0
 10 12  1  0  0  0  0
 12 13  1  0  0  0  0
 12 14  1  0  0  0  0
 10 15  1  0  0  0  0
 15 16  1  0  0  0  0
M  END
> <VConfSearch Rank>
155

> <Conf_Id>
33

> <Delta U+W>
0.015

> <U+W>
3.025

> <U>
5.843

> <W>
-2.819

> <W(PB)>
-4.568

> <W(SA)>
1.750

> <Valence>
13.789

> <Coulomb>
-8.574

> <VdW>
0.628

> <VdW6>
-3.284

> <VdW12>
3.913

> <Bond>
0.054

> <Angle>
4.033

> <Pdih>
9.702

> <Idih>
0.000

> <Tether>
0.000

$$$$
VeraChem MOL file


 16 16  0  0  0  0  0  0  0  0999 V2000     
   20.0594   18.0149   21.2750 C   0  0  0  0  0  0  0  0  0  0  0  0
   20.9492   18.5672   20.9426 H   0  0  0  0  0  0  0  0  0  0  0  0
   20.0022   17.0894   20.6857 H   0  0  0  0  0  0  0  0  0  0  0  0
   18.7990   18.8871   21.0863 C   0  0  0  0  0  0  0  0  0  0  0  0
   19.0786   19.8611   20.6617 H   0  0  0  0  0  0  0  0  0  0  0  0
   18.0820   18.4174   20.3992 H   0  0  0  0  0  0  0  0  0  0  0  0
   18.1823   19.0742   22.4889 C   0  0  0  0  0  0  0  0  0  0  0  0
   17.3700   18.3495   22.6321 H   0  0  0  0  0  0  0  0  0  0  0  0
   17.7619   20.0791   22.6280 H   0  0  0  0  0  0  0  0  0  0  0  0
   19.3042   18.7696   23.4907 C   0  0  0  0  0  0  0  0  0  0  0  0
   18.9044   18.3987   24.4454 H   0  0  0  0  0  0  0  0  0  0  0  0
   20.1564   17.7067   22.7843 C   0  0  0  0  0  0  0  0  0  0  0  0
   21.1946   17.7007   23.1421 H   0  0  0  0  0  0  0  0  0  0  0  0
   19.7283   16.7156   22.9846 H   0  0  0  0  0  0  0  0  0  0  0  0
   20.0849   19.9393   23.6885 O   0  0  0  0  0  0  0  0  0  0  0  0
   20.3945   20.1931   22.7947 H   0  0  0  0  0  0  0  0  0  0  0  0
  1  2  1  0  0  0  0
  1  3  1  0  0  0  0
  1  4  1  0  0  0  0
  4  5  1  0  0  0  0
  4  6  1  0  0  0  0
  4  7  1  0  0  0  0
  7  8  1  0  0  0  0
  7  9  1  0  0  0  0
  7 10  1  0  0  0  0
 10 11  1  0  0  0  0
  1 12  1  0  0  0  0
 10 12  1  0  0  0  0
 12 13  1  0  0  0  0
 12 14  1  0  0  0  0
 10 15  1  0  0  0  0
 15 16  1  0  0  0  0
M  END
> <VConfSearch Rank>
156

> <Conf_Id>
20

> <Delta U+W>
-0.483

> <U+W>
2.527

> <U>
4.508

> <W>
-1.981

> <W(PB)>
-3.712

> <W(SA)>
1.732

> <Valence>
14.705

> <Coulomb>
-10.687

> <VdW>
0.490

> <VdW6>
-3.745

> <VdW12>
4.235

> <Bond>
0.068

> <Angle>
3.901

> <Pdih>
10.737

> <Idih>
0.000

> <Tether>
0.000

$$$$
VeraChem MOL file


 16 16  0  0  0  0  0  0  0  0999 V2000     
   18.2287   19.3874   21.9348 C   0  0  0  0  0  0  0  0  0  0  0  0
   18.4058   19.6436   20.8810 H   0  0  0  0  0  0  0  0  0  0  0  0
   17.2620   19.8140   22.2350 H   0  0  0  0  0  0  0  0  0  0  0  0
   19.3905   19.9071   22.7927 C   0  0  0  0  0  0  0  0  0  0  0  0
   19.7391   20.8971   22.4686 H   0  0  0  0  0  0  0  0  0  0  0  0
   19.0711   19.9817   23.8415 H   0  0  0  0  0  0  0  0  0  0  0  0
   20.4805   18.8283   22.6555 C   0  0  0  0  0  0  0  0  0  0  0  0
   21.1134   18.7815   23.5511 H   0  0  0  0  0  0  0  0  0  0  0  0
   21.1248   19.0697   21.7992 H   0  0  0  0  0  0  0  0  0  0  0  0
   19.7438   17.4944   22.4112 C   0  0  0  0  0  0  0  0  0  0  0  0
   19.7844   16.8708   23.3162 H   0  0  0  0  0  0  0  0  0  0  0  0
   18.2755   17.8581   22.1086 C   0  0  0  0  0  0  0  0  0  0  0  0
   17.8919   17.3384   21.2204 H   0  0  0  0  0  0  0  0  0  0  0  0
   17.6508   17.5650   22.9624 H   0  0  0  0  0  0  0  0  0  0  0  0
   20.3186   16.8119   21.3032 O   0  0  0  0  0  0  0  0  0  0  0  0
   21.2486   16.6166   21.5450 H   0  0  0  0  0  0  0  0  0  0  0  0
  1  2  1  0  0  0  0
  1  3  1  0  0  0  0
  1  4  1  0  0  0  0
  4  5  1  0  0  0  0
  4  6  1  0  0  0  0
  4  7  1  0  0  0  0
  7  8  1  0  0  0  0
  7  9  1  0  0  0  0
  7 10  1  0  0  0  0
 10 11  1  0  0  0  0
  1 12  1  0  0  0  0
 10 12  1  0  0  0  0
 12 13  1  0  0  0  0
 12 14  1  0  0  0  0
 10 15  1  0  0  0  0
 15 16  1  0  0  0  0
M  END
> <VConfSearch Rank>
157

> <Conf_Id>
59

> <Delta U+W>
0.000

> <U+W>
3.010

> <U>
5.843

> <W>
-2.833

> <W(PB)>
-4.568

> <W(SA)>
1.735

> <Valence>
13.789

> <Coulomb>
-8.574

> <VdW>
0.628

> <VdW6>
-3.284

> <VdW12>
3.912

> <Bond>
0.054

> <Angle>
4.034

> <Pdih>
9.702

> <Idih>
0.000

> <Tether>
0.000

$$$$
VeraChem MOL file


 16 16  0  0  0  0  0  0  0  0999 V2000     
   19.6658   19.5758   21.2501 C   0  0  0  0  0  0  0  0  0  0  0  0
   20.0970   20.5774   21.1175 H   0  0  0  0  0  0  0  0  0  0  0  0
   19.4309   19.1686   20.2568 H   0  0  0  0  0  0  0  0  0  0  0  0
   18.3967   19.5959   22.1131 C   0  0  0  0  0  0  0  0  0  0  0  0
   18.5263   20.3057   22.9420 H   0  0  0  0  0  0  0  0  0  0  0  0
   17.5060   19.8920   21.5425 H   0  0  0  0  0  0  0  0  0  0  0  0
   18.2880   18.1651   22.6716 C   0  0  0  0  0  0  0  0  0  0  0  0
   17.6973   17.5453   21.9846 H   0  0  0  0  0  0  0  0  0  0  0  0
   17.7877   18.1496   23.6491 H   0  0  0  0  0  0  0  0  0  0  0  0
   19.7254   17.6094   22.7407 C   0  0  0  0  0  0  0  0  0  0  0  0
   19.7615   16.6317   22.2383 H   0  0  0  0  0  0  0  0  0  0  0  0
   20.6188   18.6211   21.9923 C   0  0  0  0  0  0  0  0  0  0  0  0
   21.2246   19.1953   22.7066 H   0  0  0  0  0  0  0  0  0  0  0  0
   21.3037   18.1178   21.2976 H   0  0  0  0  0  0  0  0  0  0  0  0
   20.1425   17.4948   24.0960 O   0  0  0  0  0  0  0  0  0  0  0  0
   21.0604   17.1503   24.0796 H   0  0  0  0  0  0  0  0  0  0  0  0
  1  2  1  0  0  0  0
  1  3  1  0  0  0  0
  1  4  1  0  0  0  0
  4  5  1  0  0  0  0
  4  6  1  0  0  0  0
  4  7  1  0  0  0  0
  7  8  1  0  0  0  0
  7  9  1  0  0  0  0
  7 10  1  0  0  0  0
 10 11  1  0  0  0  0
  1 12  1  0  0  0  0
 10 12  1  0  0  0  0
 12 13  1  0  0  0  0
 12 14  1  0  0  0  0
 10 15  1  0  0  0  0
 15 16  1  0  0  0  0
M  END
> <VConfSearch Rank>
158

> <Conf_Id>
33

> <Delta U+W>
0.015

> <U+W>
3.025

> <U>
5.843

> <W>
-2.819

> <W(PB)>
-4.568

> <W(SA)>
1.750

> <Valence>
13.789

> <Coulomb>
-8.574

> <VdW>
0.628

> <VdW6>
-3.284

> <VdW12>
3.913

> <Bond>
0.054

> <Angle>
4.033

> <Pdih>
9.702

> <Idih>
0.000

> <Tether>
0.000

$$$$
VeraChem MOL file


 16 16  0  0  0  0  0  0  0  0999 V2000     
   19.1957   17.6456   23.1643 C   0  0  0  0  0  0  0  0  0  0  0  0
   19.9831   17.5883   23.9284 H   0  0  0  0  0  0  0  0  0  0  0  0
   18.4521   16.8699   23.3931 H   0  0  0  0  0  0  0  0  0  0  0  0
   19.8099   17.4475   21.7613 C   0  0  0  0  0  0  0  0  0  0  0  0
   20.8944   17.2931   21.8465 H   0  0  0  0  0  0  0  0  0  0  0  0
   19.3869   16.5686   21.2557 H   0  0  0  0  0  0  0  0  0  0  0  0
   19.5158   18.7387   20.9684 C   0  0  0  0  0  0  0  0  0  0  0  0
   18.6274   18.5894   20.3406 H   0  0  0  0  0  0  0  0  0  0  0  0
   20.3474   19.0207   20.3089 H   0  0  0  0  0  0  0  0  0  0  0  0
   19.2109   19.8196   22.0142 C   0  0  0  0  0  0  0  0  0  0  0  0
   18.5428   20.5947   21.6120 H   0  0  0  0  0  0  0  0  0  0  0  0
   18.5524   19.0487   23.1662 C   0  0  0  0  0  0  0  0  0  0  0  0
   18.6717   19.5600   24.1307 H   0  0  0  0  0  0  0  0  0  0  0  0
   17.4765   18.9592   22.9662 H   0  0  0  0  0  0  0  0  0  0  0  0
   20.4305   20.3879   22.4686 O   0  0  0  0  0  0  0  0  0  0  0  0
   20.9542   19.6318   22.8049 H   0  0  0  0  0  0  0  0  0  0  0  0
  1  2  1  0  0  0  0
  1  3  1  0  0  0  0
  1  4  1  0  0  0  0
  4  5  1  0  0  0  0
  4  6  1  0  0  0  0
  4  7  1  0  0  0  0
  7  8  1  0  0  0  0
  7  9  1  0  0  0  0
  7 10  1  0  0  0  0
 10 11  1  0  0  0  0
  1 12  1  0  0  0  0
 10 12  1  0  0  0  0
 12 13  1  0  0  0  0
 12 14  1  0  0  0  0
 10 15  1  0  0  0  0
 15 16  1  0  0  0  0
M  END
> <VConfSearch Rank>
159

> <Conf_Id>
20

> <Delta U+W>
-0.483

> <U+W>
2.527

> <U>
4.508

> <W>
-1.981

> <W(PB)>
-3.712

> <W(SA)>
1.732

> <Valence>
14.705

> <Coulomb>
-10.687

> <VdW>
0.490

> <VdW6>
-3.745

> <VdW12>
4.235

> <Bond>
0.068

> <Angle>
3.901

> <Pdih>
10.737

> <Idih>
0.000

> <Tether>
0.000

$$$$
VeraChem MOL file


 16 16  0  0  0  0  0  0  0  0999 V2000     
   18.1781   17.7176   22.1674 C   0  0  0  0  0  0  0  0  0  0  0  0
   18.5159   16.7027   22.4197 H   0  0  0  0  0  0  0  0  0  0  0  0
   17.0982   17.6816   21.9698 H   0  0  0  0  0  0  0  0  0  0  0  0
   18.9767   18.2417   20.9660 C   0  0  0  0  0  0  0  0  0  0  0  0
   19.1520   17.4646   20.2095 H   0  0  0  0  0  0  0  0  0  0  0  0
   18.4294   19.0672   20.4901 H   0  0  0  0  0  0  0  0  0  0  0  0
   20.2871   18.7698   21.5780 C   0  0  0  0  0  0  0  0  0  0  0  0
   20.7047   19.5923   20.9831 H   0  0  0  0  0  0  0  0  0  0  0  0
   21.0290   17.9601   21.6020 H   0  0  0  0  0  0  0  0  0  0  0  0
   19.9449   19.2242   23.0126 C   0  0  0  0  0  0  0  0  0  0  0  0
   19.9297   20.3225   23.0660 H   0  0  0  0  0  0  0  0  0  0  0  0
   18.5336   18.6798   23.3158 C   0  0  0  0  0  0  0  0  0  0  0  0
   18.4803   18.1807   24.2925 H   0  0  0  0  0  0  0  0  0  0  0  0
   17.8227   19.5161   23.3292 H   0  0  0  0  0  0  0  0  0  0  0  0
   20.8861   18.6882   23.9350 O   0  0  0  0  0  0  0  0  0  0  0  0
   21.7611   19.0566   23.6899 H   0  0  0  0  0  0  0  0  0  0  0  0
  1  2  1  0  0  0  0
  1  3  1  0  0  0  0
  1  4  1  0  0  0  0
  4  5  1  0  0  0  0
  4  6  1  0  0  0  0
  4  7  1  0  0  0  0
  7  8  1  0  0  0  0
  7  9  1  0  0  0  0
  7 10  1  0  0  0  0
 10 11  1  0  0  0  0
  1 12  1  0  0  0  0
 10 12  1  0  0  0  0
 12 13  1  0  0  0  0
 12 14  1  0  0  0  0
 10 15  1  0  0  0  0
 15 16  1  0  0  0  0
M  END
> <VConfSearch Rank>
160

> <Conf_Id>
59

> <Delta U+W>
0.000

> <U+W>
3.010

> <U>
5.843

> <W>
-2.833

> <W(PB)>
-4.568

> <W(SA)>
1.735

> <Valence>
13.789

> <Coulomb>
-8.574

> <VdW>
0.628

> <VdW6>
-3.284

> <VdW12>
3.912

> <Bond>
0.054

> <Angle>
4.034

> <Pdih>
9.702

> <Idih>
0.000

> <Tether>
0.000

$$$$
VeraChem MOL file


 16 16  0  0  0  0  0  0  0  0999 V2000     
   19.6501   20.0338   22.3174 C   0  0  0  0  0  0  0  0  0  0  0  0
   20.4695   20.7588   22.4156 H   0  0  0  0  0  0  0  0  0  0  0  0
   18.7348   20.5829   22.0562 H   0  0  0  0  0  0  0  0  0  0  0  0
   19.4214   19.2329   23.6066 C   0  0  0  0  0  0  0  0  0  0  0  0
   20.3900   18.9827   24.0615 H   0  0  0  0  0  0  0  0  0  0  0  0
   18.8274   19.7878   24.3455 H   0  0  0  0  0  0  0  0  0  0  0  0
   18.7223   17.9428   23.1398 C   0  0  0  0  0  0  0  0  0  0  0  0
   17.6344   18.0890   23.1496 H   0  0  0  0  0  0  0  0  0  0  0  0
   18.9513   17.0967   23.8015 H   0  0  0  0  0  0  0  0  0  0  0  0
   19.1833   17.6930   21.6890 C   0  0  0  0  0  0  0  0  0  0  0  0
   18.3022   17.5381   21.0494 H   0  0  0  0  0  0  0  0  0  0  0  0
   19.9391   18.9643   21.2482 C   0  0  0  0  0  0  0  0  0  0  0  0
   21.0198   18.7709   21.2106 H   0  0  0  0  0  0  0  0  0  0  0  0
   19.6214   19.2974   20.2517 H   0  0  0  0  0  0  0  0  0  0  0  0
   20.0482   16.5647   21.6365 O   0  0  0  0  0  0  0  0  0  0  0  0
   20.3175   16.4602   20.6994 H   0  0  0  0  0  0  0  0  0  0  0  0
  1  2  1  0  0  0  0
  1  3  1  0  0  0  0
  1  4  1  0  0  0  0
  4  5  1  0  0  0  0
  4  6  1  0  0  0  0
  4  7  1  0  0  0  0
  7  8  1  0  0  0  0
  7  9  1  0  0  0  0
  7 10  1  0  0  0  0
 10 11  1  0  0  0  0
  1 12  1  0  0  0  0
 10 12  1  0  0  0  0
 12 13  1  0  0  0  0
 12 14  1  0  0  0  0
 10 15  1  0  0  0  0
 15 16  1  0  0  0  0
M  END
> <VConfSearch Rank>
161

> <Conf_Id>
33

> <Delta U+W>
0.015

> <U+W>
3.025

> <U>
5.843

> <W>
-2.819

> <W(PB)>
-4.568

> <W(SA)>
1.750

> <Valence>
13.789

> <Coulomb>
-8.574

> <VdW>
0.628

> <VdW6>
-3.284

> <VdW12>
3.913

> <Bond>
0.054

> <Angle>
4.033

> <Pdih>
9.702

> <Idih>
0.000

> <Tether>
0.000

$$$$
VeraChem MOL file


 16 16  0  0  0  0  0  0  0  0999 V2000     
   19.4109   19.1270   21.0265 C   0  0  0  0  0  0  0  0  0  0  0  0
   18.4754   19.0105   20.4623 H   0  0  0  0  0  0  0  0  0  0  0  0
   20.1195   19.6723   20.3881 H   0  0  0  0  0  0  0  0  0  0  0  0
   19.9590   17.7399   21.4272 C   0  0  0  0  0  0  0  0  0  0  0  0
   19.2892   16.9520   21.0559 H   0  0  0  0  0  0  0  0  0  0  0  0
   20.9546   17.5600   20.9991 H   0  0  0  0  0  0  0  0  0  0  0  0
   20.0058   17.7167   22.9698 C   0  0  0  0  0  0  0  0  0  0  0  0
   21.0227   17.9536   23.3095 H   0  0  0  0  0  0  0  0  0  0  0  0
   19.7371   16.7339   23.3797 H   0  0  0  0  0  0  0  0  0  0  0  0
   19.0527   18.8233   23.4408 C   0  0  0  0  0  0  0  0  0  0  0  0
   19.3502   19.2236   24.4207 H   0  0  0  0  0  0  0  0  0  0  0  0
   19.1484   19.8904   22.3421 C   0  0  0  0  0  0  0  0  0  0  0  0
   18.2462   20.5143   22.2884 H   0  0  0  0  0  0  0  0  0  0  0  0
   19.9986   20.5504   22.5592 H   0  0  0  0  0  0  0  0  0  0  0  0
   17.7281   18.3130   23.4830 O   0  0  0  0  0  0  0  0  0  0  0  0
   17.5533   17.9827   22.5777 H   0  0  0  0  0  0  0  0  0  0  0  0
  1  2  1  0  0  0  0
  1  3  1  0  0  0  0
  1  4  1  0  0  0  0
  4  5  1  0  0  0  0
  4  6  1  0  0  0  0
  4  7  1  0  0  0  0
  7  8  1  0  0  0  0
  7  9  1  0  0  0  0
  7 10  1  0  0  0  0
 10 11  1  0  0  0  0
  1 12  1  0  0  0  0
 10 12  1  0  0  0  0
 12 13  1  0  0  0  0
 12 14  1  0  0  0  0
 10 15  1  0  0  0  0
 15 16  1  0  0  0  0
M  END
> <VConfSearch Rank>
162

> <Conf_Id>
20

> <Delta U+W>
-0.483

> <U+W>
2.527

> <U>
4.508

> <W>
-1.981

> <W(PB)>
-3.712

> <W(SA)>
1.732

> <Valence>
14.705

> <Coulomb>
-10.687

> <VdW>
0.490

> <VdW6>
-3.745

> <VdW12>
4.235

> <Bond>
0.068

> <Angle>
3.901

> <Pdih>
10.737

> <Idih>
0.000

> <Tether>
0.000

$$$$
VeraChem MOL file


 16 16  0  0  0  0  0  0  0  0999 V2000     
   19.8493   17.4464   23.1176 C   0  0  0  0  0  0  0  0  0  0  0  0
   20.3308   16.7669   22.4007 H   0  0  0  0  0  0  0  0  0  0  0  0
   19.9898   17.0373   24.1273 H   0  0  0  0  0  0  0  0  0  0  0  0
   18.3676   17.6125   22.7533 C   0  0  0  0  0  0  0  0  0  0  0  0
   17.9101   16.6698   22.4233 H   0  0  0  0  0  0  0  0  0  0  0  0
   17.8106   17.9771   23.6277 H   0  0  0  0  0  0  0  0  0  0  0  0
   18.3626   18.6846   21.6483 C   0  0  0  0  0  0  0  0  0  0  0  0
   17.4278   19.2600   21.6519 H   0  0  0  0  0  0  0  0  0  0  0  0
   18.4548   18.1968   20.6684 H   0  0  0  0  0  0  0  0  0  0  0  0
   19.5856   19.5879   21.9132 C   0  0  0  0  0  0  0  0  0  0  0  0
   19.2575   20.5564   22.3179 H   0  0  0  0  0  0  0  0  0  0  0  0
   20.4435   18.8591   22.9680 C   0  0  0  0  0  0  0  0  0  0  0  0
   21.5052   18.8237   22.6896 H   0  0  0  0  0  0  0  0  0  0  0  0
   20.3668   19.3942   23.9235 H   0  0  0  0  0  0  0  0  0  0  0  0
   20.3307   19.7692   20.7149 O   0  0  0  0  0  0  0  0  0  0  0  0
   19.7369   20.2237   20.0806 H   0  0  0  0  0  0  0  0  0  0  0  0
  1  2  1  0  0  0  0
  1  3  1  0  0  0  0
  1  4  1  0  0  0  0
  4  5  1  0  0  0  0
  4  6  1  0  0  0  0
  4  7  1  0  0  0  0
  7  8  1  0  0  0  0
  7  9  1  0  0  0  0
  7 10  1  0  0  0  0
 10 11  1  0  0  0  0
  1 12  1  0  0  0  0
 10 12  1  0  0  0  0
 12 13  1  0  0  0  0
 12 14  1  0  0  0  0
 10 15  1  0  0  0  0
 15 16  1  0  0  0  0
M  END
> <VConfSearch Rank>
163

> <Conf_Id>
59

> <Delta U+W>
0.000

> <U+W>
3.010

> <U>
5.843

> <W>
-2.833

> <W(PB)>
-4.568

> <W(SA)>
1.735

> <Valence>
13.789

> <Coulomb>
-8.574

> <VdW>
0.628

> <VdW6>
-3.284

> <VdW12>
3.912

> <Bond>
0.054

> <Angle>
4.034

> <Pdih>
9.702

> <Idih>
0.000

> <Tether>
0.000

$$$$
VeraChem MOL file


 16 16  0  0  0  0  0  0  0  0999 V2000     
   20.5485   18.5178   21.3707 C   0  0  0  0  0  0  0  0  0  0  0  0
   20.9103   17.8562   20.5719 H   0  0  0  0  0  0  0  0  0  0  0  0
   21.1705   19.4238   21.3746 H   0  0  0  0  0  0  0  0  0  0  0  0
   20.6013   17.8494   22.7513 C   0  0  0  0  0  0  0  0  0  0  0  0
   20.2973   16.7970   22.6629 H   0  0  0  0  0  0  0  0  0  0  0  0
   21.6058   17.8813   23.1948 H   0  0  0  0  0  0  0  0  0  0  0  0
   19.5636   18.6170   23.5910 C   0  0  0  0  0  0  0  0  0  0  0  0
   20.0484   19.4671   24.0885 H   0  0  0  0  0  0  0  0  0  0  0  0
   19.1236   17.9807   24.3704 H   0  0  0  0  0  0  0  0  0  0  0  0
   18.5052   19.1493   22.6029 C   0  0  0  0  0  0  0  0  0  0  0  0
   18.3628   20.2271   22.7688 H   0  0  0  0  0  0  0  0  0  0  0  0
   19.0689   18.9026   21.1876 C   0  0  0  0  0  0  0  0  0  0  0  0
   18.5349   18.0730   20.7045 H   0  0  0  0  0  0  0  0  0  0  0  0
   18.9611   19.7896   20.5502 H   0  0  0  0  0  0  0  0  0  0  0  0
   17.2793   18.4476   22.7723 O   0  0  0  0  0  0  0  0  0  0  0  0
   16.6511   18.8165   22.1159 H   0  0  0  0  0  0  0  0  0  0  0  0
  1  2  1  0  0  0  0
  1  3  1  0  0  0  0
  1  4  1  0  0  0  0
  4  5  1  0  0  0  0
  4  6  1  0  0  0  0
  4  7  1  0  0  0  0
  7  8  1  0  0  0  0
  7  9  1  0  0  0  0
  7 10  1  0  0  0  0
 10 11  1  0  0  0  0
  1 12  1  0  0  0  0
 10 12  1  0  0  0  0
 12 13  1  0  0  0  0
 12 14  1  0  0  0  0
 10 15  1  0  0  0  0
 15 16  1  0  0  0  0
M  END
> <VConfSearch Rank>
164

> <Conf_Id>
33

> <Delta U+W>
0.015

> <U+W>
3.025

> <U>
5.843

> <W>
-2.819

> <W(PB)>
-4.568

> <W(SA)>
1.750

> <Valence>
13.789

> <Coulomb>
-8.574

> <VdW>
0.628

> <VdW6>
-3.284

> <VdW12>
3.913

> <Bond>
0.054

> <Angle>
4.033

> <Pdih>
9.702

> <Idih>
0.000

> <Tether>
0.000

$$$$
VeraChem MOL file


 16 16  0  0  0  0  0  0  0  0999 V2000     
   19.1657   17.8996   21.1469 C   0  0  0  0  0  0  0  0  0  0  0  0
   19.9579   17.9939   20.3914 H   0  0  0  0  0  0  0  0  0  0  0  0
   18.4104   17.2057   20.7531 H   0  0  0  0  0  0  0  0  0  0  0  0
   18.5594   19.2876   21.4483 C   0  0  0  0  0  0  0  0  0  0  0  0
   19.0574   20.0535   20.8379 H   0  0  0  0  0  0  0  0  0  0  0  0
   17.4867   19.3195   21.2130 H   0  0  0  0  0  0  0  0  0  0  0  0
   18.8067   19.5570   22.9479 C   0  0  0  0  0  0  0  0  0  0  0  0
   17.9050   19.3017   23.5200 H   0  0  0  0  0  0  0  0  0  0  0  0
   19.0423   20.6107   23.1482 H   0  0  0  0  0  0  0  0  0  0  0  0
   19.9452   18.6171   23.3665 C   0  0  0  0  0  0  0  0  0  0  0  0
   19.8855   18.3595   24.4338 H   0  0  0  0  0  0  0  0  0  0  0  0
   19.7555   17.3818   22.4760 C   0  0  0  0  0  0  0  0  0  0  0  0
   20.6921   16.8279   22.3279 H   0  0  0  0  0  0  0  0  0  0  0  0
   19.0382   16.7031   22.9559 H   0  0  0  0  0  0  0  0  0  0  0  0
   21.1911   19.2267   23.0614 O   0  0  0  0  0  0  0  0  0  0  0  0
   21.1528   19.4182   22.1017 H   0  0  0  0  0  0  0  0  0  0  0  0
  1  2  1  0  0  0  0
  1  3  1  0  0  0  0
  1  4  1  0  0  0  0
  4  5  1  0  0  0  0
  4  6  1  0  0  0  0
  4  7  1  0  0  0  0
  7  8  1  0  0  0  0
  7  9  1  0  0  0  0
  7 10  1  0  0  0  0
 10 11  1  0  0  0  0
  1 12  1  0  0  0  0
 10 12  1  0  0  0  0
 12 13  1  0  0  0  0
 12 14  1  0  0  0  0
 10 15  1  0  0  0  0
 15 16  1  0  0  0  0
M  END
> <VConfSearch Rank>
165

> <Conf_Id>
20

> <Delta U+W>
-0.483

> <U+W>
2.527

> <U>
4.508

> <W>
-1.981

> <W(PB)>
-3.712

> <W(SA)>
1.732

> <Valence>
14.705

> <Coulomb>
-10.687

> <VdW>
0.490

> <VdW6>
-3.745

> <VdW12>
4.235

> <Bond>
0.068

> <Angle>
3.901

> <Pdih>
10.737

> <Idih>
0.000

> <Tether>
0.000

$$$$
VeraChem MOL file


 16 16  0  0  0  0  0  0  0  0999 V2000     
   19.6956   19.7934   21.6330 C   0  0  0  0  0  0  0  0  0  0  0  0
   18.7292   20.2461   21.3710 H   0  0  0  0  0  0  0  0  0  0  0  0
   20.4934   20.4833   21.3259 H   0  0  0  0  0  0  0  0  0  0  0  0
   19.8186   18.4188   20.9613 C   0  0  0  0  0  0  0  0  0  0  0  0
   19.4139   18.4150   19.9400 H   0  0  0  0  0  0  0  0  0  0  0  0
   20.8763   18.1244   20.9128 H   0  0  0  0  0  0  0  0  0  0  0  0
   19.0547   17.4650   21.8979 C   0  0  0  0  0  0  0  0  0  0  0  0
   19.4629   16.4470   21.8535 H   0  0  0  0  0  0  0  0  0  0  0  0
   18.0012   17.4199   21.5898 H   0  0  0  0  0  0  0  0  0  0  0  0
   19.1720   18.0618   23.3162 C   0  0  0  0  0  0  0  0  0  0  0  0
   19.8753   17.4675   23.9177 H   0  0  0  0  0  0  0  0  0  0  0  0
   19.7304   19.4893   23.1421 C   0  0  0  0  0  0  0  0  0  0  0  0
   19.1621   20.2323   23.7174 H   0  0  0  0  0  0  0  0  0  0  0  0
   20.7683   19.5137   23.4990 H   0  0  0  0  0  0  0  0  0  0  0  0
   17.8927   18.1078   23.9369 O   0  0  0  0  0  0  0  0  0  0  0  0
   17.5830   17.1804   24.0118 H   0  0  0  0  0  0  0  0  0  0  0  0
  1  2  1  0  0  0  0
  1  3  1  0  0  0  0
  1  4  1  0  0  0  0
  4  5  1  0  0  0  0
  4  6  1  0  0  0  0
  4  7  1  0  0  0  0
  7  8  1  0  0  0  0
  7  9  1  0  0  0  0
  7 10  1  0  0  0  0
 10 11  1  0  0  0  0
  1 12  1  0  0  0  0
 10 12  1  0  0  0  0
 12 13  1  0  0  0  0
 12 14  1  0  0  0  0
 10 15  1  0  0  0  0
 15 16  1  0  0  0  0
M  END
> <VConfSearch Rank>
166

> <Conf_Id>
59

> <Delta U+W>
0.000

> <U+W>
3.010

> <U>
5.843

> <W>
-2.833

> <W(PB)>
-4.568

> <W(SA)>
1.735

> <Valence>
13.789

> <Coulomb>
-8.574

> <VdW>
0.628

> <VdW6>
-3.284

> <VdW12>
3.912

> <Bond>
0.054

> <Angle>
4.034

> <Pdih>
9.702

> <Idih>
0.000

> <Tether>
0.000

$$$$
VeraChem MOL file


 16 16  0  0  0  0  0  0  0  0999 V2000     
   19.3075   17.2320   22.6592 C   0  0  0  0  0  0  0  0  0  0  0  0
   18.9461   16.2889   22.2271 H   0  0  0  0  0  0  0  0  0  0  0  0
   19.7953   17.0061   23.6177 H   0  0  0  0  0  0  0  0  0  0  0  0
   18.1753   18.2440   22.8820 C   0  0  0  0  0  0  0  0  0  0  0  0
   17.4735   18.2034   22.0372 H   0  0  0  0  0  0  0  0  0  0  0  0
   17.6136   18.0486   23.8056 H   0  0  0  0  0  0  0  0  0  0  0  0
   18.8803   19.6128   22.9014 C   0  0  0  0  0  0  0  0  0  0  0  0
   19.1763   19.8602   23.9291 H   0  0  0  0  0  0  0  0  0  0  0  0
   18.2194   20.4131   22.5425 H   0  0  0  0  0  0  0  0  0  0  0  0
   20.1478   19.4670   22.0342 C   0  0  0  0  0  0  0  0  0  0  0  0
   21.0194   19.8242   22.6018 H   0  0  0  0  0  0  0  0  0  0  0  0
   20.2959   17.9611   21.7308 C   0  0  0  0  0  0  0  0  0  0  0  0
   20.0308   17.7556   20.6847 H   0  0  0  0  0  0  0  0  0  0  0  0
   21.3257   17.6166   21.8914 H   0  0  0  0  0  0  0  0  0  0  0  0
   20.0007   20.1995   20.8235 O   0  0  0  0  0  0  0  0  0  0  0  0
   20.8250   20.0628   20.3102 H   0  0  0  0  0  0  0  0  0  0  0  0
  1  2  1  0  0  0  0
  1  3  1  0  0  0  0
  1  4  1  0  0  0  0
  4  5  1  0  0  0  0
  4  6  1  0  0  0  0
  4  7  1  0  0  0  0
  7  8  1  0  0  0  0
  7  9  1  0  0  0  0
  7 10  1  0  0  0  0
 10 11  1  0  0  0  0
  1 12  1  0  0  0  0
 10 12  1  0  0  0  0
 12 13  1  0  0  0  0
 12 14  1  0  0  0  0
 10 15  1  0  0  0  0
 15 16  1  0  0  0  0
M  END
> <VConfSearch Rank>
167

> <Conf_Id>
33

> <Delta U+W>
0.015

> <U+W>
3.025

> <U>
5.843

> <W>
-2.819

> <W(PB)>
-4.568

> <W(SA)>
1.750

> <Valence>
13.789

> <Coulomb>
-8.574

> <VdW>
0.628

> <VdW6>
-3.284

> <VdW12>
3.913

> <Bond>
0.054

> <Angle>
4.033

> <Pdih>
9.702

> <Idih>
0.000

> <Tether>
0.000

$$$$
VeraChem MOL file


 16 16  0  0  0  0  0  0  0  0999 V2000     
   18.2682   19.3463   22.1531 C   0  0  0  0  0  0  0  0  0  0  0  0
   18.4154   20.3192   21.6641 H   0  0  0  0  0  0  0  0  0  0  0  0
   17.2026   19.2580   22.4056 H   0  0  0  0  0  0  0  0  0  0  0  0
   19.1597   19.2502   23.4105 C   0  0  0  0  0  0  0  0  0  0  0  0
   19.7375   20.1769   23.5307 H   0  0  0  0  0  0  0  0  0  0  0  0
   18.5604   19.1106   24.3207 H   0  0  0  0  0  0  0  0  0  0  0  0
   20.1098   18.0552   23.1831 C   0  0  0  0  0  0  0  0  0  0  0  0
   19.7094   17.1668   23.6891 H   0  0  0  0  0  0  0  0  0  0  0  0
   21.1160   18.2417   23.5816 H   0  0  0  0  0  0  0  0  0  0  0  0
   20.1216   17.8035   21.6693 C   0  0  0  0  0  0  0  0  0  0  0  0
   20.3379   16.7511   21.4358 H   0  0  0  0  0  0  0  0  0  0  0  0
   18.7123   18.2050   21.2136 C   0  0  0  0  0  0  0  0  0  0  0  0
   18.6857   18.5017   20.1566 H   0  0  0  0  0  0  0  0  0  0  0  0
   18.0396   17.3459   21.3365 H   0  0  0  0  0  0  0  0  0  0  0  0
   21.0730   18.6636   21.0596 O   0  0  0  0  0  0  0  0  0  0  0  0
   20.8027   19.5682   21.3202 H   0  0  0  0  0  0  0  0  0  0  0  0
  1  2  1  0  0  0  0
  1  3  1  0  0  0  0
  1  4  1  0  0  0  0
  4  5  1  0  0  0  0
  4  6  1  0  0  0  0
  4  7  1  0  0  0  0
  7  8  1  0  0  0  0
  7  9  1  0  0  0  0
  7 10  1  0  0  0  0
 10 11  1  0  0  0  0
  1 12  1  0  0  0  0
 10 12  1  0  0  0  0
 12 13  1  0  0  0  0
 12 14  1  0  0  0  0
 10 15  1  0  0  0  0
 15 16  1  0  0  0  0
M  END
> <VConfSearch Rank>
168

> <Conf_Id>
20

> <Delta U+W>
-0.483

> <U+W>
2.527

> <U>
4.508

> <W>
-1.981

> <W(PB)>
-3.712

> <W(SA)>
1.732

> <Valence>
14.705

> <Coulomb>
-10.687

> <VdW>
0.490

> <VdW6>
-3.745

> <VdW12>
4.235

> <Bond>
0.068

> <Angle>
3.901

> <Pdih>
10.737

> <Idih>
0.000

> <Tether>
0.000

$$$$
VeraChem MOL file


 16 16  0  0  0  0  0  0  0  0999 V2000     
   19.3262   18.9674   23.7077 C   0  0  0  0  0  0  0  0  0  0  0  0
   18.9483   19.9992   23.6895 H   0  0  0  0  0  0  0  0  0  0  0  0
   19.4637   18.6697   24.7560 H   0  0  0  0  0  0  0  0  0  0  0  0
   20.6276   18.8820   22.8985 C   0  0  0  0  0  0  0  0  0  0  0  0
   21.2730   19.7578   23.0513 H   0  0  0  0  0  0  0  0  0  0  0  0
   21.1893   17.9853   23.1954 H   0  0  0  0  0  0  0  0  0  0  0  0
   20.1620   18.7451   21.4374 C   0  0  0  0  0  0  0  0  0  0  0  0
   20.8879   18.1827   20.8361 H   0  0  0  0  0  0  0  0  0  0  0  0
   20.0588   19.7448   20.9938 H   0  0  0  0  0  0  0  0  0  0  0  0
   18.7920   18.0360   21.4821 C   0  0  0  0  0  0  0  0  0  0  0  0
   18.8953   16.9956   21.1409 H   0  0  0  0  0  0  0  0  0  0  0  0
   18.3457   18.0460   22.9588 C   0  0  0  0  0  0  0  0  0  0  0  0
   17.3062   18.3797   23.0779 H   0  0  0  0  0  0  0  0  0  0  0  0
   18.4171   17.0272   23.3612 H   0  0  0  0  0  0  0  0  0  0  0  0
   17.8495   18.7377   20.6800 O   0  0  0  0  0  0  0  0  0  0  0  0
   18.1871   18.7094   19.7598 H   0  0  0  0  0  0  0  0  0  0  0  0
  1  2  1  0  0  0  0
  1  3  1  0  0  0  0
  1  4  1  0  0  0  0
  4  5  1  0  0  0  0
  4  6  1  0  0  0  0
  4  7  1  0  0  0  0
  7  8  1  0  0  0  0
  7  9  1  0  0  0  0
  7 10  1  0  0  0  0
 10 11  1  0  0  0  0
  1 12  1  0  0  0  0
 10 12  1  0  0  0  0
 12 13  1  0  0  0  0
 12 14  1  0  0  0  0
 10 15  1  0  0  0  0
 15 16  1  0  0  0  0
M  END
> <VConfSearch Rank>
169

> <Conf_Id>
59

> <Delta U+W>
0.000

> <U+W>
3.010

> <U>
5.843

> <W>
-2.833

> <W(PB)>
-4.568

> <W(SA)>
1.735

> <Valence>
13.789

> <Coulomb>
-8.574

> <VdW>
0.628

> <VdW6>
-3.284

> <VdW12>
3.912

> <Bond>
0.054

> <Angle>
4.034

> <Pdih>
9.702

> <Idih>
0.000

> <Tether>
0.000

$$$$
VeraChem MOL file


 16 16  0  0  0  0  0  0  0  0999 V2000     
   18.2515   19.3614   22.5333 C   0  0  0  0  0  0  0  0  0  0  0  0
   17.9314   20.2802   23.0434 H   0  0  0  0  0  0  0  0  0  0  0  0
   17.4008   18.9756   21.9544 H   0  0  0  0  0  0  0  0  0  0  0  0
   18.7372   18.2869   23.5157 C   0  0  0  0  0  0  0  0  0  0  0  0
   19.3198   18.7588   24.3192 H   0  0  0  0  0  0  0  0  0  0  0  0
   17.9076   17.7309   23.9732 H   0  0  0  0  0  0  0  0  0  0  0  0
   19.6570   17.3830   22.6743 C   0  0  0  0  0  0  0  0  0  0  0  0
   19.0675   16.5726   22.2262 H   0  0  0  0  0  0  0  0  0  0  0  0
   20.4437   16.9237   23.2876 H   0  0  0  0  0  0  0  0  0  0  0  0
   20.2331   18.2674   21.5492 C   0  0  0  0  0  0  0  0  0  0  0  0
   20.0723   17.7730   20.5801 H   0  0  0  0  0  0  0  0  0  0  0  0
   19.4526   19.5978   21.5994 C   0  0  0  0  0  0  0  0  0  0  0  0
   20.0846   20.3945   22.0151 H   0  0  0  0  0  0  0  0  0  0  0  0
   19.1273   19.9127   20.5995 H   0  0  0  0  0  0  0  0  0  0  0  0
   21.6186   18.5024   21.7707 O   0  0  0  0  0  0  0  0  0  0  0  0
   21.9276   19.0749   21.0371 H   0  0  0  0  0  0  0  0  0  0  0  0
  1  2  1  0  0  0  0
  1  3  1  0  0  0  0
  1  4  1  0  0  0  0
  4  5  1  0  0  0  0
  4  6  1  0  0  0  0
  4  7  1  0  0  0  0
  7  8  1  0  0  0  0
  7  9  1  0  0  0  0
  7 10  1  0  0  0  0
 10 11  1  0  0  0  0
  1 12  1  0  0  0  0
 10 12  1  0  0  0  0
 12 13  1  0  0  0  0
 12 14  1  0  0  0  0
 10 15  1  0  0  0  0
 15 16  1  0  0  0  0
M  END
> <VConfSearch Rank>
170

> <Conf_Id>
33

> <Delta U+W>
0.015

> <U+W>
3.025

> <U>
5.843

> <W>
-2.819

> <W(PB)>
-4.568

> <W(SA)>
1.750

> <Valence>
13.789

> <Coulomb>
-8.574

> <VdW>
0.628

> <VdW6>
-3.284

> <VdW12>
3.913

> <Bond>
0.054

> <Angle>
4.033

> <Pdih>
9.702

> <Idih>
0.000

> <Tether>
0.000

$$$$
VeraChem MOL file


 16 16  0  0  0  0  0  0  0  0999 V2000     
   19.5869   19.6976   23.0059 C   0  0  0  0  0  0  0  0  0  0  0  0
   18.7730   20.4347   22.9689 H   0  0  0  0  0  0  0  0  0  0  0  0
   20.3554   20.0836   23.6895 H   0  0  0  0  0  0  0  0  0  0  0  0
   20.1524   19.4680   21.5872 C   0  0  0  0  0  0  0  0  0  0  0  0
   19.6129   20.0948   20.8639 H   0  0  0  0  0  0  0  0  0  0  0  0
   21.2170   19.7330   21.5290 H   0  0  0  0  0  0  0  0  0  0  0  0
   19.9341   17.9743   21.2655 C   0  0  0  0  0  0  0  0  0  0  0  0
   20.8583   17.4167   21.4670 H   0  0  0  0  0  0  0  0  0  0  0  0
   19.6674   17.8098   20.2129 H   0  0  0  0  0  0  0  0  0  0  0  0
   18.8397   17.4882   22.2251 C   0  0  0  0  0  0  0  0  0  0  0  0
   18.9353   16.4135   22.4370 H   0  0  0  0  0  0  0  0  0  0  0  0
   19.0493   18.3337   23.4886 C   0  0  0  0  0  0  0  0  0  0  0  0
   18.1289   18.4344   24.0791 H   0  0  0  0  0  0  0  0  0  0  0  0
   19.8015   17.8464   24.1229 H   0  0  0  0  0  0  0  0  0  0  0  0
   17.5662   17.7839   21.6705 O   0  0  0  0  0  0  0  0  0  0  0  0
   17.5735   18.7511   21.5170 H   0  0  0  0  0  0  0  0  0  0  0  0
  1  2  1  0  0  0  0
  1  3  1  0  0  0  0
  1  4  1  0  0  0  0
  4  5  1  0  0  0  0
  4  6  1  0  0  0  0
  4  7  1  0  0  0  0
  7  8  1  0  0  0  0
  7  9  1  0  0  0  0
  7 10  1  0  0  0  0
 10 11  1  0  0  0  0
  1 12  1  0  0  0  0
 10 12  1  0  0  0  0
 12 13  1  0  0  0  0
 12 14  1  0  0  0  0
 10 15  1  0  0  0  0
 15 16  1  0  0  0  0
M  END
> <VConfSearch Rank>
171

> <Conf_Id>
20

> <Delta U+W>
-0.483

> <U+W>
2.527

> <U>
4.508

> <W>
-1.981

> <W(PB)>
-3.712

> <W(SA)>
1.732

> <Valence>
14.705

> <Coulomb>
-10.687

> <VdW>
0.490

> <VdW6>
-3.745

> <VdW12>
4.235

> <Bond>
0.068

> <Angle>
3.901

> <Pdih>
10.737

> <Idih>
0.000

> <Tether>
0.000

$$$$
VeraChem MOL file


 16 16  0  0  0  0  0  0  0  0999 V2000     
   19.9270   18.6999   23.6441 C   0  0  0  0  0  0  0  0  0  0  0  0
   20.9900   18.4462   23.5280 H   0  0  0  0  0  0  0  0  0  0  0  0
   19.7581   19.0061   24.6854 H   0  0  0  0  0  0  0  0  0  0  0  0
   19.0640   17.4969   23.2396 C   0  0  0  0  0  0  0  0  0  0  0  0
   19.4914   16.5432   23.5780 H   0  0  0  0  0  0  0  0  0  0  0  0
   18.0607   17.5981   23.6765 H   0  0  0  0  0  0  0  0  0  0  0  0
   18.9755   17.5876   21.7051 C   0  0  0  0  0  0  0  0  0  0  0  0
   18.0379   17.1563   21.3312 H   0  0  0  0  0  0  0  0  0  0  0  0
   19.8071   17.0250   21.2594 H   0  0  0  0  0  0  0  0  0  0  0  0
   19.0921   19.0851   21.3506 C   0  0  0  0  0  0  0  0  0  0  0  0
   18.1112   19.4767   21.0439 H   0  0  0  0  0  0  0  0  0  0  0  0
   19.5471   19.8023   22.6384 C   0  0  0  0  0  0  0  0  0  0  0  0
   20.3833   20.4911   22.4586 H   0  0  0  0  0  0  0  0  0  0  0  0
   18.7097   20.3906   23.0354 H   0  0  0  0  0  0  0  0  0  0  0  0
   20.0538   19.2719   20.3190 O   0  0  0  0  0  0  0  0  0  0  0  0
   19.7208   18.7888   19.5333 H   0  0  0  0  0  0  0  0  0  0  0  0
  1  2  1  0  0  0  0
  1  3  1  0  0  0  0
  1  4  1  0  0  0  0
  4  5  1  0  0  0  0
  4  6  1  0  0  0  0
  4  7  1  0  0  0  0
  7  8  1  0  0  0  0
  7  9  1  0  0  0  0
  7 10  1  0  0  0  0
 10 11  1  0  0  0  0
  1 12  1  0  0  0  0
 10 12  1  0  0  0  0
 12 13  1  0  0  0  0
 12 14  1  0  0  0  0
 10 15  1  0  0  0  0
 15 16  1  0  0  0  0
M  END
> <VConfSearch Rank>
172

> <Conf_Id>
59

> <Delta U+W>
0.000

> <U+W>
3.010

> <U>
5.843

> <W>
-2.833

> <W(PB)>
-4.568

> <W(SA)>
1.735

> <Valence>
13.789

> <Coulomb>
-8.574

> <VdW>
0.628

> <VdW6>
-3.284

> <VdW12>
3.912

> <Bond>
0.054

> <Angle>
4.034

> <Pdih>
9.702

> <Idih>
0.000

> <Tether>
0.000

$$$$
VeraChem MOL file


 16 16  0  0  0  0  0  0  0  0999 V2000     
   20.2566   18.4379   21.1165 C   0  0  0  0  0  0  0  0  0  0  0  0
   20.7309   17.6288   20.5443 H   0  0  0  0  0  0  0  0  0  0  0  0
   20.3519   19.3683   20.5395 H   0  0  0  0  0  0  0  0  0  0  0  0
   20.8906   18.6224   22.5021 C   0  0  0  0  0  0  0  0  0  0  0  0
   21.1213   17.6393   22.9354 H   0  0  0  0  0  0  0  0  0  0  0  0
   21.8190   19.2083   22.4640 H   0  0  0  0  0  0  0  0  0  0  0  0
   19.7956   19.3103   23.3381 C   0  0  0  0  0  0  0  0  0  0  0  0
   19.8957   20.4000   23.2513 H   0  0  0  0  0  0  0  0  0  0  0  0
   19.8769   19.0514   24.4023 H   0  0  0  0  0  0  0  0  0  0  0  0
   18.4439   18.8795   22.7323 C   0  0  0  0  0  0  0  0  0  0  0  0
   17.8343   19.7727   22.5321 H   0  0  0  0  0  0  0  0  0  0  0  0
   18.7715   18.1560   21.4090 C   0  0  0  0  0  0  0  0  0  0  0  0
   18.6222   17.0733   21.5200 H   0  0  0  0  0  0  0  0  0  0  0  0
   18.1285   18.5027   20.5898 H   0  0  0  0  0  0  0  0  0  0  0  0
   17.7675   17.9970   23.6198 O   0  0  0  0  0  0  0  0  0  0  0  0
   16.9262   17.7481   23.1820 H   0  0  0  0  0  0  0  0  0  0  0  0
  1  2  1  0  0  0  0
  1  3  1  0  0  0  0
  1  4  1  0  0  0  0
  4  5  1  0  0  0  0
  4  6  1  0  0  0  0
  4  7  1  0  0  0  0
  7  8  1  0  0  0  0
  7  9  1  0  0  0  0
  7 10  1  0  0  0  0
 10 11  1  0  0  0  0
  1 12  1  0  0  0  0
 10 12  1  0  0  0  0
 12 13  1  0  0  0  0
 12 14  1  0  0  0  0
 10 15  1  0  0  0  0
 15 16  1  0  0  0  0
M  END
> <VConfSearch Rank>
173

> <Conf_Id>
33

> <Delta U+W>
0.015

> <U+W>
3.025

> <U>
5.843

> <W>
-2.819

> <W(PB)>
-4.568

> <W(SA)>
1.750

> <Valence>
13.789

> <Coulomb>
-8.574

> <VdW>
0.628

> <VdW6>
-3.284

> <VdW12>
3.913

> <Bond>
0.054

> <Angle>
4.033

> <Pdih>
9.702

> <Idih>
0.000

> <Tether>
0.000

$$$$
VeraChem MOL file


 16 16  0  0  0  0  0  0  0  0999 V2000     
   19.2007   18.0462   21.0601 C   0  0  0  0  0  0  0  0  0  0  0  0
   20.1092   17.9975   20.4442 H   0  0  0  0  0  0  0  0  0  0  0  0
   18.3854   17.5813   20.4889 H   0  0  0  0  0  0  0  0  0  0  0  0
   18.8821   19.5162   21.4106 C   0  0  0  0  0  0  0  0  0  0  0  0
   19.6358   20.1788   20.9634 H   0  0  0  0  0  0  0  0  0  0  0  0
   17.8997   19.8198   21.0236 H   0  0  0  0  0  0  0  0  0  0  0  0
   18.9278   19.6188   22.9500 C   0  0  0  0  0  0  0  0  0  0  0  0
   17.9086   19.5500   23.3527 H   0  0  0  0  0  0  0  0  0  0  0  0
   19.3584   20.5697   23.2911 H   0  0  0  0  0  0  0  0  0  0  0  0
   19.7372   18.4078   23.4329 C   0  0  0  0  0  0  0  0  0  0  0  0
   19.4420   18.1022   24.4471 H   0  0  0  0  0  0  0  0  0  0  0  0
   19.4258   17.3156   22.4009 C   0  0  0  0  0  0  0  0  0  0  0  0
   20.2241   16.5642   22.3366 H   0  0  0  0  0  0  0  0  0  0  0  0
   18.5033   16.7985   22.6963 H   0  0  0  0  0  0  0  0  0  0  0  0
   21.1217   18.7196   23.3806 O   0  0  0  0  0  0  0  0  0  0  0  0
   21.2898   18.9776   22.4509 H   0  0  0  0  0  0  0  0  0  0  0  0
  1  2  1  0  0  0  0
  1  3  1  0  0  0  0
  1  4  1  0  0  0  0
  4  5  1  0  0  0  0
  4  6  1  0  0  0  0
  4  7  1  0  0  0  0
  7  8  1  0  0  0  0
  7  9  1  0  0  0  0
  7 10  1  0  0  0  0
 10 11  1  0  0  0  0
  1 12  1  0  0  0  0
 10 12  1  0  0  0  0
 12 13  1  0  0  0  0
 12 14  1  0  0  0  0
 10 15  1  0  0  0  0
 15 16  1  0  0  0  0
M  END
> <VConfSearch Rank>
174

> <Conf_Id>
20

> <Delta U+W>
-0.483

> <U+W>
2.527

> <U>
4.508

> <W>
-1.981

> <W(PB)>
-3.712

> <W(SA)>
1.732

> <Valence>
14.705

> <Coulomb>
-10.687

> <VdW>
0.490

> <VdW6>
-3.745

> <VdW12>
4.235

> <Bond>
0.068

> <Angle>
3.901

> <Pdih>
10.737

> <Idih>
0.000

> <Tether>
0.000

$$$$
VeraChem MOL file


 16 16  0  0  0  0  0  0  0  0999 V2000     
   20.0011   19.7849   21.8835 C   0  0  0  0  0  0  0  0  0  0  0  0
   20.7187   19.4754   21.1108 H   0  0  0  0  0  0  0  0  0  0  0  0
   20.0314   20.8801   21.9624 H   0  0  0  0  0  0  0  0  0  0  0  0
   20.3426   19.0920   23.2097 C   0  0  0  0  0  0  0  0  0  0  0  0
   21.4255   19.0384   23.3866 H   0  0  0  0  0  0  0  0  0  0  0  0
   19.8851   19.6430   24.0432 H   0  0  0  0  0  0  0  0  0  0  0  0
   19.6988   17.6984   23.0908 C   0  0  0  0  0  0  0  0  0  0  0  0
   19.4116   17.3040   24.0741 H   0  0  0  0  0  0  0  0  0  0  0  0
   20.4215   17.0012   22.6455 H   0  0  0  0  0  0  0  0  0  0  0  0
   18.4744   17.8626   22.1658 C   0  0  0  0  0  0  0  0  0  0  0  0
   17.5477   17.8149   22.7561 H   0  0  0  0  0  0  0  0  0  0  0  0
   18.5986   19.2601   21.5245 C   0  0  0  0  0  0  0  0  0  0  0  0
   18.4422   19.2354   20.4378 H   0  0  0  0  0  0  0  0  0  0  0  0
   17.8361   19.9212   21.9565 H   0  0  0  0  0  0  0  0  0  0  0  0
   18.4820   16.8580   21.1585 O   0  0  0  0  0  0  0  0  0  0  0  0
   18.4124   15.9959   21.6205 H   0  0  0  0  0  0  0  0  0  0  0  0
  1  2  1  0  0  0  0
  1  3  1  0  0  0  0
  1  4  1  0  0  0  0
  4  5  1  0  0  0  0
  4  6  1  0  0  0  0
  4  7  1  0  0  0  0
  7  8  1  0  0  0  0
  7  9  1  0  0  0  0
  7 10  1  0  0  0  0
 10 11  1  0  0  0  0
  1 12  1  0  0  0  0
 10 12  1  0  0  0  0
 12 13  1  0  0  0  0
 12 14  1  0  0  0  0
 10 15  1  0  0  0  0
 15 16  1  0  0  0  0
M  END
> <VConfSearch Rank>
175

> <Conf_Id>
59

> <Delta U+W>
0.000

> <U+W>
3.010

> <U>
5.843

> <W>
-2.833

> <W(PB)>
-4.568

> <W(SA)>
1.735

> <Valence>
13.789

> <Coulomb>
-8.574

> <VdW>
0.628

> <VdW6>
-3.284

> <VdW12>
3.912

> <Bond>
0.054

> <Angle>
4.034

> <Pdih>
9.702

> <Idih>
0.000

> <Tether>
0.000

$$$$
VeraChem MOL file


 16 16  0  0  0  0  0  0  0  0999 V2000     
   20.5949   18.9379   21.4872 C   0  0  0  0  0  0  0  0  0  0  0  0
   21.6582   19.1845   21.6114 H   0  0  0  0  0  0  0  0  0  0  0  0
   20.3965   18.8031   20.4148 H   0  0  0  0  0  0  0  0  0  0  0  0
   19.6730   20.0285   22.0497 C   0  0  0  0  0  0  0  0  0  0  0  0
   20.0912   20.4157   22.9893 H   0  0  0  0  0  0  0  0  0  0  0  0
   19.5476   20.8708   21.3559 H   0  0  0  0  0  0  0  0  0  0  0  0
   18.3465   19.3011   22.3369 C   0  0  0  0  0  0  0  0  0  0  0  0
   17.7019   19.3463   21.4494 H   0  0  0  0  0  0  0  0  0  0  0  0
   17.8019   19.7669   23.1690 H   0  0  0  0  0  0  0  0  0  0  0  0
   18.7054   17.8285   22.6234 C   0  0  0  0  0  0  0  0  0  0  0  0
   18.0872   17.1742   21.9915 H   0  0  0  0  0  0  0  0  0  0  0  0
   20.1951   17.6646   22.2550 C   0  0  0  0  0  0  0  0  0  0  0  0
   20.8054   17.5823   23.1647 H   0  0  0  0  0  0  0  0  0  0  0  0
   20.3649   16.7630   21.6524 H   0  0  0  0  0  0  0  0  0  0  0  0
   18.5051   17.5338   24.0007 O   0  0  0  0  0  0  0  0  0  0  0  0
   18.7578   16.5948   24.1270 H   0  0  0  0  0  0  0  0  0  0  0  0
  1  2  1  0  0  0  0
  1  3  1  0  0  0  0
  1  4  1  0  0  0  0
  4  5  1  0  0  0  0
  4  6  1  0  0  0  0
  4  7  1  0  0  0  0
  7  8  1  0  0  0  0
  7  9  1  0  0  0  0
  7 10  1  0  0  0  0
 10 11  1  0  0  0  0
  1 12  1  0  0  0  0
 10 12  1  0  0  0  0
 12 13  1  0  0  0  0
 12 14  1  0  0  0  0
 10 15  1  0  0  0  0
 15 16  1  0  0  0  0
M  END
> <VConfSearch Rank>
176

> <Conf_Id>
33

> <Delta U+W>
0.015

> <U+W>
3.025

> <U>
5.843

> <W>
-2.819

> <W(PB)>
-4.568

> <W(SA)>
1.750

> <Valence>
13.789

> <Coulomb>
-8.574

> <VdW>
0.628

> <VdW6>
-3.284

> <VdW12>
3.913

> <Bond>
0.054

> <Angle>
4.033

> <Pdih>
9.702

> <Idih>
0.000

> <Tether>
0.000

$$$$
VeraChem MOL file


 16 16  0  0  0  0  0  0  0  0999 V2000     
   19.5846   18.5703   23.5775 C   0  0  0  0  0  0  0  0  0  0  0  0
   18.6660   18.5970   24.1798 H   0  0  0  0  0  0  0  0  0  0  0  0
   20.4349   18.4987   24.2695 H   0  0  0  0  0  0  0  0  0  0  0  0
   19.6731   19.8368   22.6982 C   0  0  0  0  0  0  0  0  0  0  0  0
   18.7979   20.4770   22.8758 H   0  0  0  0  0  0  0  0  0  0  0  0
   20.5703   20.4272   22.9296 H   0  0  0  0  0  0  0  0  0  0  0  0
   19.6906   19.3520   21.2329 C   0  0  0  0  0  0  0  0  0  0  0  0
   20.7265   19.3162   20.8707 H   0  0  0  0  0  0  0  0  0  0  0  0
   19.1267   20.0189   20.5671 H   0  0  0  0  0  0  0  0  0  0  0  0
   19.1189   17.9280   21.2495 C   0  0  0  0  0  0  0  0  0  0  0  0
   19.5127   17.3243   20.4191 H   0  0  0  0  0  0  0  0  0  0  0  0
   19.5531   17.3677   22.6105 C   0  0  0  0  0  0  0  0  0  0  0  0
   18.8880   16.5678   22.9625 H   0  0  0  0  0  0  0  0  0  0  0  0
   20.5625   16.9458   22.5168 H   0  0  0  0  0  0  0  0  0  0  0  0
   17.7011   17.9926   21.2011 O   0  0  0  0  0  0  0  0  0  0  0  0
   17.4448   18.5435   21.9691 H   0  0  0  0  0  0  0  0  0  0  0  0
  1  2  1  0  0  0  0
  1  3  1  0  0  0  0
  1  4  1  0  0  0  0
  4  5  1  0  0  0  0
  4  6  1  0  0  0  0
  4  7  1  0  0  0  0
  7  8  1  0  0  0  0
  7  9  1  0  0  0  0
  7 10  1  0  0  0  0
 10 11  1  0  0  0  0
  1 12  1  0  0  0  0
 10 12  1  0  0  0  0
 12 13  1  0  0  0  0
 12 14  1  0  0  0  0
 10 15  1  0  0  0  0
 15 16  1  0  0  0  0
M  END
> <VConfSearch Rank>
177

> <Conf_Id>
20

> <Delta U+W>
-0.483

> <U+W>
2.527

> <U>
4.508

> <W>
-1.981

> <W(PB)>
-3.712

> <W(SA)>
1.732

> <Valence>
14.705

> <Coulomb>
-10.687

> <VdW>
0.490

> <VdW6>
-3.745

> <VdW12>
4.235

> <Bond>
0.068

> <Angle>
3.901

> <Pdih>
10.737

> <Idih>
0.000

> <Tether>
0.000

$$$$
VeraChem MOL file


 16 16  0  0  0  0  0  0  0  0999 V2000     
   18.0572   17.9056   22.2844 C   0  0  0  0  0  0  0  0  0  0  0  0
   17.7638   17.8086   23.3390 H   0  0  0  0  0  0  0  0  0  0  0  0
   17.2335   17.5303   21.6621 H   0  0  0  0  0  0  0  0  0  0  0  0
   19.3680   17.1445   22.0431 C   0  0  0  0  0  0  0  0  0  0  0  0
   19.4045   16.1916   22.5885 H   0  0  0  0  0  0  0  0  0  0  0  0
   19.4796   16.9311   20.9709 H   0  0  0  0  0  0  0  0  0  0  0  0
   20.4677   18.1218   22.4970 C   0  0  0  0  0  0  0  0  0  0  0  0
   21.4009   17.9615   21.9419 H   0  0  0  0  0  0  0  0  0  0  0  0
   20.6777   17.9625   23.5634 H   0  0  0  0  0  0  0  0  0  0  0  0
   19.9086   19.5420   22.2685 C   0  0  0  0  0  0  0  0  0  0  0  0
   20.3972   20.0033   21.3979 H   0  0  0  0  0  0  0  0  0  0  0  0
   18.4027   19.3747   21.9784 C   0  0  0  0  0  0  0  0  0  0  0  0
   17.7854   20.0662   22.5672 H   0  0  0  0  0  0  0  0  0  0  0  0
   18.2174   19.5833   20.9167 H   0  0  0  0  0  0  0  0  0  0  0  0
   20.0985   20.3376   23.4325 O   0  0  0  0  0  0  0  0  0  0  0  0
   21.0666   20.4011   23.5749 H   0  0  0  0  0  0  0  0  0  0  0  0
  1  2  1  0  0  0  0
  1  3  1  0  0  0  0
  1  4  1  0  0  0  0
  4  5  1  0  0  0  0
  4  6  1  0  0  0  0
  4  7  1  0  0  0  0
  7  8  1  0  0  0  0
  7  9  1  0  0  0  0
  7 10  1  0  0  0  0
 10 11  1  0  0  0  0
  1 12  1  0  0  0  0
 10 12  1  0  0  0  0
 12 13  1  0  0  0  0
 12 14  1  0  0  0  0
 10 15  1  0  0  0  0
 15 16  1  0  0  0  0
M  END
> <VConfSearch Rank>
178

> <Conf_Id>
59

> <Delta U+W>
0.000

> <U+W>
3.010

> <U>
5.843

> <W>
-2.833

> <W(PB)>
-4.568

> <W(SA)>
1.735

> <Valence>
13.789

> <Coulomb>
-8.574

> <VdW>
0.628

> <VdW6>
-3.284

> <VdW12>
3.912

> <Bond>
0.054

> <Angle>
4.034

> <Pdih>
9.702

> <Idih>
0.000

> <Tether>
0.000

$$$$
VeraChem MOL file


 16 16  0  0  0  0  0  0  0  0999 V2000     
   18.8061   19.2331   21.1708 C   0  0  0  0  0  0  0  0  0  0  0  0
   17.8520   19.1861   20.6284 H   0  0  0  0  0  0  0  0  0  0  0  0
   19.3772   20.0904   20.7879 H   0  0  0  0  0  0  0  0  0  0  0  0
   19.6324   17.9496   21.0111 C   0  0  0  0  0  0  0  0  0  0  0  0
   18.9666   17.0760   21.0470 H   0  0  0  0  0  0  0  0  0  0  0  0
   20.1855   17.9220   20.0624 H   0  0  0  0  0  0  0  0  0  0  0  0
   20.5656   17.9372   22.2359 C   0  0  0  0  0  0  0  0  0  0  0  0
   21.5009   18.4574   21.9917 H   0  0  0  0  0  0  0  0  0  0  0  0
   20.8223   16.9132   22.5384 H   0  0  0  0  0  0  0  0  0  0  0  0
   19.8359   18.7120   23.3526 C   0  0  0  0  0  0  0  0  0  0  0  0
   20.5074   19.4826   23.7586 H   0  0  0  0  0  0  0  0  0  0  0  0
   18.6094   19.3755   22.6912 C   0  0  0  0  0  0  0  0  0  0  0  0
   17.6887   18.8553   22.9887 H   0  0  0  0  0  0  0  0  0  0  0  0
   18.5122   20.4283   22.9862 H   0  0  0  0  0  0  0  0  0  0  0  0
   19.4175   17.8181   24.3772 O   0  0  0  0  0  0  0  0  0  0  0  0
   18.9529   18.3593   25.0501 H   0  0  0  0  0  0  0  0  0  0  0  0
  1  2  1  0  0  0  0
  1  3  1  0  0  0  0
  1  4  1  0  0  0  0
  4  5  1  0  0  0  0
  4  6  1  0  0  0  0
  4  7  1  0  0  0  0
  7  8  1  0  0  0  0
  7  9  1  0  0  0  0
  7 10  1  0  0  0  0
 10 11  1  0  0  0  0
  1 12  1  0  0  0  0
 10 12  1  0  0  0  0
 12 13  1  0  0  0  0
 12 14  1  0  0  0  0
 10 15  1  0  0  0  0
 15 16  1  0  0  0  0
M  END
> <VConfSearch Rank>
179

> <Conf_Id>
33

> <Delta U+W>
0.015

> <U+W>
3.025

> <U>
5.843

> <W>
-2.819

> <W(PB)>
-4.568

> <W(SA)>
1.750

> <Valence>
13.789

> <Coulomb>
-8.574

> <VdW>
0.628

> <VdW6>
-3.284

> <VdW12>
3.913

> <Bond>
0.054

> <Angle>
4.033

> <Pdih>
9.702

> <Idih>
0.000

> <Tether>
0.000

$$$$
VeraChem MOL file


 16 16  0  0  0  0  0  0  0  0999 V2000     
   18.5130   19.3465   21.5550 C   0  0  0  0  0  0  0  0  0  0  0  0
   17.6461   19.6983   22.1311 H   0  0  0  0  0  0  0  0  0  0  0  0
   18.4141   19.7360   20.5325 H   0  0  0  0  0  0  0  0  0  0  0  0
   18.5638   17.8030   21.5723 C   0  0  0  0  0  0  0  0  0  0  0  0
   17.7209   17.4079   22.1558 H   0  0  0  0  0  0  0  0  0  0  0  0
   18.4925   17.3852   20.5587 H   0  0  0  0  0  0  0  0  0  0  0  0
   19.9013   17.4166   22.2388 C   0  0  0  0  0  0  0  0  0  0  0  0
   20.6472   17.1961   21.4637 H   0  0  0  0  0  0  0  0  0  0  0  0
   19.8074   16.5264   22.8750 H   0  0  0  0  0  0  0  0  0  0  0  0
   20.3545   18.6511   23.0297 C   0  0  0  0  0  0  0  0  0  0  0  0
   21.4488   18.6880   23.1300 H   0  0  0  0  0  0  0  0  0  0  0  0
   19.8223   19.8347   22.2106 C   0  0  0  0  0  0  0  0  0  0  0  0
   19.6705   20.7316   22.8259 H   0  0  0  0  0  0  0  0  0  0  0  0
   20.5525   20.0849   21.4297 H   0  0  0  0  0  0  0  0  0  0  0  0
   19.7287   18.6455   24.3045 O   0  0  0  0  0  0  0  0  0  0  0  0
   18.7681   18.6120   24.1166 H   0  0  0  0  0  0  0  0  0  0  0  0
  1  2  1  0  0  0  0
  1  3  1  0  0  0  0
  1  4  1  0  0  0  0
  4  5  1  0  0  0  0
  4  6  1  0  0  0  0
  4  7  1  0  0  0  0
  7  8  1  0  0  0  0
  7  9  1  0  0  0  0
  7 10  1  0  0  0  0
 10 11  1  0  0  0  0
  1 12  1  0  0  0  0
 10 12  1  0  0  0  0
 12 13  1  0  0  0  0
 12 14  1  0  0  0  0
 10 15  1  0  0  0  0
 15 16  1  0  0  0  0
M  END
> <VConfSearch Rank>
180

> <Conf_Id>
20

> <Delta U+W>
-0.483

> <U+W>
2.527

> <U>
4.508

> <W>
-1.981

> <W(PB)>
-3.712

> <W(SA)>
1.732

> <Valence>
14.705

> <Coulomb>
-10.687

> <VdW>
0.490

> <VdW6>
-3.745

> <VdW12>
4.235

> <Bond>
0.068

> <Angle>
3.901

> <Pdih>
10.737

> <Idih>
0.000

> <Tether>
0.000

$$$$
VeraChem MOL file


 16 16  0  0  0  0  0  0  0  0999 V2000     
   18.8332   18.4608   20.9616 C   0  0  0  0  0  0  0  0  0  0  0  0
   18.9797   19.4608   20.5302 H   0  0  0  0  0  0  0  0  0  0  0  0
   18.4119   17.8090   20.1842 H   0  0  0  0  0  0  0  0  0  0  0  0
   17.9274   18.5611   22.1966 C   0  0  0  0  0  0  0  0  0  0  0  0
   17.1067   19.2775   22.0559 H   0  0  0  0  0  0  0  0  0  0  0  0
   17.4906   17.5768   22.4155 H   0  0  0  0  0  0  0  0  0  0  0  0
   18.8773   18.9744   23.3357 C   0  0  0  0  0  0  0  0  0  0  0  0
   18.5261   18.6009   24.3063 H   0  0  0  0  0  0  0  0  0  0  0  0
   18.9215   20.0706   23.3920 H   0  0  0  0  0  0  0  0  0  0  0  0
   20.2640   18.4011   22.9753 C   0  0  0  0  0  0  0  0  0  0  0  0
   20.4931   17.5384   23.6178 H   0  0  0  0  0  0  0  0  0  0  0  0
   20.1728   17.9336   21.5080 C   0  0  0  0  0  0  0  0  0  0  0  0
   21.0213   18.2842   20.9053 H   0  0  0  0  0  0  0  0  0  0  0  0
   20.1754   16.8362   21.4811 H   0  0  0  0  0  0  0  0  0  0  0  0
   21.2610   19.4071   23.1086 O   0  0  0  0  0  0  0  0  0  0  0  0
   21.2675   19.6732   24.0524 H   0  0  0  0  0  0  0  0  0  0  0  0
  1  2  1  0  0  0  0
  1  3  1  0  0  0  0
  1  4  1  0  0  0  0
  4  5  1  0  0  0  0
  4  6  1  0  0  0  0
  4  7  1  0  0  0  0
  7  8  1  0  0  0  0
  7  9  1  0  0  0  0
  7 10  1  0  0  0  0
 10 11  1  0  0  0  0
  1 12  1  0  0  0  0
 10 12  1  0  0  0  0
 12 13  1  0  0  0  0
 12 14  1  0  0  0  0
 10 15  1  0  0  0  0
 15 16  1  0  0  0  0
M  END
> <VConfSearch Rank>
181

> <Conf_Id>
59

> <Delta U+W>
0.000

> <U+W>
3.010

> <U>
5.843

> <W>
-2.833

> <W(PB)>
-4.568

> <W(SA)>
1.735

> <Valence>
13.789

> <Coulomb>
-8.574

> <VdW>
0.628

> <VdW6>
-3.284

> <VdW12>
3.912

> <Bond>
0.054

> <Angle>
4.034

> <Pdih>
9.702

> <Idih>
0.000

> <Tether>
0.000

$$$$
VeraChem MOL file


 16 16  0  0  0  0  0  0  0  0999 V2000     
   19.8170   19.9472   22.6736 C   0  0  0  0  0  0  0  0  0  0  0  0
   19.7575   20.6092   23.5482 H   0  0  0  0  0  0  0  0  0  0  0  0
   20.4386   20.4387   21.9123 H   0  0  0  0  0  0  0  0  0  0  0  0
   18.4350   19.6303   22.0860 C   0  0  0  0  0  0  0  0  0  0  0  0
   17.7136   19.4805   22.9014 H   0  0  0  0  0  0  0  0  0  0  0  0
   18.0601   20.4344   21.4383 H   0  0  0  0  0  0  0  0  0  0  0  0
   18.6344   18.3070   21.3243 C   0  0  0  0  0  0  0  0  0  0  0  0
   18.9227   18.5190   20.2865 H   0  0  0  0  0  0  0  0  0  0  0  0
   17.7119   17.7118   21.2995 H   0  0  0  0  0  0  0  0  0  0  0  0
   19.7909   17.5655   22.0262 C   0  0  0  0  0  0  0  0  0  0  0  0
   20.5389   17.2673   21.2771 H   0  0  0  0  0  0  0  0  0  0  0  0
   20.4108   18.5696   23.0208 C   0  0  0  0  0  0  0  0  0  0  0  0
   20.1355   18.3045   24.0507 H   0  0  0  0  0  0  0  0  0  0  0  0
   21.5065   18.5774   22.9561 H   0  0  0  0  0  0  0  0  0  0  0  0
   19.2940   16.4285   22.7220 O   0  0  0  0  0  0  0  0  0  0  0  0
   20.0649   16.0050   23.1554 H   0  0  0  0  0  0  0  0  0  0  0  0
  1  2  1  0  0  0  0
  1  3  1  0  0  0  0
  1  4  1  0  0  0  0
  4  5  1  0  0  0  0
  4  6  1  0  0  0  0
  4  7  1  0  0  0  0
  7  8  1  0  0  0  0
  7  9  1  0  0  0  0
  7 10  1  0  0  0  0
 10 11  1  0  0  0  0
  1 12  1  0  0  0  0
 10 12  1  0  0  0  0
 12 13  1  0  0  0  0
 12 14  1  0  0  0  0
 10 15  1  0  0  0  0
 15 16  1  0  0  0  0
M  END
> <VConfSearch Rank>
182

> <Conf_Id>
33

> <Delta U+W>
0.015

> <U+W>
3.025

> <U>
5.843

> <W>
-2.819

> <W(PB)>
-4.568

> <W(SA)>
1.750

> <Valence>
13.789

> <Coulomb>
-8.574

> <VdW>
0.628

> <VdW6>
-3.284

> <VdW12>
3.913

> <Bond>
0.054

> <Angle>
4.033

> <Pdih>
9.702

> <Idih>
0.000

> <Tether>
0.000

$$$$
VeraChem MOL file


 16 16  0  0  0  0  0  0  0  0999 V2000     
   18.2504   17.9781   21.9214 C   0  0  0  0  0  0  0  0  0  0  0  0
   17.9135   17.2328   22.6551 H   0  0  0  0  0  0  0  0  0  0  0  0
   17.5185   17.9939   21.1022 H   0  0  0  0  0  0  0  0  0  0  0  0
   19.6629   17.6144   21.4140 C   0  0  0  0  0  0  0  0  0  0  0  0
   20.0093   16.6925   21.9013 H   0  0  0  0  0  0  0  0  0  0  0  0
   19.6701   17.4410   20.3292 H   0  0  0  0  0  0  0  0  0  0  0  0
   20.5817   18.7954   21.7931 C   0  0  0  0  0  0  0  0  0  0  0  0
   20.7002   19.4605   20.9275 H   0  0  0  0  0  0  0  0  0  0  0  0
   21.5827   18.4627   22.0984 H   0  0  0  0  0  0  0  0  0  0  0  0
   19.8562   19.5566   22.9108 C   0  0  0  0  0  0  0  0  0  0  0  0
   20.1345   20.6203   22.9225 H   0  0  0  0  0  0  0  0  0  0  0  0
   18.3684   19.3657   22.5870 C   0  0  0  0  0  0  0  0  0  0  0  0
   17.7338   19.4549   23.4788 H   0  0  0  0  0  0  0  0  0  0  0  0
   18.0559   20.1416   21.8757 H   0  0  0  0  0  0  0  0  0  0  0  0
   20.1458   18.9434   24.1585 O   0  0  0  0  0  0  0  0  0  0  0  0
   19.8679   18.0101   24.0543 H   0  0  0  0  0  0  0  0  0  0  0  0
  1  2  1  0  0  0  0
  1  3  1  0  0  0  0
  1  4  1  0  0  0  0
  4  5  1  0  0  0  0
  4  6  1  0  0  0  0
  4  7  1  0  0  0  0
  7  8  1  0  0  0  0
  7  9  1  0  0  0  0
  7 10  1  0  0  0  0
 10 11  1  0  0  0  0
  1 12  1  0  0  0  0
 10 12  1  0  0  0  0
 12 13  1  0  0  0  0
 12 14  1  0  0  0  0
 10 15  1  0  0  0  0
 15 16  1  0  0  0  0
M  END
> <VConfSearch Rank>
183

> <Conf_Id>
20

> <Delta U+W>
-0.483

> <U+W>
2.527

> <U>
4.508

> <W>
-1.981

> <W(PB)>
-3.712

> <W(SA)>
1.732

> <Valence>
14.705

> <Coulomb>
-10.687

> <VdW>
0.490

> <VdW6>
-3.745

> <VdW12>
4.235

> <Bond>
0.068

> <Angle>
3.901

> <Pdih>
10.737

> <Idih>
0.000

> <Tether>
0.000

$$$$
VeraChem MOL file


 16 16  0  0  0  0  0  0  0  0999 V2000     
   20.5841   18.3009   21.5749 C   0  0  0  0  0  0  0  0  0  0  0  0
   21.3934   18.4821   22.2959 H   0  0  0  0  0  0  0  0  0  0  0  0
   21.0328   17.9559   20.6335 H   0  0  0  0  0  0  0  0  0  0  0  0
   19.7583   19.5822   21.3957 C   0  0  0  0  0  0  0  0  0  0  0  0
   20.3851   20.4841   21.3765 H   0  0  0  0  0  0  0  0  0  0  0  0
   19.1989   19.5324   20.4511 H   0  0  0  0  0  0  0  0  0  0  0  0
   18.7778   19.5752   22.5828 C   0  0  0  0  0  0  0  0  0  0  0  0
   17.8420   20.0917   22.3332 H   0  0  0  0  0  0  0  0  0  0  0  0
   19.2347   20.0975   23.4344 H   0  0  0  0  0  0  0  0  0  0  0  0
   18.5313   18.0929   22.9344 C   0  0  0  0  0  0  0  0  0  0  0  0
   17.5275   17.7894   22.6030 H   0  0  0  0  0  0  0  0  0  0  0  0
   19.5904   17.2808   22.1608 C   0  0  0  0  0  0  0  0  0  0  0  0
   20.0968   16.5429   22.7973 H   0  0  0  0  0  0  0  0  0  0  0  0
   19.0980   16.7357   21.3450 H   0  0  0  0  0  0  0  0  0  0  0  0
   18.6825   17.8886   24.3342 O   0  0  0  0  0  0  0  0  0  0  0  0
   17.9958   18.4334   24.7737 H   0  0  0  0  0  0  0  0  0  0  0  0
  1  2  1  0  0  0  0
  1  3  1  0  0  0  0
  1  4  1  0  0  0  0
  4  5  1  0  0  0  0
  4  6  1  0  0  0  0
  4  7  1  0  0  0  0
  7  8  1  0  0  0  0
  7  9  1  0  0  0  0
  7 10  1  0  0  0  0
 10 11  1  0  0  0  0
  1 12  1  0  0  0  0
 10 12  1  0  0  0  0
 12 13  1  0  0  0  0
 12 14  1  0  0  0  0
 10 15  1  0  0  0  0
 15 16  1  0  0  0  0
M  END
> <VConfSearch Rank>
184

> <Conf_Id>
59

> <Delta U+W>
0.000

> <U+W>
3.010

> <U>
5.843

> <W>
-2.833

> <W(PB)>
-4.568

> <W(SA)>
1.735

> <Valence>
13.789

> <Coulomb>
-8.574

> <VdW>
0.628

> <VdW6>
-3.284

> <VdW12>
3.912

> <Bond>
0.054

> <Angle>
4.034

> <Pdih>
9.702

> <Idih>
0.000

> <Tether>
0.000

$$$$
VeraChem MOL file


 16 16  0  0  0  0  0  0  0  0999 V2000     
   20.0743   17.3810   21.8956 C   0  0  0  0  0  0  0  0  0  0  0  0
   21.0600   16.8972   21.9298 H   0  0  0  0  0  0  0  0  0  0  0  0
   19.3407   16.6419   21.5447 H   0  0  0  0  0  0  0  0  0  0  0  0
   20.0566   18.6055   20.9703 C   0  0  0  0  0  0  0  0  0  0  0  0
   20.9945   19.1667   21.0841 H   0  0  0  0  0  0  0  0  0  0  0  0
   19.9462   18.3304   19.9126 H   0  0  0  0  0  0  0  0  0  0  0  0
   18.8805   19.4578   21.4817 C   0  0  0  0  0  0  0  0  0  0  0  0
   17.9601   19.1671   20.9588 H   0  0  0  0  0  0  0  0  0  0  0  0
   19.0459   20.5275   21.2966 H   0  0  0  0  0  0  0  0  0  0  0  0
   18.7275   19.1401   22.9835 C   0  0  0  0  0  0  0  0  0  0  0  0
   17.6807   18.8768   23.1944 H   0  0  0  0  0  0  0  0  0  0  0  0
   19.6438   17.9313   23.2677 C   0  0  0  0  0  0  0  0  0  0  0  0
   20.5340   18.2514   23.8262 H   0  0  0  0  0  0  0  0  0  0  0  0
   19.1293   17.1662   23.8631 H   0  0  0  0  0  0  0  0  0  0  0  0
   19.1327   20.2577   23.7650 O   0  0  0  0  0  0  0  0  0  0  0  0
   19.0260   19.9975   24.7044 H   0  0  0  0  0  0  0  0  0  0  0  0
  1  2  1  0  0  0  0
  1  3  1  0  0  0  0
  1  4  1  0  0  0  0
  4  5  1  0  0  0  0
  4  6  1  0  0  0  0
  4  7  1  0  0  0  0
  7  8  1  0  0  0  0
  7  9  1  0  0  0  0
  7 10  1  0  0  0  0
 10 11  1  0  0  0  0
  1 12  1  0  0  0  0
 10 12  1  0  0  0  0
 12 13  1  0  0  0  0
 12 14  1  0  0  0  0
 10 15  1  0  0  0  0
 15 16  1  0  0  0  0
M  END
> <VConfSearch Rank>
185

> <Conf_Id>
33

> <Delta U+W>
0.015

> <U+W>
3.025

> <U>
5.843

> <W>
-2.819

> <W(PB)>
-4.568

> <W(SA)>
1.750

> <Valence>
13.789

> <Coulomb>
-8.574

> <VdW>
0.628

> <VdW6>
-3.284

> <VdW12>
3.913

> <Bond>
0.054

> <Angle>
4.033

> <Pdih>
9.702

> <Idih>
0.000

> <Tether>
0.000

$$$$
VeraChem MOL file


 16 16  0  0  0  0  0  0  0  0999 V2000     
   18.6179   18.9383   23.3066 C   0  0  0  0  0  0  0  0  0  0  0  0
   17.8243   19.6636   23.0802 H   0  0  0  0  0  0  0  0  0  0  0  0
   18.5354   18.6750   24.3700 H   0  0  0  0  0  0  0  0  0  0  0  0
   19.9975   19.5499   22.9784 C   0  0  0  0  0  0  0  0  0  0  0  0
   19.8716   20.5715   22.5942 H   0  0  0  0  0  0  0  0  0  0  0  0
   20.6371   19.6055   23.8700 H   0  0  0  0  0  0  0  0  0  0  0  0
   20.6301   18.6479   21.8973 C   0  0  0  0  0  0  0  0  0  0  0  0
   21.3216   17.9382   22.3703 H   0  0  0  0  0  0  0  0  0  0  0  0
   21.1986   19.2240   21.1550 H   0  0  0  0  0  0  0  0  0  0  0  0
   19.4710   17.8670   21.2636 C   0  0  0  0  0  0  0  0  0  0  0  0
   19.8057   16.8985   20.8649 H   0  0  0  0  0  0  0  0  0  0  0  0
   18.4692   17.6891   22.4123 C   0  0  0  0  0  0  0  0  0  0  0  0
   17.4408   17.5561   22.0507 H   0  0  0  0  0  0  0  0  0  0  0  0
   18.7401   16.7929   22.9860 H   0  0  0  0  0  0  0  0  0  0  0  0
   18.8774   18.6569   20.2435 O   0  0  0  0  0  0  0  0  0  0  0  0
   18.6136   19.4894   20.6869 H   0  0  0  0  0  0  0  0  0  0  0  0
  1  2  1  0  0  0  0
  1  3  1  0  0  0  0
  1  4  1  0  0  0  0
  4  5  1  0  0  0  0
  4  6  1  0  0  0  0
  4  7  1  0  0  0  0
  7  8  1  0  0  0  0
  7  9  1  0  0  0  0
  7 10  1  0  0  0  0
 10 11  1  0  0  0  0
  1 12  1  0  0  0  0
 10 12  1  0  0  0  0
 12 13  1  0  0  0  0
 12 14  1  0  0  0  0
 10 15  1  0  0  0  0
 15 16  1  0  0  0  0
M  END
> <VConfSearch Rank>
186

> <Conf_Id>
20

> <Delta U+W>
-0.483

> <U+W>
2.527

> <U>
4.508

> <W>
-1.981

> <W(PB)>
-3.712

> <W(SA)>
1.732

> <Valence>
14.705

> <Coulomb>
-10.687

> <VdW>
0.490

> <VdW6>
-3.745

> <VdW12>
4.235

> <Bond>
0.068

> <Angle>
3.901

> <Pdih>
10.737

> <Idih>
0.000

> <Tether>
0.000

$$$$
VeraChem MOL file


 16 16  0  0  0  0  0  0  0  0999 V2000     
   20.3617   18.4989   23.3646 C   0  0  0  0  0  0  0  0  0  0  0  0
   19.9919   19.1763   24.1470 H   0  0  0  0  0  0  0  0  0  0  0  0
   21.2881   18.0309   23.7243 H   0  0  0  0  0  0  0  0  0  0  0  0
   20.5687   19.2829   22.0614 C   0  0  0  0  0  0  0  0  0  0  0  0
   20.9921   20.2812   22.2369 H   0  0  0  0  0  0  0  0  0  0  0  0
   21.2531   18.7304   21.4025 H   0  0  0  0  0  0  0  0  0  0  0  0
   19.1683   19.3440   21.4245 C   0  0  0  0  0  0  0  0  0  0  0  0
   19.2275   19.3953   20.3297 H   0  0  0  0  0  0  0  0  0  0  0  0
   18.6480   20.2451   21.7769 H   0  0  0  0  0  0  0  0  0  0  0  0
   18.4216   18.0775   21.8935 C   0  0  0  0  0  0  0  0  0  0  0  0
   18.3435   17.3582   21.0652 H   0  0  0  0  0  0  0  0  0  0  0  0
   19.2745   17.4634   23.0228 C   0  0  0  0  0  0  0  0  0  0  0  0
   18.6735   17.2024   23.9041 H   0  0  0  0  0  0  0  0  0  0  0  0
   19.7454   16.5424   22.6553 H   0  0  0  0  0  0  0  0  0  0  0  0
   17.1316   18.4217   22.3848 O   0  0  0  0  0  0  0  0  0  0  0  0
   16.6401   18.8149   21.6329 H   0  0  0  0  0  0  0  0  0  0  0  0
  1  2  1  0  0  0  0
  1  3  1  0  0  0  0
  1  4  1  0  0  0  0
  4  5  1  0  0  0  0
  4  6  1  0  0  0  0
  4  7  1  0  0  0  0
  7  8  1  0  0  0  0
  7  9  1  0  0  0  0
  7 10  1  0  0  0  0
 10 11  1  0  0  0  0
  1 12  1  0  0  0  0
 10 12  1  0  0  0  0
 12 13  1  0  0  0  0
 12 14  1  0  0  0  0
 10 15  1  0  0  0  0
 15 16  1  0  0  0  0
M  END
> <VConfSearch Rank>
187

> <Conf_Id>
59

> <Delta U+W>
0.000

> <U+W>
3.010

> <U>
5.843

> <W>
-2.833

> <W(PB)>
-4.568

> <W(SA)>
1.735

> <Valence>
13.789

> <Coulomb>
-8.574

> <VdW>
0.628

> <VdW6>
-3.284

> <VdW12>
3.912

> <Bond>
0.054

> <Angle>
4.034

> <Pdih>
9.702

> <Idih>
0.000

> <Tether>
0.000

$$$$
VeraChem MOL file


 16 16  0  0  0  0  0  0  0  0999 V2000     
   20.1250   19.8642   22.0920 C   0  0  0  0  0  0  0  0  0  0  0  0
   21.0470   20.2506   21.6365 H   0  0  0  0  0  0  0  0  0  0  0  0
   19.4986   20.7204   22.3789 H   0  0  0  0  0  0  0  0  0  0  0  0
   20.4032   18.9922   23.3240 C   0  0  0  0  0  0  0  0  0  0  0  0
   21.2872   18.3658   23.1398 H   0  0  0  0  0  0  0  0  0  0  0  0
   20.5867   19.5891   24.2277 H   0  0  0  0  0  0  0  0  0  0  0  0
   19.1559   18.0986   23.4531 C   0  0  0  0  0  0  0  0  0  0  0  0
   18.4115   18.5947   24.0894 H   0  0  0  0  0  0  0  0  0  0  0  0
   19.3973   17.1314   23.9138 H   0  0  0  0  0  0  0  0  0  0  0  0
   18.5780   17.9420   22.0314 C   0  0  0  0  0  0  0  0  0  0  0  0
   17.5070   18.1918   22.0450 H   0  0  0  0  0  0  0  0  0  0  0  0
   19.3424   18.9424   21.1389 C   0  0  0  0  0  0  0  0  0  0  0  0
   20.0485   18.4093   20.4879 H   0  0  0  0  0  0  0  0  0  0  0  0
   18.6594   19.5149   20.4981 H   0  0  0  0  0  0  0  0  0  0  0  0
   18.7793   16.6136   21.5637 O   0  0  0  0  0  0  0  0  0  0  0  0
   18.4055   16.5747   20.6579 H   0  0  0  0  0  0  0  0  0  0  0  0
  1  2  1  0  0  0  0
  1  3  1  0  0  0  0
  1  4  1  0  0  0  0
  4  5  1  0  0  0  0
  4  6  1  0  0  0  0
  4  7  1  0  0  0  0
  7  8  1  0  0  0  0
  7  9  1  0  0  0  0
  7 10  1  0  0  0  0
 10 11  1  0  0  0  0
  1 12  1  0  0  0  0
 10 12  1  0  0  0  0
 12 13  1  0  0  0  0
 12 14  1  0  0  0  0
 10 15  1  0  0  0  0
 15 16  1  0  0  0  0
M  END
> <VConfSearch Rank>
188

> <Conf_Id>
33

> <Delta U+W>
0.015

> <U+W>
3.025

> <U>
5.843

> <W>
-2.819

> <W(PB)>
-4.568

> <W(SA)>
1.750

> <Valence>
13.789

> <Coulomb>
-8.574

> <VdW>
0.628

> <VdW6>
-3.284

> <VdW12>
3.913

> <Bond>
0.054

> <Angle>
4.033

> <Pdih>
9.702

> <Idih>
0.000

> <Tether>
0.000

$$$$
VeraChem MOL file


 16 16  0  0  0  0  0  0  0  0999 V2000     
   20.1479   17.9103   21.4199 C   0  0  0  0  0  0  0  0  0  0  0  0
   20.4596   16.9294   21.8045 H   0  0  0  0  0  0  0  0  0  0  0  0
   20.5664   18.0207   20.4101 H   0  0  0  0  0  0  0  0  0  0  0  0
   20.6433   19.0267   22.3651 C   0  0  0  0  0  0  0  0  0  0  0  0
   21.1956   18.5862   23.2066 H   0  0  0  0  0  0  0  0  0  0  0  0
   21.3201   19.7216   21.8494 H   0  0  0  0  0  0  0  0  0  0  0  0
   19.3838   19.7568   22.8779 C   0  0  0  0  0  0  0  0  0  0  0  0
   19.2166   20.6631   22.2810 H   0  0  0  0  0  0  0  0  0  0  0  0
   19.4781   20.0615   23.9287 H   0  0  0  0  0  0  0  0  0  0  0  0
   18.2123   18.7907   22.6558 C   0  0  0  0  0  0  0  0  0  0  0  0
   17.2642   19.3298   22.5163 H   0  0  0  0  0  0  0  0  0  0  0  0
   18.6078   18.0086   21.3961 C   0  0  0  0  0  0  0  0  0  0  0  0
   18.1283   17.0216   21.3516 H   0  0  0  0  0  0  0  0  0  0  0  0
   18.2899   18.5746   20.5105 H   0  0  0  0  0  0  0  0  0  0  0  0
   18.1293   17.8957   23.7552 O   0  0  0  0  0  0  0  0  0  0  0  0
   19.0084   17.4664   23.8012 H   0  0  0  0  0  0  0  0  0  0  0  0
  1  2  1  0  0  0  0
  1  3  1  0  0  0  0
  1  4  1  0  0  0  0
  4  5  1  0  0  0  0
  4  6  1  0  0  0  0
  4  7  1  0  0  0  0
  7  8  1  0  0  0  0
  7  9  1  0  0  0  0
  7 10  1  0  0  0  0
 10 11  1  0  0  0  0
  1 12  1  0  0  0  0
 10 12  1  0  0  0  0
 12 13  1  0  0  0  0
 12 14  1  0  0  0  0
 10 15  1  0  0  0  0
 15 16  1  0  0  0  0
M  END
> <VConfSearch Rank>
189

> <Conf_Id>
20

> <Delta U+W>
-0.483

> <U+W>
2.527

> <U>
4.508

> <W>
-1.981

> <W(PB)>
-3.712

> <W(SA)>
1.732

> <Valence>
14.705

> <Coulomb>
-10.687

> <VdW>
0.490

> <VdW6>
-3.745

> <VdW12>
4.235

> <Bond>
0.068

> <Angle>
3.901

> <Pdih>
10.737

> <Idih>
0.000

> <Tether>
0.000

$$$$
VeraChem MOL file


 16 16  0  0  0  0  0  0  0  0999 V2000     
   18.8732   17.1836   22.3307 C   0  0  0  0  0  0  0  0  0  0  0  0
   17.8143   17.2532   22.0451 H   0  0  0  0  0  0  0  0  0  0  0  0
   19.1282   16.1218   22.4504 H   0  0  0  0  0  0  0  0  0  0  0  0
   19.1145   17.9925   23.6126 C   0  0  0  0  0  0  0  0  0  0  0  0
   18.2926   17.8877   24.3339 H   0  0  0  0  0  0  0  0  0  0  0  0
   20.0410   17.6522   24.0955 H   0  0  0  0  0  0  0  0  0  0  0  0
   19.2839   19.4428   23.1242 C   0  0  0  0  0  0  0  0  0  0  0  0
   19.9382   20.0173   23.7925 H   0  0  0  0  0  0  0  0  0  0  0  0
   18.3029   19.9368   23.1058 H   0  0  0  0  0  0  0  0  0  0  0  0
   19.8657   19.3560   21.6974 C   0  0  0  0  0  0  0  0  0  0  0  0
   20.9272   19.6437   21.7057 H   0  0  0  0  0  0  0  0  0  0  0  0
   19.7412   17.8800   21.2665 C   0  0  0  0  0  0  0  0  0  0  0  0
   19.3111   17.7741   20.2615 H   0  0  0  0  0  0  0  0  0  0  0  0
   20.7405   17.4260   21.2513 H   0  0  0  0  0  0  0  0  0  0  0  0
   19.1251   20.1894   20.8137 O   0  0  0  0  0  0  0  0  0  0  0  0
   19.2300   21.1083   21.1395 H   0  0  0  0  0  0  0  0  0  0  0  0
  1  2  1  0  0  0  0
  1  3  1  0  0  0  0
  1  4  1  0  0  0  0
  4  5  1  0  0  0  0
  4  6  1  0  0  0  0
  4  7  1  0  0  0  0
  7  8  1  0  0  0  0
  7  9  1  0  0  0  0
  7 10  1  0  0  0  0
 10 11  1  0  0  0  0
  1 12  1  0  0  0  0
 10 12  1  0  0  0  0
 12 13  1  0  0  0  0
 12 14  1  0  0  0  0
 10 15  1  0  0  0  0
 15 16  1  0  0  0  0
M  END
> <VConfSearch Rank>
190

> <Conf_Id>
59

> <Delta U+W>
0.000

> <U+W>
3.010

> <U>
5.843

> <W>
-2.833

> <W(PB)>
-4.568

> <W(SA)>
1.735

> <Valence>
13.789

> <Coulomb>
-8.574

> <VdW>
0.628

> <VdW6>
-3.284

> <VdW12>
3.912

> <Bond>
0.054

> <Angle>
4.034

> <Pdih>
9.702

> <Idih>
0.000

> <Tether>
0.000

$$$$
VeraChem MOL file


 16 16  0  0  0  0  0  0  0  0999 V2000     
   19.7276   17.2061   22.3778 C   0  0  0  0  0  0  0  0  0  0  0  0
   20.4529   16.5265   22.8457 H   0  0  0  0  0  0  0  0  0  0  0  0
   18.9235   16.6001   21.9375 H   0  0  0  0  0  0  0  0  0  0  0  0
   20.3658   18.0840   21.2927 C   0  0  0  0  0  0  0  0  0  0  0  0
   21.3634   18.4079   21.6205 H   0  0  0  0  0  0  0  0  0  0  0  0
   20.4726   17.5563   20.3352 H   0  0  0  0  0  0  0  0  0  0  0  0
   19.4350   19.3064   21.1893 C   0  0  0  0  0  0  0  0  0  0  0  0
   18.6549   19.1133   20.4415 H   0  0  0  0  0  0  0  0  0  0  0  0
   19.9820   20.2058   20.8765 H   0  0  0  0  0  0  0  0  0  0  0  0
   18.7744   19.4744   22.5732 C   0  0  0  0  0  0  0  0  0  0  0  0
   17.6840   19.5453   22.4491 H   0  0  0  0  0  0  0  0  0  0  0  0
   19.1329   18.2100   23.3823 C   0  0  0  0  0  0  0  0  0  0  0  0
   19.8851   18.4479   24.1468 H   0  0  0  0  0  0  0  0  0  0  0  0
   18.2540   17.7946   23.8920 H   0  0  0  0  0  0  0  0  0  0  0  0
   19.2837   20.6334   23.2224 O   0  0  0  0  0  0  0  0  0  0  0  0
   18.8407   20.6841   24.0957 H   0  0  0  0  0  0  0  0  0  0  0  0
  1  2  1  0  0  0  0
  1  3  1  0  0  0  0
  1  4  1  0  0  0  0
  4  5  1  0  0  0  0
  4  6  1  0  0  0  0
  4  7  1  0  0  0  0
  7  8  1  0  0  0  0
  7  9  1  0  0  0  0
  7 10  1  0  0  0  0
 10 11  1  0  0  0  0
  1 12  1  0  0  0  0
 10 12  1  0  0  0  0
 12 13  1  0  0  0  0
 12 14  1  0  0  0  0
 10 15  1  0  0  0  0
 15 16  1  0  0  0  0
M  END
> <VConfSearch Rank>
191

> <Conf_Id>
33

> <Delta U+W>
0.015

> <U+W>
3.025

> <U>
5.843

> <W>
-2.819

> <W(PB)>
-4.568

> <W(SA)>
1.750

> <Valence>
13.789

> <Coulomb>
-8.574

> <VdW>
0.628

> <VdW6>
-3.284

> <VdW12>
3.913

> <Bond>
0.054

> <Angle>
4.033

> <Pdih>
9.702

> <Idih>
0.000

> <Tether>
0.000

$$$$
VeraChem MOL file


 16 16  0  0  0  0  0  0  0  0999 V2000     
   18.9434   19.0886   21.0889 C   0  0  0  0  0  0  0  0  0  0  0  0
   19.1693   20.1510   20.9229 H   0  0  0  0  0  0  0  0  0  0  0  0
   18.4193   18.7162   20.1981 H   0  0  0  0  0  0  0  0  0  0  0  0
   18.0844   18.9271   22.3622 C   0  0  0  0  0  0  0  0  0  0  0  0
   17.8938   19.9113   22.8117 H   0  0  0  0  0  0  0  0  0  0  0  0
   17.1113   18.4692   22.1375 H   0  0  0  0  0  0  0  0  0  0  0  0
   18.9010   18.0470   23.3322 C   0  0  0  0  0  0  0  0  0  0  0  0
   18.5610   17.0056   23.2573 H   0  0  0  0  0  0  0  0  0  0  0  0
   18.7849   18.3618   24.3779 H   0  0  0  0  0  0  0  0  0  0  0  0
   20.3581   18.1308   22.8582 C   0  0  0  0  0  0  0  0  0  0  0  0
   20.9230   17.2259   23.1248 H   0  0  0  0  0  0  0  0  0  0  0  0
   20.2462   18.2990   21.3370 C   0  0  0  0  0  0  0  0  0  0  0  0
   21.1245   18.7997   20.9081 H   0  0  0  0  0  0  0  0  0  0  0  0
   20.1677   17.3068   20.8733 H   0  0  0  0  0  0  0  0  0  0  0  0
   20.9646   19.2887   23.4134 O   0  0  0  0  0  0  0  0  0  0  0  0
   20.3992   20.0350   23.1264 H   0  0  0  0  0  0  0  0  0  0  0  0
  1  2  1  0  0  0  0
  1  3  1  0  0  0  0
  1  4  1  0  0  0  0
  4  5  1  0  0  0  0
  4  6  1  0  0  0  0
  4  7  1  0  0  0  0
  7  8  1  0  0  0  0
  7  9  1  0  0  0  0
  7 10  1  0  0  0  0
 10 11  1  0  0  0  0
  1 12  1  0  0  0  0
 10 12  1  0  0  0  0
 12 13  1  0  0  0  0
 12 14  1  0  0  0  0
 10 15  1  0  0  0  0
 15 16  1  0  0  0  0
M  END
> <VConfSearch Rank>
192

> <Conf_Id>
20

> <Delta U+W>
-0.483

> <U+W>
2.527

> <U>
4.508

> <W>
-1.981

> <W(PB)>
-3.712

> <W(SA)>
1.732

> <Valence>
14.705

> <Coulomb>
-10.687

> <VdW>
0.490

> <VdW6>
-3.745

> <VdW12>
4.235

> <Bond>
0.068

> <Angle>
3.901

> <Pdih>
10.737

> <Idih>
0.000

> <Tether>
0.000

$$$$
VeraChem MOL file


 16 16  0  0  0  0  0  0  0  0999 V2000     
   20.0143   19.6979   22.9264 C   0  0  0  0  0  0  0  0  0  0  0  0
   19.9114   19.5388   24.0089 H   0  0  0  0  0  0  0  0  0  0  0  0
   20.6083   20.6081   22.7673 H   0  0  0  0  0  0  0  0  0  0  0  0
   18.6227   19.7866   22.2851 C   0  0  0  0  0  0  0  0  0  0  0  0
   17.9109   20.3467   22.9067 H   0  0  0  0  0  0  0  0  0  0  0  0
   18.6963   20.2882   21.3101 H   0  0  0  0  0  0  0  0  0  0  0  0
   18.1986   18.3199   22.0857 C   0  0  0  0  0  0  0  0  0  0  0  0
   17.5248   18.2106   21.2261 H   0  0  0  0  0  0  0  0  0  0  0  0
   17.6641   17.9715   22.9799 H   0  0  0  0  0  0  0  0  0  0  0  0
   19.5001   17.5134   21.8924 C   0  0  0  0  0  0  0  0  0  0  0  0
   19.6086   17.2211   20.8377 H   0  0  0  0  0  0  0  0  0  0  0  0
   20.6574   18.4562   22.2815 C   0  0  0  0  0  0  0  0  0  0  0  0
   21.3767   17.9760   22.9583 H   0  0  0  0  0  0  0  0  0  0  0  0
   21.1992   18.7515   21.3736 H   0  0  0  0  0  0  0  0  0  0  0  0
   19.4968   16.3670   22.7348 O   0  0  0  0  0  0  0  0  0  0  0  0
   18.7394   15.8122   22.4518 H   0  0  0  0  0  0  0  0  0  0  0  0
  1  2  1  0  0  0  0
  1  3  1  0  0  0  0
  1  4  1  0  0  0  0
  4  5  1  0  0  0  0
  4  6  1  0  0  0  0
  4  7  1  0  0  0  0
  7  8  1  0  0  0  0
  7  9  1  0  0  0  0
  7 10  1  0  0  0  0
 10 11  1  0  0  0  0
  1 12  1  0  0  0  0
 10 12  1  0  0  0  0
 12 13  1  0  0  0  0
 12 14  1  0  0  0  0
 10 15  1  0  0  0  0
 15 16  1  0  0  0  0
M  END
> <VConfSearch Rank>
193

> <Conf_Id>
59

> <Delta U+W>
0.000

> <U+W>
3.010

> <U>
5.843

> <W>
-2.833

> <W(PB)>
-4.568

> <W(SA)>
1.735

> <Valence>
13.789

> <Coulomb>
-8.574

> <VdW>
0.628

> <VdW6>
-3.284

> <VdW12>
3.912

> <Bond>
0.054

> <Angle>
4.034

> <Pdih>
9.702

> <Idih>
0.000

> <Tether>
0.000

$$$$
VeraChem MOL file


 16 16  0  0  0  0  0  0  0  0999 V2000     
   20.3236   17.8598   21.4352 C   0  0  0  0  0  0  0  0  0  0  0  0
   20.2658   17.2156   20.5473 H   0  0  0  0  0  0  0  0  0  0  0  0
   21.3835   18.0570   21.6482 H   0  0  0  0  0  0  0  0  0  0  0  0
   19.6601   17.2221   22.6635 C   0  0  0  0  0  0  0  0  0  0  0  0
   18.7392   16.7059   22.3583 H   0  0  0  0  0  0  0  0  0  0  0  0
   20.3136   16.4939   23.1627 H   0  0  0  0  0  0  0  0  0  0  0  0
   19.3061   18.4138   23.5723 C   0  0  0  0  0  0  0  0  0  0  0  0
   20.1441   18.6217   24.2503 H   0  0  0  0  0  0  0  0  0  0  0  0
   18.4221   18.2034   24.1889 H   0  0  0  0  0  0  0  0  0  0  0  0
   19.0970   19.6279   22.6440 C   0  0  0  0  0  0  0  0  0  0  0  0
   19.7064   20.4697   23.0039 H   0  0  0  0  0  0  0  0  0  0  0  0
   19.5745   19.1912   21.2429 C   0  0  0  0  0  0  0  0  0  0  0  0
   18.7133   19.0310   20.5800 H   0  0  0  0  0  0  0  0  0  0  0  0
   20.2186   19.9507   20.7813 H   0  0  0  0  0  0  0  0  0  0  0  0
   17.7201   19.9838   22.6045 O   0  0  0  0  0  0  0  0  0  0  0  0
   17.6447   20.7484   21.9951 H   0  0  0  0  0  0  0  0  0  0  0  0
  1  2  1  0  0  0  0
  1  3  1  0  0  0  0
  1  4  1  0  0  0  0
  4  5  1  0  0  0  0
  4  6  1  0  0  0  0
  4  7  1  0  0  0  0
  7  8  1  0  0  0  0
  7  9  1  0  0  0  0
  7 10  1  0  0  0  0
 10 11  1  0  0  0  0
  1 12  1  0  0  0  0
 10 12  1  0  0  0  0
 12 13  1  0  0  0  0
 12 14  1  0  0  0  0
 10 15  1  0  0  0  0
 15 16  1  0  0  0  0
M  END
> <VConfSearch Rank>
194

> <Conf_Id>
33

> <Delta U+W>
0.015

> <U+W>
3.025

> <U>
5.843

> <W>
-2.819

> <W(PB)>
-4.568

> <W(SA)>
1.750

> <Valence>
13.789

> <Coulomb>
-8.574

> <VdW>
0.628

> <VdW6>
-3.284

> <VdW12>
3.913

> <Bond>
0.054

> <Angle>
4.033

> <Pdih>
9.702

> <Idih>
0.000

> <Tether>
0.000

$$$$
VeraChem MOL file


 16 16  0  0  0  0  0  0  0  0999 V2000     
   18.0827   18.3027   22.1480 C   0  0  0  0  0  0  0  0  0  0  0  0
   17.4111   19.1722   22.1355 H   0  0  0  0  0  0  0  0  0  0  0  0
   17.4631   17.4014   22.0449 H   0  0  0  0  0  0  0  0  0  0  0  0
   18.8956   18.2858   23.4610 C   0  0  0  0  0  0  0  0  0  0  0  0
   18.6166   19.1465   24.0844 H   0  0  0  0  0  0  0  0  0  0  0  0
   18.7019   17.3751   24.0443 H   0  0  0  0  0  0  0  0  0  0  0  0
   20.3822   18.3799   23.0567 C   0  0  0  0  0  0  0  0  0  0  0  0
   20.8243   17.3749   23.0479 H   0  0  0  0  0  0  0  0  0  0  0  0
   20.9653   18.9953   23.7548 H   0  0  0  0  0  0  0  0  0  0  0  0
   20.3998   18.9445   21.6299 C   0  0  0  0  0  0  0  0  0  0  0  0
   21.2897   18.6142   21.0749 H   0  0  0  0  0  0  0  0  0  0  0  0
   19.1088   18.4052   20.9995 C   0  0  0  0  0  0  0  0  0  0  0  0
   18.7511   19.0389   20.1771 H   0  0  0  0  0  0  0  0  0  0  0  0
   19.3026   17.4048   20.5905 H   0  0  0  0  0  0  0  0  0  0  0  0
   20.3356   20.3621   21.6870 O   0  0  0  0  0  0  0  0  0  0  0  0
   19.5211   20.5600   22.1936 H   0  0  0  0  0  0  0  0  0  0  0  0
  1  2  1  0  0  0  0
  1  3  1  0  0  0  0
  1  4  1  0  0  0  0
  4  5  1  0  0  0  0
  4  6  1  0  0  0  0
  4  7  1  0  0  0  0
  7  8  1  0  0  0  0
  7  9  1  0  0  0  0
  7 10  1  0  0  0  0
 10 11  1  0  0  0  0
  1 12  1  0  0  0  0
 10 12  1  0  0  0  0
 12 13  1  0  0  0  0
 12 14  1  0  0  0  0
 10 15  1  0  0  0  0
 15 16  1  0  0  0  0
M  END
> <VConfSearch Rank>
195

> <Conf_Id>
20

> <Delta U+W>
-0.483

> <U+W>
2.527

> <U>
4.508

> <W>
-1.981

> <W(PB)>
-3.712

> <W(SA)>
1.732

> <Valence>
14.705

> <Coulomb>
-10.687

> <VdW>
0.490

> <VdW6>
-3.745

> <VdW12>
4.235

> <Bond>
0.068

> <Angle>
3.901

> <Pdih>
10.737

> <Idih>
0.000

> <Tether>
0.000

$$$$
VeraChem MOL file


 16 16  0  0  0  0  0  0  0  0999 V2000     
   18.3871   17.4828   22.4664 C   0  0  0  0  0  0  0  0  0  0  0  0
   18.6585   16.9847   23.4076 H   0  0  0  0  0  0  0  0  0  0  0  0
   17.4787   17.0057   22.0741 H   0  0  0  0  0  0  0  0  0  0  0  0
   19.5631   17.4014   21.4836 C   0  0  0  0  0  0  0  0  0  0  0  0
   20.0716   16.4283   21.5199 H   0  0  0  0  0  0  0  0  0  0  0  0
   19.2002   17.5613   20.4587 H   0  0  0  0  0  0  0  0  0  0  0  0
   20.4878   18.5614   21.8957 C   0  0  0  0  0  0  0  0  0  0  0  0
   21.0560   18.9454   21.0386 H   0  0  0  0  0  0  0  0  0  0  0  0
   21.2075   18.2038   22.6447 H   0  0  0  0  0  0  0  0  0  0  0  0
   19.5771   19.6480   22.5053 C   0  0  0  0  0  0  0  0  0  0  0  0
   19.4747   20.4897   21.8048 H   0  0  0  0  0  0  0  0  0  0  0  0
   18.1978   18.9904   22.7167 C   0  0  0  0  0  0  0  0  0  0  0  0
   17.7919   19.1860   23.7182 H   0  0  0  0  0  0  0  0  0  0  0  0
   17.4900   19.3995   21.9841 H   0  0  0  0  0  0  0  0  0  0  0  0
   20.1058   20.0902   23.7498 O   0  0  0  0  0  0  0  0  0  0  0  0
   20.9819   20.4869   23.5582 H   0  0  0  0  0  0  0  0  0  0  0  0
  1  2  1  0  0  0  0
  1  3  1  0  0  0  0
  1  4  1  0  0  0  0
  4  5  1  0  0  0  0
  4  6  1  0  0  0  0
  4  7  1  0  0  0  0
  7  8  1  0  0  0  0
  7  9  1  0  0  0  0
  7 10  1  0  0  0  0
 10 11  1  0  0  0  0
  1 12  1  0  0  0  0
 10 12  1  0  0  0  0
 12 13  1  0  0  0  0
 12 14  1  0  0  0  0
 10 15  1  0  0  0  0
 15 16  1  0  0  0  0
M  END
> <VConfSearch Rank>
196

> <Conf_Id>
59

> <Delta U+W>
0.000

> <U+W>
3.010

> <U>
5.843

> <W>
-2.833

> <W(PB)>
-4.568

> <W(SA)>
1.735

> <Valence>
13.789

> <Coulomb>
-8.574

> <VdW>
0.628

> <VdW6>
-3.284

> <VdW12>
3.912

> <Bond>
0.054

> <Angle>
4.034

> <Pdih>
9.702

> <Idih>
0.000

> <Tether>
0.000

$$$$
VeraChem MOL file


 16 16  0  0  0  0  0  0  0  0999 V2000     
   20.8792   18.4867   22.3826 C   0  0  0  0  0  0  0  0  0  0  0  0
   21.6815   18.6161   23.1216 H   0  0  0  0  0  0  0  0  0  0  0  0
   21.3103   18.0211   21.4853 H   0  0  0  0  0  0  0  0  0  0  0  0
   20.2132   19.8169   22.0046 C   0  0  0  0  0  0  0  0  0  0  0  0
   20.1048   20.4424   22.9017 H   0  0  0  0  0  0  0  0  0  0  0  0
   20.7930   20.3799   21.2606 H   0  0  0  0  0  0  0  0  0  0  0  0
   18.8206   19.4163   21.4839 C   0  0  0  0  0  0  0  0  0  0  0  0
   18.8684   19.2411   20.4013 H   0  0  0  0  0  0  0  0  0  0  0  0
   18.0796   20.2071   21.6617 H   0  0  0  0  0  0  0  0  0  0  0  0
   18.4495   18.0964   22.1911 C   0  0  0  0  0  0  0  0  0  0  0  0
   18.1440   17.3546   21.4389 H   0  0  0  0  0  0  0  0  0  0  0  0
   19.7251   17.6185   22.9165 C   0  0  0  0  0  0  0  0  0  0  0  0
   19.6268   17.7713   23.9999 H   0  0  0  0  0  0  0  0  0  0  0  0
   19.9124   16.5511   22.7422 H   0  0  0  0  0  0  0  0  0  0  0  0
   17.4051   18.3202   23.1308 O   0  0  0  0  0  0  0  0  0  0  0  0
   17.2191   17.4562   23.5555 H   0  0  0  0  0  0  0  0  0  0  0  0
  1  2  1  0  0  0  0
  1  3  1  0  0  0  0
  1  4  1  0  0  0  0
  4  5  1  0  0  0  0
  4  6  1  0  0  0  0
  4  7  1  0  0  0  0
  7  8  1  0  0  0  0
  7  9  1  0  0  0  0
  7 10  1  0  0  0  0
 10 11  1  0  0  0  0
  1 12  1  0  0  0  0
 10 12  1  0  0  0  0
 12 13  1  0  0  0  0
 12 14  1  0  0  0  0
 10 15  1  0  0  0  0
 15 16  1  0  0  0  0
M  END
> <VConfSearch Rank>
197

> <Conf_Id>
33

> <Delta U+W>
0.015

> <U+W>
3.025

> <U>
5.843

> <W>
-2.819

> <W(PB)>
-4.568

> <W(SA)>
1.750

> <Valence>
13.789

> <Coulomb>
-8.574

> <VdW>
0.628

> <VdW6>
-3.284

> <VdW12>
3.913

> <Bond>
0.054

> <Angle>
4.033

> <Pdih>
9.702

> <Idih>
0.000

> <Tether>
0.000

$$$$
VeraChem MOL file


 16 16  0  0  0  0  0  0  0  0999 V2000     
   19.2823   18.3831   20.9450 C   0  0  0  0  0  0  0  0  0  0  0  0
   18.3180   18.6729   20.5053 H   0  0  0  0  0  0  0  0  0  0  0  0
   19.9135   17.9916   20.1356 H   0  0  0  0  0  0  0  0  0  0  0  0
   19.0594   17.3292   22.0517 C   0  0  0  0  0  0  0  0  0  0  0  0
   17.9873   17.1083   22.1469 H   0  0  0  0  0  0  0  0  0  0  0  0
   19.5748   16.3867   21.8216 H   0  0  0  0  0  0  0  0  0  0  0  0
   19.5942   17.9489   23.3603 C   0  0  0  0  0  0  0  0  0  0  0  0
   20.6130   17.5853   23.5488 H   0  0  0  0  0  0  0  0  0  0  0  0
   18.9781   17.6822   24.2294 H   0  0  0  0  0  0  0  0  0  0  0  0
   19.6418   19.4645   23.1246 C   0  0  0  0  0  0  0  0  0  0  0  0
   20.4166   19.9454   23.7389 H   0  0  0  0  0  0  0  0  0  0  0  0
   19.9446   19.5995   21.6262 C   0  0  0  0  0  0  0  0  0  0  0  0
   19.5878   20.5528   21.2140 H   0  0  0  0  0  0  0  0  0  0  0  0
   21.0315   19.5569   21.4769 H   0  0  0  0  0  0  0  0  0  0  0  0
   18.3633   20.0203   23.3953 O   0  0  0  0  0  0  0  0  0  0  0  0
   17.7457   19.5360   22.8095 H   0  0  0  0  0  0  0  0  0  0  0  0
  1  2  1  0  0  0  0
  1  3  1  0  0  0  0
  1  4  1  0  0  0  0
  4  5  1  0  0  0  0
  4  6  1  0  0  0  0
  4  7  1  0  0  0  0
  7  8  1  0  0  0  0
  7  9  1  0  0  0  0
  7 10  1  0  0  0  0
 10 11  1  0  0  0  0
  1 12  1  0  0  0  0
 10 12  1  0  0  0  0
 12 13  1  0  0  0  0
 12 14  1  0  0  0  0
 10 15  1  0  0  0  0
 15 16  1  0  0  0  0
M  END
> <VConfSearch Rank>
198

> <Conf_Id>
20

> <Delta U+W>
-0.483

> <U+W>
2.527

> <U>
4.508

> <W>
-1.981

> <W(PB)>
-3.712

> <W(SA)>
1.732

> <Valence>
14.705

> <Coulomb>
-10.687

> <VdW>
0.490

> <VdW6>
-3.745

> <VdW12>
4.235

> <Bond>
0.068

> <Angle>
3.901

> <Pdih>
10.737

> <Idih>
0.000

> <Tether>
0.000

$$$$
VeraChem MOL file


 16 16  0  0  0  0  0  0  0  0999 V2000     
   19.2546   17.7152   21.1313 C   0  0  0  0  0  0  0  0  0  0  0  0
   18.1807   17.6807   20.9003 H   0  0  0  0  0  0  0  0  0  0  0  0
   19.7922   17.1582   20.3519 H   0  0  0  0  0  0  0  0  0  0  0  0
   19.4975   17.1425   22.5344 C   0  0  0  0  0  0  0  0  0  0  0  0
   18.8691   16.2658   22.7426 H   0  0  0  0  0  0  0  0  0  0  0  0
   20.5500   16.8423   22.6340 H   0  0  0  0  0  0  0  0  0  0  0  0
   19.1986   18.3166   23.4844 C   0  0  0  0  0  0  0  0  0  0  0  0
   19.7880   18.2456   24.4077 H   0  0  0  0  0  0  0  0  0  0  0  0
   18.1355   18.2988   23.7606 H   0  0  0  0  0  0  0  0  0  0  0  0
   19.5259   19.6048   22.7002 C   0  0  0  0  0  0  0  0  0  0  0  0
   20.4616   20.0455   23.0740 H   0  0  0  0  0  0  0  0  0  0  0  0
   19.7142   19.1816   21.2287 C   0  0  0  0  0  0  0  0  0  0  0  0
   19.1583   19.8264   20.5351 H   0  0  0  0  0  0  0  0  0  0  0  0
   20.7786   19.2521   20.9694 H   0  0  0  0  0  0  0  0  0  0  0  0
   18.4530   20.5326   22.8104 O   0  0  0  0  0  0  0  0  0  0  0  0
   18.3718   20.7569   23.7615 H   0  0  0  0  0  0  0  0  0  0  0  0
  1  2  1  0  0  0  0
  1  3  1  0  0  0  0
  1  4  1  0  0  0  0
  4  5  1  0  0  0  0
  4  6  1  0  0  0  0
  4  7  1  0  0  0  0
  7  8  1  0  0  0  0
  7  9  1  0  0  0  0
  7 10  1  0  0  0  0
 10 11  1  0  0  0  0
  1 12  1  0  0  0  0
 10 12  1  0  0  0  0
 12 13  1  0  0  0  0
 12 14  1  0  0  0  0
 10 15  1  0  0  0  0
 15 16  1  0  0  0  0
M  END
> <VConfSearch Rank>
199

> <Conf_Id>
59

> <Delta U+W>
0.000

> <U+W>
3.010

> <U>
5.843

> <W>
-2.833

> <W(PB)>
-4.568

> <W(SA)>
1.735

> <Valence>
13.789

> <Coulomb>
-8.574

> <VdW>
0.628

> <VdW6>
-3.284

> <VdW12>
3.912

> <Bond>
0.054

> <Angle>
4.034

> <Pdih>
9.702

> <Idih>
0.000

> <Tether>
0.000

$$$$
VeraChem MOL file


 16 16  0  0  0  0  0  0  0  0999 V2000     
   20.4837   17.8955   21.5978 C   0  0  0  0  0  0  0  0  0  0  0  0
   21.3711   17.2879   21.8218 H   0  0  0  0  0  0  0  0  0  0  0  0
   20.2885   17.8335   20.5182 H   0  0  0  0  0  0  0  0  0  0  0  0
   20.6631   19.3640   22.0066 C   0  0  0  0  0  0  0  0  0  0  0  0
   21.1975   19.4168   22.9654 H   0  0  0  0  0  0  0  0  0  0  0  0
   21.2315   19.9399   21.2637 H   0  0  0  0  0  0  0  0  0  0  0  0
   19.2278   19.8918   22.1865 C   0  0  0  0  0  0  0  0  0  0  0  0
   18.8631   20.2995   21.2347 H   0  0  0  0  0  0  0  0  0  0  0  0
   19.1834   20.6961   22.9330 H   0  0  0  0  0  0  0  0  0  0  0  0
   18.3593   18.6791   22.5799 C   0  0  0  0  0  0  0  0  0  0  0  0
   17.4820   18.6306   21.9184 H   0  0  0  0  0  0  0  0  0  0  0  0
   19.2419   17.4291   22.3794 C   0  0  0  0  0  0  0  0  0  0  0  0
   19.5552   17.0244   23.3515 H   0  0  0  0  0  0  0  0  0  0  0  0
   18.7039   16.6373   21.8423 H   0  0  0  0  0  0  0  0  0  0  0  0
   17.9583   18.7838   23.9409 O   0  0  0  0  0  0  0  0  0  0  0  0
   17.4224   17.9867   24.1383 H   0  0  0  0  0  0  0  0  0  0  0  0
  1  2  1  0  0  0  0
  1  3  1  0  0  0  0
  1  4  1  0  0  0  0
  4  5  1  0  0  0  0
  4  6  1  0  0  0  0
  4  7  1  0  0  0  0
  7  8  1  0  0  0  0
  7  9  1  0  0  0  0
  7 10  1  0  0  0  0
 10 11  1  0  0  0  0
  1 12  1  0  0  0  0
 10 12  1  0  0  0  0
 12 13  1  0  0  0  0
 12 14  1  0  0  0  0
 10 15  1  0  0  0  0
 15 16  1  0  0  0  0
M  END
> <VConfSearch Rank>
200

> <Conf_Id>
33

> <Delta U+W>
0.015

> <U+W>
3.025

> <U>
5.843

> <W>
-2.819

> <W(PB)>
-4.568

> <W(SA)>
1.750

> <Valence>
13.789

> <Coulomb>
-8.574

> <VdW>
0.628

> <VdW6>
-3.284

> <VdW12>
3.913

> <Bond>
0.054

> <Angle>
4.033

> <Pdih>
9.702

> <Idih>
0.000

> <Tether>
0.000

$$$$
VeraChem MOL file


 16 16  0  0  0  0  0  0  0  0999 V2000     
   20.4298   19.4316   22.3256 C   0  0  0  0  0  0  0  0  0  0  0  0
   21.3779   18.9331   22.5701 H   0  0  0  0  0  0  0  0  0  0  0  0
   20.6414   20.5007   22.1869 H   0  0  0  0  0  0  0  0  0  0  0  0
   19.4061   19.1975   23.4579 C   0  0  0  0  0  0  0  0  0  0  0  0
   19.8591   18.5866   24.2509 H   0  0  0  0  0  0  0  0  0  0  0  0
   19.0814   20.1442   23.9110 H   0  0  0  0  0  0  0  0  0  0  0  0
   18.2148   18.4490   22.8231 C   0  0  0  0  0  0  0  0  0  0  0  0
   17.4208   19.1659   22.5757 H   0  0  0  0  0  0  0  0  0  0  0  0
   17.7872   17.6972   23.4999 H   0  0  0  0  0  0  0  0  0  0  0  0
   18.7467   17.8268   21.5250 C   0  0  0  0  0  0  0  0  0  0  0  0
   17.9487   17.7041   20.7785 H   0  0  0  0  0  0  0  0  0  0  0  0
   19.8181   18.8168   21.0488 C   0  0  0  0  0  0  0  0  0  0  0  0
   20.5750   18.3371   20.4140 H   0  0  0  0  0  0  0  0  0  0  0  0
   19.3364   19.6058   20.4562 H   0  0  0  0  0  0  0  0  0  0  0  0
   19.3598   16.5805   21.8207 O   0  0  0  0  0  0  0  0  0  0  0  0
   20.0485   16.7867   22.4857 H   0  0  0  0  0  0  0  0  0  0  0  0
  1  2  1  0  0  0  0
  1  3  1  0  0  0  0
  1  4  1  0  0  0  0
  4  5  1  0  0  0  0
  4  6  1  0  0  0  0
  4  7  1  0  0  0  0
  7  8  1  0  0  0  0
  7  9  1  0  0  0  0
  7 10  1  0  0  0  0
 10 11  1  0  0  0  0
  1 12  1  0  0  0  0
 10 12  1  0  0  0  0
 12 13  1  0  0  0  0
 12 14  1  0  0  0  0
 10 15  1  0  0  0  0
 15 16  1  0  0  0  0
M  END
> <VConfSearch Rank>
201

> <Conf_Id>
20

> <Delta U+W>
-0.483

> <U+W>
2.527

> <U>
4.508

> <W>
-1.981

> <W(PB)>
-3.712

> <W(SA)>
1.732

> <Valence>
14.705

> <Coulomb>
-10.687

> <VdW>
0.490

> <VdW6>
-3.745

> <VdW12>
4.235

> <Bond>
0.068

> <Angle>
3.901

> <Pdih>
10.737

> <Idih>
0.000

> <Tether>
0.000

$$$$
VeraChem MOL file


 16 16  0  0  0  0  0  0  0  0999 V2000     
   19.6198   18.0700   23.6598 C   0  0  0  0  0  0  0  0  0  0  0  0
   18.6359   17.7800   24.0540 H   0  0  0  0  0  0  0  0  0  0  0  0
   20.3792   17.8229   24.4142 H   0  0  0  0  0  0  0  0  0  0  0  0
   19.6115   19.5628   23.3035 C   0  0  0  0  0  0  0  0  0  0  0  0
   19.0611   20.1651   24.0391 H   0  0  0  0  0  0  0  0  0  0  0  0
   20.6436   19.9373   23.2561 H   0  0  0  0  0  0  0  0  0  0  0  0
   18.9722   19.6191   21.9040 C   0  0  0  0  0  0  0  0  0  0  0  0
   19.3462   20.4742   21.3263 H   0  0  0  0  0  0  0  0  0  0  0  0
   17.8841   19.7308   22.0059 H   0  0  0  0  0  0  0  0  0  0  0  0
   19.3102   18.2791   21.2172 C   0  0  0  0  0  0  0  0  0  0  0  0
   20.0806   18.4343   20.4479 H   0  0  0  0  0  0  0  0  0  0  0  0
   19.8692   17.3551   22.3189 C   0  0  0  0  0  0  0  0  0  0  0  0
   19.4086   16.3584   22.3004 H   0  0  0  0  0  0  0  0  0  0  0  0
   20.9485   17.2269   22.1649 H   0  0  0  0  0  0  0  0  0  0  0  0
   18.1375   17.7097   20.6478 O   0  0  0  0  0  0  0  0  0  0  0  0
   17.8212   18.3400   19.9664 H   0  0  0  0  0  0  0  0  0  0  0  0
  1  2  1  0  0  0  0
  1  3  1  0  0  0  0
  1  4  1  0  0  0  0
  4  5  1  0  0  0  0
  4  6  1  0  0  0  0
  4  7  1  0  0  0  0
  7  8  1  0  0  0  0
  7  9  1  0  0  0  0
  7 10  1  0  0  0  0
 10 11  1  0  0  0  0
  1 12  1  0  0  0  0
 10 12  1  0  0  0  0
 12 13  1  0  0  0  0
 12 14  1  0  0  0  0
 10 15  1  0  0  0  0
 15 16  1  0  0  0  0
M  END
> <VConfSearch Rank>
202

> <Conf_Id>
59

> <Delta U+W>
0.000

> <U+W>
3.010

> <U>
5.843

> <W>
-2.833

> <W(PB)>
-4.568

> <W(SA)>
1.735

> <Valence>
13.789

> <Coulomb>
-8.574

> <VdW>
0.628

> <VdW6>
-3.284

> <VdW12>
3.912

> <Bond>
0.054

> <Angle>
4.034

> <Pdih>
9.702

> <Idih>
0.000

> <Tether>
0.000

$$$$
VeraChem MOL file


 16 16  0  0  0  0  0  0  0  0999 V2000     
   18.7530   18.2184   21.1021 C   0  0  0  0  0  0  0  0  0  0  0  0
   18.5952   18.5711   20.0737 H   0  0  0  0  0  0  0  0  0  0  0  0
   18.3255   17.2098   21.1888 H   0  0  0  0  0  0  0  0  0  0  0  0
   18.1074   19.1440   22.1424 C   0  0  0  0  0  0  0  0  0  0  0  0
   18.2481   20.1914   21.8412 H   0  0  0  0  0  0  0  0  0  0  0  0
   17.0303   18.9604   22.2562 H   0  0  0  0  0  0  0  0  0  0  0  0
   18.8904   18.8708   23.4398 C   0  0  0  0  0  0  0  0  0  0  0  0
   18.4056   18.0600   23.9989 H   0  0  0  0  0  0  0  0  0  0  0  0
   18.9167   19.7554   24.0900 H   0  0  0  0  0  0  0  0  0  0  0  0
   20.3013   18.4147   23.0142 C   0  0  0  0  0  0  0  0  0  0  0  0
   20.5484   17.4730   23.5258 H   0  0  0  0  0  0  0  0  0  0  0  0
   20.2430   18.1877   21.4888 C   0  0  0  0  0  0  0  0  0  0  0  0
   20.7714   18.9948   20.9634 H   0  0  0  0  0  0  0  0  0  0  0  0
   20.7117   17.2368   21.2043 H   0  0  0  0  0  0  0  0  0  0  0  0
   21.2568   19.4220   23.3245 O   0  0  0  0  0  0  0  0  0  0  0  0
   22.1276   19.0857   23.0241 H   0  0  0  0  0  0  0  0  0  0  0  0
  1  2  1  0  0  0  0
  1  3  1  0  0  0  0
  1  4  1  0  0  0  0
  4  5  1  0  0  0  0
  4  6  1  0  0  0  0
  4  7  1  0  0  0  0
  7  8  1  0  0  0  0
  7  9  1  0  0  0  0
  7 10  1  0  0  0  0
 10 11  1  0  0  0  0
  1 12  1  0  0  0  0
 10 12  1  0  0  0  0
 12 13  1  0  0  0  0
 12 14  1  0  0  0  0
 10 15  1  0  0  0  0
 15 16  1  0  0  0  0
M  END
> <VConfSearch Rank>
203

> <Conf_Id>
33

> <Delta U+W>
0.015

> <U+W>
3.025

> <U>
5.843

> <W>
-2.819

> <W(PB)>
-4.568

> <W(SA)>
1.750

> <Valence>
13.789

> <Coulomb>
-8.574

> <VdW>
0.628

> <VdW6>
-3.284

> <VdW12>
3.913

> <Bond>
0.054

> <Angle>
4.033

> <Pdih>
9.702

> <Idih>
0.000

> <Tether>
0.000

$$$$
VeraChem MOL file


 16 16  0  0  0  0  0  0  0  0999 V2000     
   19.0722   17.3148   22.3734 C   0  0  0  0  0  0  0  0  0  0  0  0
   19.9299   16.6364   22.2668 H   0  0  0  0  0  0  0  0  0  0  0  0
   18.1830   16.6998   22.5682 H   0  0  0  0  0  0  0  0  0  0  0  0
   18.9084   18.1599   21.0912 C   0  0  0  0  0  0  0  0  0  0  0  0
   19.6862   17.8897   20.3636 H   0  0  0  0  0  0  0  0  0  0  0  0
   17.9330   17.9877   20.6158 H   0  0  0  0  0  0  0  0  0  0  0  0
   19.0655   19.6354   21.5164 C   0  0  0  0  0  0  0  0  0  0  0  0
   18.0734   20.0849   21.6549 H   0  0  0  0  0  0  0  0  0  0  0  0
   19.6000   20.2307   20.7641 H   0  0  0  0  0  0  0  0  0  0  0  0
   19.7955   19.6134   22.8661 C   0  0  0  0  0  0  0  0  0  0  0  0
   19.5427   20.4919   23.4772 H   0  0  0  0  0  0  0  0  0  0  0  0
   19.3210   18.3115   23.5255 C   0  0  0  0  0  0  0  0  0  0  0  0
   20.0439   17.9287   24.2582 H   0  0  0  0  0  0  0  0  0  0  0  0
   18.3782   18.5029   24.0549 H   0  0  0  0  0  0  0  0  0  0  0  0
   21.1955   19.5397   22.6396 O   0  0  0  0  0  0  0  0  0  0  0  0
   21.3233   18.7364   22.0940 H   0  0  0  0  0  0  0  0  0  0  0  0
  1  2  1  0  0  0  0
  1  3  1  0  0  0  0
  1  4  1  0  0  0  0
  4  5  1  0  0  0  0
  4  6  1  0  0  0  0
  4  7  1  0  0  0  0
  7  8  1  0  0  0  0
  7  9  1  0  0  0  0
  7 10  1  0  0  0  0
 10 11  1  0  0  0  0
  1 12  1  0  0  0  0
 10 12  1  0  0  0  0
 12 13  1  0  0  0  0
 12 14  1  0  0  0  0
 10 15  1  0  0  0  0
 15 16  1  0  0  0  0
M  END
> <VConfSearch Rank>
204

> <Conf_Id>
20

> <Delta U+W>
-0.483

> <U+W>
2.527

> <U>
4.508

> <W>
-1.981

> <W(PB)>
-3.712

> <W(SA)>
1.732

> <Valence>
14.705

> <Coulomb>
-10.687

> <VdW>
0.490

> <VdW6>
-3.745

> <VdW12>
4.235

> <Bond>
0.068

> <Angle>
3.901

> <Pdih>
10.737

> <Idih>
0.000

> <Tether>
0.000

$$$$
VeraChem MOL file


 16 16  0  0  0  0  0  0  0  0999 V2000     
   20.2348   18.0027   23.3345 C   0  0  0  0  0  0  0  0  0  0  0  0
   19.5612   17.6518   24.1287 H   0  0  0  0  0  0  0  0  0  0  0  0
   21.2641   17.7420   23.6161 H   0  0  0  0  0  0  0  0  0  0  0  0
   20.0473   19.5124   23.1310 C   0  0  0  0  0  0  0  0  0  0  0  0
   19.9119   20.0485   24.0802 H   0  0  0  0  0  0  0  0  0  0  0  0
   20.9285   19.9293   22.6236 H   0  0  0  0  0  0  0  0  0  0  0  0
   18.8161   19.6253   22.2135 C   0  0  0  0  0  0  0  0  0  0  0  0
   18.8625   20.5268   21.5889 H   0  0  0  0  0  0  0  0  0  0  0  0
   17.9086   19.6880   22.8294 H   0  0  0  0  0  0  0  0  0  0  0  0
   18.7931   18.3420   21.3565 C   0  0  0  0  0  0  0  0  0  0  0  0
   19.1006   18.5721   20.3260 H   0  0  0  0  0  0  0  0  0  0  0  0
   19.8171   17.3779   21.9905 C   0  0  0  0  0  0  0  0  0  0  0  0
   19.4102   16.3666   22.1240 H   0  0  0  0  0  0  0  0  0  0  0  0
   20.6920   17.3014   21.3320 H   0  0  0  0  0  0  0  0  0  0  0  0
   17.4946   17.7613   21.3768 O   0  0  0  0  0  0  0  0  0  0  0  0
   16.8868   18.4174   20.9748 H   0  0  0  0  0  0  0  0  0  0  0  0
  1  2  1  0  0  0  0
  1  3  1  0  0  0  0
  1  4  1  0  0  0  0
  4  5  1  0  0  0  0
  4  6  1  0  0  0  0
  4  7  1  0  0  0  0
  7  8  1  0  0  0  0
  7  9  1  0  0  0  0
  7 10  1  0  0  0  0
 10 11  1  0  0  0  0
  1 12  1  0  0  0  0
 10 12  1  0  0  0  0
 12 13  1  0  0  0  0
 12 14  1  0  0  0  0
 10 15  1  0  0  0  0
 15 16  1  0  0  0  0
M  END
> <VConfSearch Rank>
205

> <Conf_Id>
59

> <Delta U+W>
0.000

> <U+W>
3.010

> <U>
5.843

> <W>
-2.833

> <W(PB)>
-4.568

> <W(SA)>
1.735

> <Valence>
13.789

> <Coulomb>
-8.574

> <VdW>
0.628

> <VdW6>
-3.284

> <VdW12>
3.912

> <Bond>
0.054

> <Angle>
4.034

> <Pdih>
9.702

> <Idih>
0.000

> <Tether>
0.000

$$$$
VeraChem MOL file


 16 16  0  0  0  0  0  0  0  0999 V2000     
   20.0187   17.7616   23.3002 C   0  0  0  0  0  0  0  0  0  0  0  0
   20.1379   16.6910   23.5157 H   0  0  0  0  0  0  0  0  0  0  0  0
   20.6087   18.3276   24.0345 H   0  0  0  0  0  0  0  0  0  0  0  0
   18.5520   18.2096   23.3607 C   0  0  0  0  0  0  0  0  0  0  0  0
   17.9117   17.4352   22.9158 H   0  0  0  0  0  0  0  0  0  0  0  0
   18.2104   18.3897   24.3890 H   0  0  0  0  0  0  0  0  0  0  0  0
   18.5016   19.4811   22.4936 C   0  0  0  0  0  0  0  0  0  0  0  0
   18.6980   20.3616   23.1191 H   0  0  0  0  0  0  0  0  0  0  0  0
   17.5155   19.6149   22.0291 H   0  0  0  0  0  0  0  0  0  0  0  0
   19.6278   19.3455   21.4481 C   0  0  0  0  0  0  0  0  0  0  0  0
   20.2463   20.2548   21.4603 H   0  0  0  0  0  0  0  0  0  0  0  0
   20.4724   18.1264   21.8749 C   0  0  0  0  0  0  0  0  0  0  0  0
   20.2814   17.2774   21.2044 H   0  0  0  0  0  0  0  0  0  0  0  0
   21.5469   18.3480   21.8404 H   0  0  0  0  0  0  0  0  0  0  0  0
   19.0738   19.1306   20.1555 O   0  0  0  0  0  0  0  0  0  0  0  0
   19.8295   19.0409   19.5370 H   0  0  0  0  0  0  0  0  0  0  0  0
  1  2  1  0  0  0  0
  1  3  1  0  0  0  0
  1  4  1  0  0  0  0
  4  5  1  0  0  0  0
  4  6  1  0  0  0  0
  4  7  1  0  0  0  0
  7  8  1  0  0  0  0
  7  9  1  0  0  0  0
  7 10  1  0  0  0  0
 10 11  1  0  0  0  0
  1 12  1  0  0  0  0
 10 12  1  0  0  0  0
 12 13  1  0  0  0  0
 12 14  1  0  0  0  0
 10 15  1  0  0  0  0
 15 16  1  0  0  0  0
M  END
> <VConfSearch Rank>
206

> <Conf_Id>
33

> <Delta U+W>
0.015

> <U+W>
3.025

> <U>
5.843

> <W>
-2.819

> <W(PB)>
-4.568

> <W(SA)>
1.750

> <Valence>
13.789

> <Coulomb>
-8.574

> <VdW>
0.628

> <VdW6>
-3.284

> <VdW12>
3.913

> <Bond>
0.054

> <Angle>
4.033

> <Pdih>
9.702

> <Idih>
0.000

> <Tether>
0.000

$$$$
VeraChem MOL file


 16 16  0  0  0  0  0  0  0  0999 V2000     
   18.4032   18.3060   23.1193 C   0  0  0  0  0  0  0  0  0  0  0  0
   18.2578   19.0466   23.9178 H   0  0  0  0  0  0  0  0  0  0  0  0
   17.6599   17.5099   23.2637 H   0  0  0  0  0  0  0  0  0  0  0  0
   19.8444   17.7535   23.1713 C   0  0  0  0  0  0  0  0  0  0  0  0
   20.3962   18.2260   23.9957 H   0  0  0  0  0  0  0  0  0  0  0  0
   19.8551   16.6683   23.3420 H   0  0  0  0  0  0  0  0  0  0  0  0
   20.4984   18.1090   21.8192 C   0  0  0  0  0  0  0  0  0  0  0  0
   20.4439   17.2430   21.1464 H   0  0  0  0  0  0  0  0  0  0  0  0
   21.5567   18.3817   21.9276 H   0  0  0  0  0  0  0  0  0  0  0  0
   19.6611   19.2518   21.2293 C   0  0  0  0  0  0  0  0  0  0  0  0
   19.7039   19.2594   20.1306 H   0  0  0  0  0  0  0  0  0  0  0  0
   18.2400   18.9734   21.7372 C   0  0  0  0  0  0  0  0  0  0  0  0
   17.6292   19.8848   21.7845 H   0  0  0  0  0  0  0  0  0  0  0  0
   17.7457   18.2753   21.0487 H   0  0  0  0  0  0  0  0  0  0  0  0
   20.1147   20.4874   21.7625 O   0  0  0  0  0  0  0  0  0  0  0  0
   20.0414   20.3879   22.7341 H   0  0  0  0  0  0  0  0  0  0  0  0
  1  2  1  0  0  0  0
  1  3  1  0  0  0  0
  1  4  1  0  0  0  0
  4  5  1  0  0  0  0
  4  6  1  0  0  0  0
  4  7  1  0  0  0  0
  7  8  1  0  0  0  0
  7  9  1  0  0  0  0
  7 10  1  0  0  0  0
 10 11  1  0  0  0  0
  1 12  1  0  0  0  0
 10 12  1  0  0  0  0
 12 13  1  0  0  0  0
 12 14  1  0  0  0  0
 10 15  1  0  0  0  0
 15 16  1  0  0  0  0
M  END
> <VConfSearch Rank>
207

> <Conf_Id>
20

> <Delta U+W>
-0.483

> <U+W>
2.527

> <U>
4.508

> <W>
-1.981

> <W(PB)>
-3.712

> <W(SA)>
1.732

> <Valence>
14.705

> <Coulomb>
-10.687

> <VdW>
0.490

> <VdW6>
-3.745

> <VdW12>
4.235

> <Bond>
0.068

> <Angle>
3.901

> <Pdih>
10.737

> <Idih>
0.000

> <Tether>
0.000

$$$$
VeraChem MOL file


 16 16  0  0  0  0  0  0  0  0999 V2000     
   19.2278   17.6039   23.4068 C   0  0  0  0  0  0  0  0  0  0  0  0
   20.0770   17.8164   24.0711 H   0  0  0  0  0  0  0  0  0  0  0  0
   18.6181   16.8158   23.8691 H   0  0  0  0  0  0  0  0  0  0  0  0
   19.7479   17.2044   22.0191 C   0  0  0  0  0  0  0  0  0  0  0  0
   20.6383   16.5634   22.0750 H   0  0  0  0  0  0  0  0  0  0  0  0
   18.9652   16.6586   21.4740 H   0  0  0  0  0  0  0  0  0  0  0  0
   20.0339   18.5444   21.3168 C   0  0  0  0  0  0  0  0  0  0  0  0
   19.9121   18.4613   20.2291 H   0  0  0  0  0  0  0  0  0  0  0  0
   21.0708   18.8461   21.5182 H   0  0  0  0  0  0  0  0  0  0  0  0
   19.0517   19.5702   21.9208 C   0  0  0  0  0  0  0  0  0  0  0  0
   18.2575   19.8025   21.1964 H   0  0  0  0  0  0  0  0  0  0  0  0
   18.4289   18.8971   23.1613 C   0  0  0  0  0  0  0  0  0  0  0  0
   18.4412   19.5532   24.0418 H   0  0  0  0  0  0  0  0  0  0  0  0
   17.3818   18.6480   22.9455 H   0  0  0  0  0  0  0  0  0  0  0  0
   19.7476   20.7513   22.3009 O   0  0  0  0  0  0  0  0  0  0  0  0
   20.1299   21.1289   21.4807 H   0  0  0  0  0  0  0  0  0  0  0  0
  1  2  1  0  0  0  0
  1  3  1  0  0  0  0
  1  4  1  0  0  0  0
  4  5  1  0  0  0  0
  4  6  1  0  0  0  0
  4  7  1  0  0  0  0
  7  8  1  0  0  0  0
  7  9  1  0  0  0  0
  7 10  1  0  0  0  0
 10 11  1  0  0  0  0
  1 12  1  0  0  0  0
 10 12  1  0  0  0  0
 12 13  1  0  0  0  0
 12 14  1  0  0  0  0
 10 15  1  0  0  0  0
 15 16  1  0  0  0  0
M  END
> <VConfSearch Rank>
208

> <Conf_Id>
59

> <Delta U+W>
0.000

> <U+W>
3.010

> <U>
5.843

> <W>
-2.833

> <W(PB)>
-4.568

> <W(SA)>
1.735

> <Valence>
13.789

> <Coulomb>
-8.574

> <VdW>
0.628

> <VdW6>
-3.284

> <VdW12>
3.912

> <Bond>
0.054

> <Angle>
4.034

> <Pdih>
9.702

> <Idih>
0.000

> <Tether>
0.000

$$$$
VeraChem MOL file


 16 16  0  0  0  0  0  0  0  0999 V2000     
   18.1733   17.9801   22.1313 C   0  0  0  0  0  0  0  0  0  0  0  0
   17.7570   16.9960   21.8767 H   0  0  0  0  0  0  0  0  0  0  0  0
   17.3482   18.6280   22.4586 H   0  0  0  0  0  0  0  0  0  0  0  0
   18.9016   18.6303   20.9470 C   0  0  0  0  0  0  0  0  0  0  0  0
   19.4682   17.8652   20.3981 H   0  0  0  0  0  0  0  0  0  0  0  0
   18.2104   19.1163   20.2451 H   0  0  0  0  0  0  0  0  0  0  0  0
   19.8781   19.6284   21.5961 C   0  0  0  0  0  0  0  0  0  0  0  0
   19.3875   20.6040   21.7082 H   0  0  0  0  0  0  0  0  0  0  0  0
   20.7754   19.7748   20.9802 H   0  0  0  0  0  0  0  0  0  0  0  0
   20.2127   19.0700   22.9947 C   0  0  0  0  0  0  0  0  0  0  0  0
   20.0509   19.8551   23.7476 H   0  0  0  0  0  0  0  0  0  0  0  0
   19.2404   17.8964   23.2381 C   0  0  0  0  0  0  0  0  0  0  0  0
   19.7723   16.9386   23.1582 H   0  0  0  0  0  0  0  0  0  0  0  0
   18.7875   17.9482   24.2366 H   0  0  0  0  0  0  0  0  0  0  0  0
   21.5579   18.6083   23.0297 O   0  0  0  0  0  0  0  0  0  0  0  0
   21.7110   18.2563   23.9320 H   0  0  0  0  0  0  0  0  0  0  0  0
  1  2  1  0  0  0  0
  1  3  1  0  0  0  0
  1  4  1  0  0  0  0
  4  5  1  0  0  0  0
  4  6  1  0  0  0  0
  4  7  1  0  0  0  0
  7  8  1  0  0  0  0
  7  9  1  0  0  0  0
  7 10  1  0  0  0  0
 10 11  1  0  0  0  0
  1 12  1  0  0  0  0
 10 12  1  0  0  0  0
 12 13  1  0  0  0  0
 12 14  1  0  0  0  0
 10 15  1  0  0  0  0
 15 16  1  0  0  0  0
M  END
> <VConfSearch Rank>
209

> <Conf_Id>
33

> <Delta U+W>
0.015

> <U+W>
3.025

> <U>
5.843

> <W>
-2.819

> <W(PB)>
-4.568

> <W(SA)>
1.750

> <Valence>
13.789

> <Coulomb>
-8.574

> <VdW>
0.628

> <VdW6>
-3.284

> <VdW12>
3.913

> <Bond>
0.054

> <Angle>
4.033

> <Pdih>
9.702

> <Idih>
0.000

> <Tether>
0.000

$$$$
VeraChem MOL file


 16 16  0  0  0  0  0  0  0  0999 V2000     
   20.2858   19.4985   22.6730 C   0  0  0  0  0  0  0  0  0  0  0  0
   20.8068   19.2144   23.5977 H   0  0  0  0  0  0  0  0  0  0  0  0
   20.6964   20.4623   22.3418 H   0  0  0  0  0  0  0  0  0  0  0  0
   18.7661   19.5878   22.9326 C   0  0  0  0  0  0  0  0  0  0  0  0
   18.5516   19.3479   23.9831 H   0  0  0  0  0  0  0  0  0  0  0  0
   18.3814   20.5980   22.7361 H   0  0  0  0  0  0  0  0  0  0  0  0
   18.1016   18.5506   22.0024 C   0  0  0  0  0  0  0  0  0  0  0  0
   17.7362   19.0514   21.0962 H   0  0  0  0  0  0  0  0  0  0  0  0
   17.2454   18.0535   22.4777 H   0  0  0  0  0  0  0  0  0  0  0  0
   19.2065   17.5594   21.6129 C   0  0  0  0  0  0  0  0  0  0  0  0
   19.0119   17.1014   20.6324 H   0  0  0  0  0  0  0  0  0  0  0  0
   20.4825   18.4116   21.5949 C   0  0  0  0  0  0  0  0  0  0  0  0
   21.3859   17.8118   21.7685 H   0  0  0  0  0  0  0  0  0  0  0  0
   20.5807   18.8859   20.6095 H   0  0  0  0  0  0  0  0  0  0  0  0
   19.3212   16.5667   22.6220 O   0  0  0  0  0  0  0  0  0  0  0  0
   19.4918   17.0627   23.4491 H   0  0  0  0  0  0  0  0  0  0  0  0
  1  2  1  0  0  0  0
  1  3  1  0  0  0  0
  1  4  1  0  0  0  0
  4  5  1  0  0  0  0
  4  6  1  0  0  0  0
  4  7  1  0  0  0  0
  7  8  1  0  0  0  0
  7  9  1  0  0  0  0
  7 10  1  0  0  0  0
 10 11  1  0  0  0  0
  1 12  1  0  0  0  0
 10 12  1  0  0  0  0
 12 13  1  0  0  0  0
 12 14  1  0  0  0  0
 10 15  1  0  0  0  0
 15 16  1  0  0  0  0
M  END
> <VConfSearch Rank>
210

> <Conf_Id>
20

> <Delta U+W>
-0.483

> <U+W>
2.527

> <U>
4.508

> <W>
-1.981

> <W(PB)>
-3.712

> <W(SA)>
1.732

> <Valence>
14.705

> <Coulomb>
-10.687

> <VdW>
0.490

> <VdW6>
-3.745

> <VdW12>
4.235

> <Bond>
0.068

> <Angle>
3.901

> <Pdih>
10.737

> <Idih>
0.000

> <Tether>
0.000

$$$$
VeraChem MOL file


 16 16  0  0  0  0  0  0  0  0999 V2000     
   20.5267   19.4080   22.1766 C   0  0  0  0  0  0  0  0  0  0  0  0
   21.1991   19.1028   22.9905 H   0  0  0  0  0  0  0  0  0  0  0  0
   21.0363   20.1759   21.5789 H   0  0  0  0  0  0  0  0  0  0  0  0
   19.2003   19.9077   22.7652 C   0  0  0  0  0  0  0  0  0  0  0  0
   19.3457   20.5045   23.6760 H   0  0  0  0  0  0  0  0  0  0  0  0
   18.6791   20.5312   22.0254 H   0  0  0  0  0  0  0  0  0  0  0  0
   18.3905   18.6249   23.0284 C   0  0  0  0  0  0  0  0  0  0  0  0
   17.3111   18.8093   22.9527 H   0  0  0  0  0  0  0  0  0  0  0  0
   18.6008   18.2647   24.0447 H   0  0  0  0  0  0  0  0  0  0  0  0
   18.8638   17.5902   21.9858 C   0  0  0  0  0  0  0  0  0  0  0  0
   18.0934   17.4557   21.2125 H   0  0  0  0  0  0  0  0  0  0  0  0
   20.1370   18.1752   21.3402 C   0  0  0  0  0  0  0  0  0  0  0  0
   20.9545   17.4434   21.2935 H   0  0  0  0  0  0  0  0  0  0  0  0
   19.9073   18.4848   20.3124 H   0  0  0  0  0  0  0  0  0  0  0  0
   19.1603   16.3527   22.6218 O   0  0  0  0  0  0  0  0  0  0  0  0
   18.3235   16.0344   23.0216 H   0  0  0  0  0  0  0  0  0  0  0  0
  1  2  1  0  0  0  0
  1  3  1  0  0  0  0
  1  4  1  0  0  0  0
  4  5  1  0  0  0  0
  4  6  1  0  0  0  0
  4  7  1  0  0  0  0
  7  8  1  0  0  0  0
  7  9  1  0  0  0  0
  7 10  1  0  0  0  0
 10 11  1  0  0  0  0
  1 12  1  0  0  0  0
 10 12  1  0  0  0  0
 12 13  1  0  0  0  0
 12 14  1  0  0  0  0
 10 15  1  0  0  0  0
 15 16  1  0  0  0  0
M  END
> <VConfSearch Rank>
211

> <Conf_Id>
59

> <Delta U+W>
0.000

> <U+W>
3.010

> <U>
5.843

> <W>
-2.833

> <W(PB)>
-4.568

> <W(SA)>
1.735

> <Valence>
13.789

> <Coulomb>
-8.574

> <VdW>
0.628

> <VdW6>
-3.284

> <VdW12>
3.912

> <Bond>
0.054

> <Angle>
4.034

> <Pdih>
9.702

> <Idih>
0.000

> <Tether>
0.000

$$$$
VeraChem MOL file


 16 16  0  0  0  0  0  0  0  0999 V2000     
   20.8529   18.3922   22.0693 C   0  0  0  0  0  0  0  0  0  0  0  0
   21.5805   17.5694   22.0911 H   0  0  0  0  0  0  0  0  0  0  0  0
   21.3477   19.2773   21.6460 H   0  0  0  0  0  0  0  0  0  0  0  0
   20.3052   18.7245   23.4641 C   0  0  0  0  0  0  0  0  0  0  0  0
   20.1398   17.7946   24.0260 H   0  0  0  0  0  0  0  0  0  0  0  0
   20.9895   19.3594   24.0432 H   0  0  0  0  0  0  0  0  0  0  0  0
   18.9537   19.4110   23.1938 C   0  0  0  0  0  0  0  0  0  0  0  0
   19.1033   20.4943   23.0979 H   0  0  0  0  0  0  0  0  0  0  0  0
   18.2437   19.2435   24.0147 H   0  0  0  0  0  0  0  0  0  0  0  0
   18.4381   18.8536   21.8509 C   0  0  0  0  0  0  0  0  0  0  0  0
   18.1709   19.6902   21.1889 H   0  0  0  0  0  0  0  0  0  0  0  0
   19.6030   18.0471   21.2391 C   0  0  0  0  0  0  0  0  0  0  0  0
   19.4019   16.9699   21.3159 H   0  0  0  0  0  0  0  0  0  0  0  0
   19.7472   18.2884   20.1780 H   0  0  0  0  0  0  0  0  0  0  0  0
   17.3162   18.0066   22.0697 O   0  0  0  0  0  0  0  0  0  0  0  0
   17.0391   17.6740   21.1898 H   0  0  0  0  0  0  0  0  0  0  0  0
  1  2  1  0  0  0  0
  1  3  1  0  0  0  0
  1  4  1  0  0  0  0
  4  5  1  0  0  0  0
  4  6  1  0  0  0  0
  4  7  1  0  0  0  0
  7  8  1  0  0  0  0
  7  9  1  0  0  0  0
  7 10  1  0  0  0  0
 10 11  1  0  0  0  0
  1 12  1  0  0  0  0
 10 12  1  0  0  0  0
 12 13  1  0  0  0  0
 12 14  1  0  0  0  0
 10 15  1  0  0  0  0
 15 16  1  0  0  0  0
M  END
> <VConfSearch Rank>
212

> <Conf_Id>
33

> <Delta U+W>
0.015

> <U+W>
3.025

> <U>
5.843

> <W>
-2.819

> <W(PB)>
-4.568

> <W(SA)>
1.750

> <Valence>
13.789

> <Coulomb>
-8.574

> <VdW>
0.628

> <VdW6>
-3.284

> <VdW12>
3.913

> <Bond>
0.054

> <Angle>
4.033

> <Pdih>
9.702

> <Idih>
0.000

> <Tether>
0.000

$$$$
VeraChem MOL file


 16 16  0  0  0  0  0  0  0  0999 V2000     
   18.4667   19.1618   23.0642 C   0  0  0  0  0  0  0  0  0  0  0  0
   17.8026   18.4387   23.5574 H   0  0  0  0  0  0  0  0  0  0  0  0
   18.1816   20.1653   23.4090 H   0  0  0  0  0  0  0  0  0  0  0  0
   18.3394   19.0308   21.5307 C   0  0  0  0  0  0  0  0  0  0  0  0
   17.6129   18.2450   21.2817 H   0  0  0  0  0  0  0  0  0  0  0  0
   17.9887   19.9661   21.0731 H   0  0  0  0  0  0  0  0  0  0  0  0
   19.7397   18.6478   21.0064 C   0  0  0  0  0  0  0  0  0  0  0  0
   20.2565   19.5481   20.6488 H   0  0  0  0  0  0  0  0  0  0  0  0
   19.6913   17.9363   20.1713 H   0  0  0  0  0  0  0  0  0  0  0  0
   20.5036   18.0799   22.2102 C   0  0  0  0  0  0  0  0  0  0  0  0
   21.5883   18.2276   22.1073 H   0  0  0  0  0  0  0  0  0  0  0  0
   19.9394   18.8543   23.4089 C   0  0  0  0  0  0  0  0  0  0  0  0
   20.0389   18.2957   24.3491 H   0  0  0  0  0  0  0  0  0  0  0  0
   20.4947   19.7951   23.5189 H   0  0  0  0  0  0  0  0  0  0  0  0
   20.1913   16.7020   22.3545 O   0  0  0  0  0  0  0  0  0  0  0  0
   19.2161   16.6692   22.4384 H   0  0  0  0  0  0  0  0  0  0  0  0
  1  2  1  0  0  0  0
  1  3  1  0  0  0  0
  1  4  1  0  0  0  0
  4  5  1  0  0  0  0
  4  6  1  0  0  0  0
  4  7  1  0  0  0  0
  7  8  1  0  0  0  0
  7  9  1  0  0  0  0
  7 10  1  0  0  0  0
 10 11  1  0  0  0  0
  1 12  1  0  0  0  0
 10 12  1  0  0  0  0
 12 13  1  0  0  0  0
 12 14  1  0  0  0  0
 10 15  1  0  0  0  0
 15 16  1  0  0  0  0
M  END
> <VConfSearch Rank>
213

> <Conf_Id>
20

> <Delta U+W>
-0.483

> <U+W>
2.527

> <U>
4.508

> <W>
-1.981

> <W(PB)>
-3.712

> <W(SA)>
1.732

> <Valence>
14.705

> <Coulomb>
-10.687

> <VdW>
0.490

> <VdW6>
-3.745

> <VdW12>
4.235

> <Bond>
0.068

> <Angle>
3.901

> <Pdih>
10.737

> <Idih>
0.000

> <Tether>
0.000

$$$$
VeraChem MOL file


 16 16  0  0  0  0  0  0  0  0999 V2000     
   19.9946   18.4143   21.0145 C   0  0  0  0  0  0  0  0  0  0  0  0
   20.3794   17.3851   20.9957 H   0  0  0  0  0  0  0  0  0  0  0  0
   20.1995   18.8762   20.0392 H   0  0  0  0  0  0  0  0  0  0  0  0
   20.6406   19.1838   22.1748 C   0  0  0  0  0  0  0  0  0  0  0  0
   21.7051   18.9413   22.2958 H   0  0  0  0  0  0  0  0  0  0  0  0
   20.5525   20.2645   21.9961 H   0  0  0  0  0  0  0  0  0  0  0  0
   19.8062   18.7899   23.4073 C   0  0  0  0  0  0  0  0  0  0  0  0
   19.7947   19.5917   24.1569 H   0  0  0  0  0  0  0  0  0  0  0  0
   20.2462   17.8980   23.8740 H   0  0  0  0  0  0  0  0  0  0  0  0
   18.3864   18.4771   22.8895 C   0  0  0  0  0  0  0  0  0  0  0  0
   17.6981   19.2897   23.1643 H   0  0  0  0  0  0  0  0  0  0  0  0
   18.4924   18.3970   21.3526 C   0  0  0  0  0  0  0  0  0  0  0  0
   17.9969   17.5050   20.9465 H   0  0  0  0  0  0  0  0  0  0  0  0
   18.0058   19.2778   20.9138 H   0  0  0  0  0  0  0  0  0  0  0  0
   17.9345   17.2350   23.4156 O   0  0  0  0  0  0  0  0  0  0  0  0
   17.8968   17.3392   24.3898 H   0  0  0  0  0  0  0  0  0  0  0  0
  1  2  1  0  0  0  0
  1  3  1  0  0  0  0
  1  4  1  0  0  0  0
  4  5  1  0  0  0  0
  4  6  1  0  0  0  0
  4  7  1  0  0  0  0
  7  8  1  0  0  0  0
  7  9  1  0  0  0  0
  7 10  1  0  0  0  0
 10 11  1  0  0  0  0
  1 12  1  0  0  0  0
 10 12  1  0  0  0  0
 12 13  1  0  0  0  0
 12 14  1  0  0  0  0
 10 15  1  0  0  0  0
 15 16  1  0  0  0  0
M  END
> <VConfSearch Rank>
214

> <Conf_Id>
59

> <Delta U+W>
0.000

> <U+W>
3.010

> <U>
5.843

> <W>
-2.833

> <W(PB)>
-4.568

> <W(SA)>
1.735

> <Valence>
13.789

> <Coulomb>
-8.574

> <VdW>
0.628

> <VdW6>
-3.284

> <VdW12>
3.912

> <Bond>
0.054

> <Angle>
4.034

> <Pdih>
9.702

> <Idih>
0.000

> <Tether>
0.000

$$$$
VeraChem MOL file


 16 16  0  0  0  0  0  0  0  0999 V2000     
   20.7002   18.0321   21.8848 C   0  0  0  0  0  0  0  0  0  0  0  0
   21.7053   17.8500   22.2889 H   0  0  0  0  0  0  0  0  0  0  0  0
   20.6186   17.5129   20.9197 H   0  0  0  0  0  0  0  0  0  0  0  0
   20.4099   19.5270   21.6930 C   0  0  0  0  0  0  0  0  0  0  0  0
   20.8270   20.0943   22.5367 H   0  0  0  0  0  0  0  0  0  0  0  0
   20.8431   19.9227   20.7644 H   0  0  0  0  0  0  0  0  0  0  0  0
   18.8734   19.6268   21.7139 C   0  0  0  0  0  0  0  0  0  0  0  0
   18.4832   19.5167   20.6937 H   0  0  0  0  0  0  0  0  0  0  0  0
   18.5366   20.5994   22.0969 H   0  0  0  0  0  0  0  0  0  0  0  0
   18.3679   18.4512   22.5754 C   0  0  0  0  0  0  0  0  0  0  0  0
   17.5990   17.8966   22.0181 H   0  0  0  0  0  0  0  0  0  0  0  0
   19.5900   17.5448   22.8338 C   0  0  0  0  0  0  0  0  0  0  0  0
   19.9288   17.6498   23.8735 H   0  0  0  0  0  0  0  0  0  0  0  0
   19.3513   16.4872   22.6622 H   0  0  0  0  0  0  0  0  0  0  0  0
   17.8462   18.9348   23.8074 O   0  0  0  0  0  0  0  0  0  0  0  0
   17.5521   18.1496   24.3159 H   0  0  0  0  0  0  0  0  0  0  0  0
  1  2  1  0  0  0  0
  1  3  1  0  0  0  0
  1  4  1  0  0  0  0
  4  5  1  0  0  0  0
  4  6  1  0  0  0  0
  4  7  1  0  0  0  0
  7  8  1  0  0  0  0
  7  9  1  0  0  0  0
  7 10  1  0  0  0  0
 10 11  1  0  0  0  0
  1 12  1  0  0  0  0
 10 12  1  0  0  0  0
 12 13  1  0  0  0  0
 12 14  1  0  0  0  0
 10 15  1  0  0  0  0
 15 16  1  0  0  0  0
M  END
> <VConfSearch Rank>
215

> <Conf_Id>
33

> <Delta U+W>
0.015

> <U+W>
3.025

> <U>
5.843

> <W>
-2.819

> <W(PB)>
-4.568

> <W(SA)>
1.750

> <Valence>
13.789

> <Coulomb>
-8.574

> <VdW>
0.628

> <VdW6>
-3.284

> <VdW12>
3.913

> <Bond>
0.054

> <Angle>
4.033

> <Pdih>
9.702

> <Idih>
0.000

> <Tether>
0.000

$$$$
VeraChem MOL file


 16 16  0  0  0  0  0  0  0  0999 V2000     
   18.6579   18.5515   23.3818 C   0  0  0  0  0  0  0  0  0  0  0  0
   18.0316   17.6531   23.4709 H   0  0  0  0  0  0  0  0  0  0  0  0
   18.5113   19.1514   24.2904 H   0  0  0  0  0  0  0  0  0  0  0  0
   18.2683   19.3395   22.1120 C   0  0  0  0  0  0  0  0  0  0  0  0
   17.4527   18.8231   21.5872 H   0  0  0  0  0  0  0  0  0  0  0  0
   17.9189   20.3520   22.3564 H   0  0  0  0  0  0  0  0  0  0  0  0
   19.5288   19.3872   21.2225 C   0  0  0  0  0  0  0  0  0  0  0  0
   20.0462   20.3443   21.3705 H   0  0  0  0  0  0  0  0  0  0  0  0
   19.2883   19.2990   20.1546 H   0  0  0  0  0  0  0  0  0  0  0  0
   20.4363   18.2496   21.7098 C   0  0  0  0  0  0  0  0  0  0  0  0
   21.4969   18.4686   21.5200 H   0  0  0  0  0  0  0  0  0  0  0  0
   20.1396   18.1536   23.2124 C   0  0  0  0  0  0  0  0  0  0  0  0
   20.3508   17.1540   23.6151 H   0  0  0  0  0  0  0  0  0  0  0  0
   20.7755   18.8709   23.7479 H   0  0  0  0  0  0  0  0  0  0  0  0
   20.0481   17.0384   21.0781 O   0  0  0  0  0  0  0  0  0  0  0  0
   19.1007   16.9275   21.3002 H   0  0  0  0  0  0  0  0  0  0  0  0
  1  2  1  0  0  0  0
  1  3  1  0  0  0  0
  1  4  1  0  0  0  0
  4  5  1  0  0  0  0
  4  6  1  0  0  0  0
  4  7  1  0  0  0  0
  7  8  1  0  0  0  0
  7  9  1  0  0  0  0
  7 10  1  0  0  0  0
 10 11  1  0  0  0  0
  1 12  1  0  0  0  0
 10 12  1  0  0  0  0
 12 13  1  0  0  0  0
 12 14  1  0  0  0  0
 10 15  1  0  0  0  0
 15 16  1  0  0  0  0
M  END
> <VConfSearch Rank>
216

> <Conf_Id>
20

> <Delta U+W>
-0.483

> <U+W>
2.527

> <U>
4.508

> <W>
-1.981

> <W(PB)>
-3.712

> <W(SA)>
1.732

> <Valence>
14.705

> <Coulomb>
-10.687

> <VdW>
0.490

> <VdW6>
-3.745

> <VdW12>
4.235

> <Bond>
0.068

> <Angle>
3.901

> <Pdih>
10.737

> <Idih>
0.000

> <Tether>
0.000

$$$$
VeraChem MOL file


 16 16  0  0  0  0  0  0  0  0999 V2000     
   19.2151   19.6451   23.2644 C   0  0  0  0  0  0  0  0  0  0  0  0
   19.6205   19.2549   24.2083 H   0  0  0  0  0  0  0  0  0  0  0  0
   18.9306   20.6947   23.4198 H   0  0  0  0  0  0  0  0  0  0  0  0
   18.0315   18.7773   22.8152 C   0  0  0  0  0  0  0  0  0  0  0  0
   17.3962   18.4691   23.6567 H   0  0  0  0  0  0  0  0  0  0  0  0
   17.4105   19.3388   22.1034 H   0  0  0  0  0  0  0  0  0  0  0  0
   18.6842   17.5779   22.1039 C   0  0  0  0  0  0  0  0  0  0  0  0
   18.0297   17.1702   21.3226 H   0  0  0  0  0  0  0  0  0  0  0  0
   18.8734   16.7806   22.8355 H   0  0  0  0  0  0  0  0  0  0  0  0
   20.0157   18.0921   21.5171 C   0  0  0  0  0  0  0  0  0  0  0  0
   19.9299   18.1983   20.4258 H   0  0  0  0  0  0  0  0  0  0  0  0
   20.2608   19.4791   22.1463 C   0  0  0  0  0  0  0  0  0  0  0  0
   21.2839   19.5877   22.5303 H   0  0  0  0  0  0  0  0  0  0  0  0
   20.1079   20.2514   21.3812 H   0  0  0  0  0  0  0  0  0  0  0  0
   21.0759   17.2058   21.8549 O   0  0  0  0  0  0  0  0  0  0  0  0
   20.8636   16.3426   21.4409 H   0  0  0  0  0  0  0  0  0  0  0  0
  1  2  1  0  0  0  0
  1  3  1  0  0  0  0
  1  4  1  0  0  0  0
  4  5  1  0  0  0  0
  4  6  1  0  0  0  0
  4  7  1  0  0  0  0
  7  8  1  0  0  0  0
  7  9  1  0  0  0  0
  7 10  1  0  0  0  0
 10 11  1  0  0  0  0
  1 12  1  0  0  0  0
 10 12  1  0  0  0  0
 12 13  1  0  0  0  0
 12 14  1  0  0  0  0
 10 15  1  0  0  0  0
 15 16  1  0  0  0  0
M  END
> <VConfSearch Rank>
217

> <Conf_Id>
59

> <Delta U+W>
0.000

> <U+W>
3.010

> <U>
5.843

> <W>
-2.833

> <W(PB)>
-4.568

> <W(SA)>
1.735

> <Valence>
13.789

> <Coulomb>
-8.574

> <VdW>
0.628

> <VdW6>
-3.284

> <VdW12>
3.912

> <Bond>
0.054

> <Angle>
4.034

> <Pdih>
9.702

> <Idih>
0.000

> <Tether>
0.000

$$$$
VeraChem MOL file


 16 16  0  0  0  0  0  0  0  0999 V2000     
   18.0650   18.3046   22.4972 C   0  0  0  0  0  0  0  0  0  0  0  0
   17.3535   18.1771   23.3244 H   0  0  0  0  0  0  0  0  0  0  0  0
   17.5010   18.2927   21.5541 H   0  0  0  0  0  0  0  0  0  0  0  0
   19.1353   17.2049   22.4726 C   0  0  0  0  0  0  0  0  0  0  0  0
   19.4484   16.9727   23.5001 H   0  0  0  0  0  0  0  0  0  0  0  0
   18.7745   16.2786   22.0052 H   0  0  0  0  0  0  0  0  0  0  0  0
   20.3134   17.8310   21.7037 C   0  0  0  0  0  0  0  0  0  0  0  0
   20.2071   17.6203   20.6316 H   0  0  0  0  0  0  0  0  0  0  0  0
   21.2761   17.4166   22.0315 H   0  0  0  0  0  0  0  0  0  0  0  0
   20.2249   19.3547   21.9281 C   0  0  0  0  0  0  0  0  0  0  0  0
   20.2638   19.8679   20.9562 H   0  0  0  0  0  0  0  0  0  0  0  0
   18.8648   19.6155   22.6092 C   0  0  0  0  0  0  0  0  0  0  0  0
   19.0112   19.8622   23.6696 H   0  0  0  0  0  0  0  0  0  0  0  0
   18.3319   20.4519   22.1388 H   0  0  0  0  0  0  0  0  0  0  0  0
   21.2866   19.7890   22.7696 O   0  0  0  0  0  0  0  0  0  0  0  0
   21.1750   20.7562   22.8866 H   0  0  0  0  0  0  0  0  0  0  0  0
  1  2  1  0  0  0  0
  1  3  1  0  0  0  0
  1  4  1  0  0  0  0
  4  5  1  0  0  0  0
  4  6  1  0  0  0  0
  4  7  1  0  0  0  0
  7  8  1  0  0  0  0
  7  9  1  0  0  0  0
  7 10  1  0  0  0  0
 10 11  1  0  0  0  0
  1 12  1  0  0  0  0
 10 12  1  0  0  0  0
 12 13  1  0  0  0  0
 12 14  1  0  0  0  0
 10 15  1  0  0  0  0
 15 16  1  0  0  0  0
M  END
> <VConfSearch Rank>
218

> <Conf_Id>
33

> <Delta U+W>
0.015

> <U+W>
3.025

> <U>
5.843

> <W>
-2.819

> <W(PB)>
-4.568

> <W(SA)>
1.750

> <Valence>
13.789

> <Coulomb>
-8.574

> <VdW>
0.628

> <VdW6>
-3.284

> <VdW12>
3.913

> <Bond>
0.054

> <Angle>
4.033

> <Pdih>
9.702

> <Idih>
0.000

> <Tether>
0.000

$$$$
VeraChem MOL file


 16 16  0  0  0  0  0  0  0  0999 V2000     
   18.2386   17.9216   22.3671 C   0  0  0  0  0  0  0  0  0  0  0  0
   17.5780   18.2653   23.1750 H   0  0  0  0  0  0  0  0  0  0  0  0
   17.7355   17.0888   21.8568 H   0  0  0  0  0  0  0  0  0  0  0  0
   19.6015   17.4897   22.9508 C   0  0  0  0  0  0  0  0  0  0  0  0
   19.6003   17.6235   24.0414 H   0  0  0  0  0  0  0  0  0  0  0  0
   19.8119   16.4312   22.7451 H   0  0  0  0  0  0  0  0  0  0  0  0
   20.6642   18.4027   22.3029 C   0  0  0  0  0  0  0  0  0  0  0  0
   21.1291   17.8807   21.4561 H   0  0  0  0  0  0  0  0  0  0  0  0
   21.4624   18.6762   23.0058 H   0  0  0  0  0  0  0  0  0  0  0  0
   19.9071   19.6296   21.7771 C   0  0  0  0  0  0  0  0  0  0  0  0
   20.4196   20.0831   20.9166 H   0  0  0  0  0  0  0  0  0  0  0  0
   18.5289   19.0785   21.3874 C   0  0  0  0  0  0  0  0  0  0  0  0
   17.7493   19.8514   21.4133 H   0  0  0  0  0  0  0  0  0  0  0  0
   18.5780   18.6876   20.3625 H   0  0  0  0  0  0  0  0  0  0  0  0
   19.7539   20.5709   22.8294 O   0  0  0  0  0  0  0  0  0  0  0  0
   19.2935   20.0829   23.5428 H   0  0  0  0  0  0  0  0  0  0  0  0
  1  2  1  0  0  0  0
  1  3  1  0  0  0  0
  1  4  1  0  0  0  0
  4  5  1  0  0  0  0
  4  6  1  0  0  0  0
  4  7  1  0  0  0  0
  7  8  1  0  0  0  0
  7  9  1  0  0  0  0
  7 10  1  0  0  0  0
 10 11  1  0  0  0  0
  1 12  1  0  0  0  0
 10 12  1  0  0  0  0
 12 13  1  0  0  0  0
 12 14  1  0  0  0  0
 10 15  1  0  0  0  0
 15 16  1  0  0  0  0
M  END
> <VConfSearch Rank>
219

> <Conf_Id>
20

> <Delta U+W>
-0.483

> <U+W>
2.527

> <U>
4.508

> <W>
-1.981

> <W(PB)>
-3.712

> <W(SA)>
1.732

> <Valence>
14.705

> <Coulomb>
-10.687

> <VdW>
0.490

> <VdW6>
-3.745

> <VdW12>
4.235

> <Bond>
0.068

> <Angle>
3.901

> <Pdih>
10.737

> <Idih>
0.000

> <Tether>
0.000

$$$$
VeraChem MOL file


 16 16  0  0  0  0  0  0  0  0999 V2000     
   17.9191   18.6975   22.1646 C   0  0  0  0  0  0  0  0  0  0  0  0
   17.5372   17.6697   22.0904 H   0  0  0  0  0  0  0  0  0  0  0  0
   17.0622   19.3847   22.1520 H   0  0  0  0  0  0  0  0  0  0  0  0
   18.9020   18.9651   21.0166 C   0  0  0  0  0  0  0  0  0  0  0  0
   18.5707   18.5174   20.0697 H   0  0  0  0  0  0  0  0  0  0  0  0
   19.0082   20.0484   20.8658 H   0  0  0  0  0  0  0  0  0  0  0  0
   20.2359   18.3744   21.5088 C   0  0  0  0  0  0  0  0  0  0  0  0
   21.0937   18.9077   21.0790 H   0  0  0  0  0  0  0  0  0  0  0  0
   20.3034   17.3224   21.1999 H   0  0  0  0  0  0  0  0  0  0  0  0
   20.2163   18.4795   23.0484 C   0  0  0  0  0  0  0  0  0  0  0  0
   20.8932   19.2805   23.3796 H   0  0  0  0  0  0  0  0  0  0  0  0
   18.7688   18.8409   23.4407 C   0  0  0  0  0  0  0  0  0  0  0  0
   18.3871   18.2089   24.2537 H   0  0  0  0  0  0  0  0  0  0  0  0
   18.7411   19.8824   23.7866 H   0  0  0  0  0  0  0  0  0  0  0  0
   20.5861   17.2351   23.6302 O   0  0  0  0  0  0  0  0  0  0  0  0
   21.5046   17.0510   23.3403 H   0  0  0  0  0  0  0  0  0  0  0  0
  1  2  1  0  0  0  0
  1  3  1  0  0  0  0
  1  4  1  0  0  0  0
  4  5  1  0  0  0  0
  4  6  1  0  0  0  0
  4  7  1  0  0  0  0
  7  8  1  0  0  0  0
  7  9  1  0  0  0  0
  7 10  1  0  0  0  0
 10 11  1  0  0  0  0
  1 12  1  0  0  0  0
 10 12  1  0  0  0  0
 12 13  1  0  0  0  0
 12 14  1  0  0  0  0
 10 15  1  0  0  0  0
 15 16  1  0  0  0  0
M  END
> <VConfSearch Rank>
220

> <Conf_Id>
59

> <Delta U+W>
0.000

> <U+W>
3.010

> <U>
5.843

> <W>
-2.833

> <W(PB)>
-4.568

> <W(SA)>
1.735

> <Valence>
13.789

> <Coulomb>
-8.574

> <VdW>
0.628

> <VdW6>
-3.284

> <VdW12>
3.912

> <Bond>
0.054

> <Angle>
4.034

> <Pdih>
9.702

> <Idih>
0.000

> <Tether>
0.000

$$$$
VeraChem MOL file


 16 16  0  0  0  0  0  0  0  0999 V2000     
   20.2188   19.6786   21.7132 C   0  0  0  0  0  0  0  0  0  0  0  0
   20.8243   20.5378   22.0326 H   0  0  0  0  0  0  0  0  0  0  0  0
   20.3375   19.5594   20.6273 H   0  0  0  0  0  0  0  0  0  0  0  0
   18.7325   19.8527   22.0541 C   0  0  0  0  0  0  0  0  0  0  0  0
   18.6339   20.3186   23.0445 H   0  0  0  0  0  0  0  0  0  0  0  0
   18.2055   20.4818   21.3239 H   0  0  0  0  0  0  0  0  0  0  0  0
   18.1775   18.4172   22.1019 C   0  0  0  0  0  0  0  0  0  0  0  0
   17.8181   18.1277   21.1059 H   0  0  0  0  0  0  0  0  0  0  0  0
   17.3330   18.3332   22.7989 H   0  0  0  0  0  0  0  0  0  0  0  0
   19.3557   17.5031   22.4968 C   0  0  0  0  0  0  0  0  0  0  0  0
   19.4294   16.6743   21.7777 H   0  0  0  0  0  0  0  0  0  0  0  0
   20.6259   18.3769   22.4277 C   0  0  0  0  0  0  0  0  0  0  0  0
   20.9805   18.6138   23.4401 H   0  0  0  0  0  0  0  0  0  0  0  0
   21.4391   17.8654   21.8968 H   0  0  0  0  0  0  0  0  0  0  0  0
   19.1714   17.0084   23.8179 O   0  0  0  0  0  0  0  0  0  0  0  0
   19.9497   16.4467   24.0190 H   0  0  0  0  0  0  0  0  0  0  0  0
  1  2  1  0  0  0  0
  1  3  1  0  0  0  0
  1  4  1  0  0  0  0
  4  5  1  0  0  0  0
  4  6  1  0  0  0  0
  4  7  1  0  0  0  0
  7  8  1  0  0  0  0
  7  9  1  0  0  0  0
  7 10  1  0  0  0  0
 10 11  1  0  0  0  0
  1 12  1  0  0  0  0
 10 12  1  0  0  0  0
 12 13  1  0  0  0  0
 12 14  1  0  0  0  0
 10 15  1  0  0  0  0
 15 16  1  0  0  0  0
M  END
> <VConfSearch Rank>
221

> <Conf_Id>
33

> <Delta U+W>
0.015

> <U+W>
3.025

> <U>
5.843

> <W>
-2.819

> <W(PB)>
-4.568

> <W(SA)>
1.750

> <Valence>
13.789

> <Coulomb>
-8.574

> <VdW>
0.628

> <VdW6>
-3.284

> <VdW12>
3.913

> <Bond>
0.054

> <Angle>
4.033

> <Pdih>
9.702

> <Idih>
0.000

> <Tether>
0.000

$$$$
VeraChem MOL file


 16 16  0  0  0  0  0  0  0  0999 V2000     
   19.7107   17.4473   22.8256 C   0  0  0  0  0  0  0  0  0  0  0  0
   19.0162   16.6238   22.6094 H   0  0  0  0  0  0  0  0  0  0  0  0
   20.5154   17.0475   23.4578 H   0  0  0  0  0  0  0  0  0  0  0  0
   18.9575   18.5993   23.5262 C   0  0  0  0  0  0  0  0  0  0  0  0
   17.8988   18.3328   23.6500 H   0  0  0  0  0  0  0  0  0  0  0  0
   19.3688   18.8026   24.5244 H   0  0  0  0  0  0  0  0  0  0  0  0
   19.0931   19.8328   22.6084 C   0  0  0  0  0  0  0  0  0  0  0  0
   19.9138   20.4682   22.9667 H   0  0  0  0  0  0  0  0  0  0  0  0
   18.1801   20.4430   22.5936 H   0  0  0  0  0  0  0  0  0  0  0  0
   19.4527   19.2911   21.2184 C   0  0  0  0  0  0  0  0  0  0  0  0
   20.0301   20.0232   20.6357 H   0  0  0  0  0  0  0  0  0  0  0  0
   20.2742   18.0284   21.5114 C   0  0  0  0  0  0  0  0  0  0  0  0
   20.2344   17.3054   20.6858 H   0  0  0  0  0  0  0  0  0  0  0  0
   21.3249   18.3124   21.6566 H   0  0  0  0  0  0  0  0  0  0  0  0
   18.2618   18.9263   20.5361 O   0  0  0  0  0  0  0  0  0  0  0  0
   17.8194   18.2796   21.1236 H   0  0  0  0  0  0  0  0  0  0  0  0
  1  2  1  0  0  0  0
  1  3  1  0  0  0  0
  1  4  1  0  0  0  0
  4  5  1  0  0  0  0
  4  6  1  0  0  0  0
  4  7  1  0  0  0  0
  7  8  1  0  0  0  0
  7  9  1  0  0  0  0
  7 10  1  0  0  0  0
 10 11  1  0  0  0  0
  1 12  1  0  0  0  0
 10 12  1  0  0  0  0
 12 13  1  0  0  0  0
 12 14  1  0  0  0  0
 10 15  1  0  0  0  0
 15 16  1  0  0  0  0
M  END
> <VConfSearch Rank>
222

> <Conf_Id>
20

> <Delta U+W>
-0.483

> <U+W>
2.527

> <U>
4.508

> <W>
-1.981

> <W(PB)>
-3.712

> <W(SA)>
1.732

> <Valence>
14.705

> <Coulomb>
-10.687

> <VdW>
0.490

> <VdW6>
-3.745

> <VdW12>
4.235

> <Bond>
0.068

> <Angle>
3.901

> <Pdih>
10.737

> <Idih>
0.000

> <Tether>
0.000

$$$$
VeraChem MOL file


 16 16  0  0  0  0  0  0  0  0999 V2000     
   19.6981   17.2860   22.9387 C   0  0  0  0  0  0  0  0  0  0  0  0
   20.7779   17.3459   23.1341 H   0  0  0  0  0  0  0  0  0  0  0  0
   19.3277   16.3339   23.3422 H   0  0  0  0  0  0  0  0  0  0  0  0
   19.4396   17.4245   21.4322 C   0  0  0  0  0  0  0  0  0  0  0  0
   20.1867   16.8907   20.8291 H   0  0  0  0  0  0  0  0  0  0  0  0
   18.4478   17.0187   21.1885 H   0  0  0  0  0  0  0  0  0  0  0  0
   19.4580   18.9429   21.1782 C   0  0  0  0  0  0  0  0  0  0  0  0
   18.8146   19.2159   20.3318 H   0  0  0  0  0  0  0  0  0  0  0  0
   20.4825   19.2588   20.9389 H   0  0  0  0  0  0  0  0  0  0  0  0
   18.9853   19.6086   22.4879 C   0  0  0  0  0  0  0  0  0  0  0  0
   17.9613   19.9913   22.3673 H   0  0  0  0  0  0  0  0  0  0  0  0
   18.9927   18.5035   23.5642 C   0  0  0  0  0  0  0  0  0  0  0  0
   19.4880   18.8263   24.4897 H   0  0  0  0  0  0  0  0  0  0  0  0
   17.9567   18.2406   23.8145 H   0  0  0  0  0  0  0  0  0  0  0  0
   19.8746   20.6567   22.8546 O   0  0  0  0  0  0  0  0  0  0  0  0
   19.8383   21.3212   22.1345 H   0  0  0  0  0  0  0  0  0  0  0  0
  1  2  1  0  0  0  0
  1  3  1  0  0  0  0
  1  4  1  0  0  0  0
  4  5  1  0  0  0  0
  4  6  1  0  0  0  0
  4  7  1  0  0  0  0
  7  8  1  0  0  0  0
  7  9  1  0  0  0  0
  7 10  1  0  0  0  0
 10 11  1  0  0  0  0
  1 12  1  0  0  0  0
 10 12  1  0  0  0  0
 12 13  1  0  0  0  0
 12 14  1  0  0  0  0
 10 15  1  0  0  0  0
 15 16  1  0  0  0  0
M  END
> <VConfSearch Rank>
223

> <Conf_Id>
59

> <Delta U+W>
0.000

> <U+W>
3.010

> <U>
5.843

> <W>
-2.833

> <W(PB)>
-4.568

> <W(SA)>
1.735

> <Valence>
13.789

> <Coulomb>
-8.574

> <VdW>
0.628

> <VdW6>
-3.284

> <VdW12>
3.912

> <Bond>
0.054

> <Angle>
4.034

> <Pdih>
9.702

> <Idih>
0.000

> <Tether>
0.000

$$$$
VeraChem MOL file


 16 16  0  0  0  0  0  0  0  0999 V2000     
   18.7005   19.0518   23.4337 C   0  0  0  0  0  0  0  0  0  0  0  0
   18.8388   19.6597   24.3381 H   0  0  0  0  0  0  0  0  0  0  0  0
   17.6331   18.8060   23.3448 H   0  0  0  0  0  0  0  0  0  0  0  0
   19.5269   17.7589   23.4670 C   0  0  0  0  0  0  0  0  0  0  0  0
   20.5140   17.9639   23.9045 H   0  0  0  0  0  0  0  0  0  0  0  0
   19.0456   16.9685   24.0588 H   0  0  0  0  0  0  0  0  0  0  0  0
   19.6902   17.3678   21.9866 C   0  0  0  0  0  0  0  0  0  0  0  0
   18.8594   16.7174   21.6836 H   0  0  0  0  0  0  0  0  0  0  0  0
   20.6249   16.8175   21.8145 H   0  0  0  0  0  0  0  0  0  0  0  0
   19.6245   18.6785   21.1756 C   0  0  0  0  0  0  0  0  0  0  0  0
   18.8840   18.5703   20.3697 H   0  0  0  0  0  0  0  0  0  0  0  0
   19.1755   19.7776   22.1616 C   0  0  0  0  0  0  0  0  0  0  0  0
   20.0207   20.4332   22.4115 H   0  0  0  0  0  0  0  0  0  0  0  0
   18.3796   20.4016   21.7349 H   0  0  0  0  0  0  0  0  0  0  0  0
   20.9063   18.9906   20.6431 O   0  0  0  0  0  0  0  0  0  0  0  0
   20.8087   19.8327   20.1504 H   0  0  0  0  0  0  0  0  0  0  0  0
  1  2  1  0  0  0  0
  1  3  1  0  0  0  0
  1  4  1  0  0  0  0
  4  5  1  0  0  0  0
  4  6  1  0  0  0  0
  4  7  1  0  0  0  0
  7  8  1  0  0  0  0
  7  9  1  0  0  0  0
  7 10  1  0  0  0  0
 10 11  1  0  0  0  0
  1 12  1  0  0  0  0
 10 12  1  0  0  0  0
 12 13  1  0  0  0  0
 12 14  1  0  0  0  0
 10 15  1  0  0  0  0
 15 16  1  0  0  0  0
M  END
> <VConfSearch Rank>
224

> <Conf_Id>
33

> <Delta U+W>
0.015

> <U+W>
3.025

> <U>
5.843

> <W>
-2.819

> <W(PB)>
-4.568

> <W(SA)>
1.750

> <Valence>
13.789

> <Coulomb>
-8.574

> <VdW>
0.628

> <VdW6>
-3.284

> <VdW12>
3.913

> <Bond>
0.054

> <Angle>
4.033

> <Pdih>
9.702

> <Idih>
0.000

> <Tether>
0.000

$$$$
VeraChem MOL file


 16 16  0  0  0  0  0  0  0  0999 V2000     
   20.0265   19.7759   22.1806 C   0  0  0  0  0  0  0  0  0  0  0  0
   19.5941   20.4869   21.4631 H   0  0  0  0  0  0  0  0  0  0  0  0
   20.8904   20.2630   22.6531 H   0  0  0  0  0  0  0  0  0  0  0  0
   20.4352   18.4772   21.4517 C   0  0  0  0  0  0  0  0  0  0  0  0
   20.2017   18.5600   20.3813 H   0  0  0  0  0  0  0  0  0  0  0  0
   21.5129   18.2844   21.5438 H   0  0  0  0  0  0  0  0  0  0  0  0
   19.6115   17.3389   22.0906 C   0  0  0  0  0  0  0  0  0  0  0  0
   20.2201   16.8253   22.8466 H   0  0  0  0  0  0  0  0  0  0  0  0
   19.2936   16.5903   21.3527 H   0  0  0  0  0  0  0  0  0  0  0  0
   18.4204   18.0136   22.7842 C   0  0  0  0  0  0  0  0  0  0  0  0
   18.0604   17.4211   23.6376 H   0  0  0  0  0  0  0  0  0  0  0  0
   18.9720   19.3734   23.2334 C   0  0  0  0  0  0  0  0  0  0  0  0
   18.1815   20.1282   23.3405 H   0  0  0  0  0  0  0  0  0  0  0  0
   19.4565   19.2561   24.2117 H   0  0  0  0  0  0  0  0  0  0  0  0
   17.3828   18.2197   21.8367 O   0  0  0  0  0  0  0  0  0  0  0  0
   17.7920   18.7498   21.1220 H   0  0  0  0  0  0  0  0  0  0  0  0
  1  2  1  0  0  0  0
  1  3  1  0  0  0  0
  1  4  1  0  0  0  0
  4  5  1  0  0  0  0
  4  6  1  0  0  0  0
  4  7  1  0  0  0  0
  7  8  1  0  0  0  0
  7  9  1  0  0  0  0
  7 10  1  0  0  0  0
 10 11  1  0  0  0  0
  1 12  1  0  0  0  0
 10 12  1  0  0  0  0
 12 13  1  0  0  0  0
 12 14  1  0  0  0  0
 10 15  1  0  0  0  0
 15 16  1  0  0  0  0
M  END
> <VConfSearch Rank>
225

> <Conf_Id>
20

> <Delta U+W>
-0.483

> <U+W>
2.527

> <U>
4.508

> <W>
-1.981

> <W(PB)>
-3.712

> <W(SA)>
1.732

> <Valence>
14.705

> <Coulomb>
-10.687

> <VdW>
0.490

> <VdW6>
-3.745

> <VdW12>
4.235

> <Bond>
0.068

> <Angle>
3.901

> <Pdih>
10.737

> <Idih>
0.000

> <Tether>
0.000

$$$$
VeraChem MOL file


 16 16  0  0  0  0  0  0  0  0999 V2000     
   20.4401   19.0633   23.1410 C   0  0  0  0  0  0  0  0  0  0  0  0
   20.3848   18.4814   24.0716 H   0  0  0  0  0  0  0  0  0  0  0  0
   21.3091   19.7322   23.2046 H   0  0  0  0  0  0  0  0  0  0  0  0
   19.1256   19.8280   22.9337 C   0  0  0  0  0  0  0  0  0  0  0  0
   18.7279   20.2376   23.8722 H   0  0  0  0  0  0  0  0  0  0  0  0
   19.2890   20.6618   22.2368 H   0  0  0  0  0  0  0  0  0  0  0  0
   18.1778   18.7950   22.2971 C   0  0  0  0  0  0  0  0  0  0  0  0
   17.4357   19.2779   21.6483 H   0  0  0  0  0  0  0  0  0  0  0  0
   17.6364   18.2616   23.0902 H   0  0  0  0  0  0  0  0  0  0  0  0
   19.0703   17.8151   21.5066 C   0  0  0  0  0  0  0  0  0  0  0  0
   18.9681   18.0000   20.4273 H   0  0  0  0  0  0  0  0  0  0  0  0
   20.5226   18.1055   21.9380 C   0  0  0  0  0  0  0  0  0  0  0  0
   21.0744   17.1894   22.1878 H   0  0  0  0  0  0  0  0  0  0  0  0
   21.0502   18.5977   21.1107 H   0  0  0  0  0  0  0  0  0  0  0  0
   18.7240   16.4719   21.8223 O   0  0  0  0  0  0  0  0  0  0  0  0
   17.7937   16.3471   21.5384 H   0  0  0  0  0  0  0  0  0  0  0  0
  1  2  1  0  0  0  0
  1  3  1  0  0  0  0
  1  4  1  0  0  0  0
  4  5  1  0  0  0  0
  4  6  1  0  0  0  0
  4  7  1  0  0  0  0
  7  8  1  0  0  0  0
  7  9  1  0  0  0  0
  7 10  1  0  0  0  0
 10 11  1  0  0  0  0
  1 12  1  0  0  0  0
 10 12  1  0  0  0  0
 12 13  1  0  0  0  0
 12 14  1  0  0  0  0
 10 15  1  0  0  0  0
 15 16  1  0  0  0  0
M  END
> <VConfSearch Rank>
226

> <Conf_Id>
59

> <Delta U+W>
0.000

> <U+W>
3.010

> <U>
5.843

> <W>
-2.833

> <W(PB)>
-4.568

> <W(SA)>
1.735

> <Valence>
13.789

> <Coulomb>
-8.574

> <VdW>
0.628

> <VdW6>
-3.284

> <VdW12>
3.912

> <Bond>
0.054

> <Angle>
4.034

> <Pdih>
9.702

> <Idih>
0.000

> <Tether>
0.000

$$$$
VeraChem MOL file


 16 16  0  0  0  0  0  0  0  0999 V2000     
   18.3908   18.1170   23.1225 C   0  0  0  0  0  0  0  0  0  0  0  0
   17.4668   17.5300   23.0311 H   0  0  0  0  0  0  0  0  0  0  0  0
   18.5976   18.2680   24.1911 H   0  0  0  0  0  0  0  0  0  0  0  0
   18.2905   19.4773   22.4188 C   0  0  0  0  0  0  0  0  0  0  0  0
   17.7464   19.3624   21.4710 H   0  0  0  0  0  0  0  0  0  0  0  0
   17.7669   20.2270   23.0275 H   0  0  0  0  0  0  0  0  0  0  0  0
   19.7511   19.8705   22.1305 C   0  0  0  0  0  0  0  0  0  0  0  0
   20.1522   20.4437   22.9764 H   0  0  0  0  0  0  0  0  0  0  0  0
   19.8312   20.4990   21.2335 H   0  0  0  0  0  0  0  0  0  0  0  0
   20.5426   18.5533   21.9950 C   0  0  0  0  0  0  0  0  0  0  0  0
   21.4250   18.5906   22.6504 H   0  0  0  0  0  0  0  0  0  0  0  0
   19.5924   17.4263   22.4519 C   0  0  0  0  0  0  0  0  0  0  0  0
   19.2424   16.8488   21.5854 H   0  0  0  0  0  0  0  0  0  0  0  0
   20.0915   16.7321   23.1403 H   0  0  0  0  0  0  0  0  0  0  0  0
   20.9294   18.3505   20.6411 O   0  0  0  0  0  0  0  0  0  0  0  0
   21.4157   17.4995   20.6119 H   0  0  0  0  0  0  0  0  0  0  0  0
  1  2  1  0  0  0  0
  1  3  1  0  0  0  0
  1  4  1  0  0  0  0
  4  5  1  0  0  0  0
  4  6  1  0  0  0  0
  4  7  1  0  0  0  0
  7  8  1  0  0  0  0
  7  9  1  0  0  0  0
  7 10  1  0  0  0  0
 10 11  1  0  0  0  0
  1 12  1  0  0  0  0
 10 12  1  0  0  0  0
 12 13  1  0  0  0  0
 12 14  1  0  0  0  0
 10 15  1  0  0  0  0
 15 16  1  0  0  0  0
M  END
> <VConfSearch Rank>
227

> <Conf_Id>
33

> <Delta U+W>
0.015

> <U+W>
3.025

> <U>
5.843

> <W>
-2.819

> <W(PB)>
-4.568

> <W(SA)>
1.750

> <Valence>
13.789

> <Coulomb>
-8.574

> <VdW>
0.628

> <VdW6>
-3.284

> <VdW12>
3.913

> <Bond>
0.054

> <Angle>
4.033

> <Pdih>
9.702

> <Idih>
0.000

> <Tether>
0.000

$$$$
VeraChem MOL file


 16 16  0  0  0  0  0  0  0  0999 V2000     
   19.9015   18.2039   23.4183 C   0  0  0  0  0  0  0  0  0  0  0  0
   19.2155   18.2755   24.2735 H   0  0  0  0  0  0  0  0  0  0  0  0
   20.8489   17.7855   23.7850 H   0  0  0  0  0  0  0  0  0  0  0  0
   20.1032   19.5994   22.7884 C   0  0  0  0  0  0  0  0  0  0  0  0
   19.5156   20.3466   23.3394 H   0  0  0  0  0  0  0  0  0  0  0  0
   21.1562   19.9106   22.8247 H   0  0  0  0  0  0  0  0  0  0  0  0
   19.6047   19.4980   21.3311 C   0  0  0  0  0  0  0  0  0  0  0  0
   20.4593   19.3337   20.6616 H   0  0  0  0  0  0  0  0  0  0  0  0
   19.0931   20.4122   21.0016 H   0  0  0  0  0  0  0  0  0  0  0  0
   18.6880   18.2683   21.2800 C   0  0  0  0  0  0  0  0  0  0  0  0
   18.6702   17.8183   20.2769 H   0  0  0  0  0  0  0  0  0  0  0  0
   19.2899   17.3112   22.3176 C   0  0  0  0  0  0  0  0  0  0  0  0
   18.5458   16.6091   22.7168 H   0  0  0  0  0  0  0  0  0  0  0  0
   20.0836   16.7213   21.8405 H   0  0  0  0  0  0  0  0  0  0  0  0
   17.3810   18.6419   21.6909 O   0  0  0  0  0  0  0  0  0  0  0  0
   17.4952   19.0282   22.5836 H   0  0  0  0  0  0  0  0  0  0  0  0
  1  2  1  0  0  0  0
  1  3  1  0  0  0  0
  1  4  1  0  0  0  0
  4  5  1  0  0  0  0
  4  6  1  0  0  0  0
  4  7  1  0  0  0  0
  7  8  1  0  0  0  0
  7  9  1  0  0  0  0
  7 10  1  0  0  0  0
 10 11  1  0  0  0  0
  1 12  1  0  0  0  0
 10 12  1  0  0  0  0
 12 13  1  0  0  0  0
 12 14  1  0  0  0  0
 10 15  1  0  0  0  0
 15 16  1  0  0  0  0
M  END
> <VConfSearch Rank>
228

> <Conf_Id>
20

> <Delta U+W>
-0.483

> <U+W>
2.527

> <U>
4.508

> <W>
-1.981

> <W(PB)>
-3.712

> <W(SA)>
1.732

> <Valence>
14.705

> <Coulomb>
-10.687

> <VdW>
0.490

> <VdW6>
-3.745

> <VdW12>
4.235

> <Bond>
0.068

> <Angle>
3.901

> <Pdih>
10.737

> <Idih>
0.000

> <Tether>
0.000

$$$$
VeraChem MOL file


 16 16  0  0  0  0  0  0  0  0999 V2000     
   19.7893   17.5720   21.3327 C   0  0  0  0  0  0  0  0  0  0  0  0
   20.7938   17.2671   21.6580 H   0  0  0  0  0  0  0  0  0  0  0  0
   19.5170   16.9752   20.4516 H   0  0  0  0  0  0  0  0  0  0  0  0
   19.7772   19.0798   21.0458 C   0  0  0  0  0  0  0  0  0  0  0  0
   20.6955   19.4177   20.5466 H   0  0  0  0  0  0  0  0  0  0  0  0
   18.9238   19.3261   20.3988 H   0  0  0  0  0  0  0  0  0  0  0  0
   19.5881   19.7312   22.4280 C   0  0  0  0  0  0  0  0  0  0  0  0
   19.0655   20.6933   22.3499 H   0  0  0  0  0  0  0  0  0  0  0  0
   20.5721   19.9174   22.8795 H   0  0  0  0  0  0  0  0  0  0  0  0
   18.7916   18.7204   23.2799 C   0  0  0  0  0  0  0  0  0  0  0  0
   17.7552   19.0669   23.4038 H   0  0  0  0  0  0  0  0  0  0  0  0
   18.7945   17.3928   22.4943 C   0  0  0  0  0  0  0  0  0  0  0  0
   19.0612   16.5351   23.1262 H   0  0  0  0  0  0  0  0  0  0  0  0
   17.7887   17.2118   22.0934 H   0  0  0  0  0  0  0  0  0  0  0  0
   19.4179   18.5434   24.5449 O   0  0  0  0  0  0  0  0  0  0  0  0
   19.3979   19.4153   24.9931 H   0  0  0  0  0  0  0  0  0  0  0  0
  1  2  1  0  0  0  0
  1  3  1  0  0  0  0
  1  4  1  0  0  0  0
  4  5  1  0  0  0  0
  4  6  1  0  0  0  0
  4  7  1  0  0  0  0
  7  8  1  0  0  0  0
  7  9  1  0  0  0  0
  7 10  1  0  0  0  0
 10 11  1  0  0  0  0
  1 12  1  0  0  0  0
 10 12  1  0  0  0  0
 12 13  1  0  0  0  0
 12 14  1  0  0  0  0
 10 15  1  0  0  0  0
 15 16  1  0  0  0  0
M  END
> <VConfSearch Rank>
229

> <Conf_Id>
59

> <Delta U+W>
0.000

> <U+W>
3.010

> <U>
5.843

> <W>
-2.833

> <W(PB)>
-4.568

> <W(SA)>
1.735

> <Valence>
13.789

> <Coulomb>
-8.574

> <VdW>
0.628

> <VdW6>
-3.284

> <VdW12>
3.912

> <Bond>
0.054

> <Angle>
4.034

> <Pdih>
9.702

> <Idih>
0.000

> <Tether>
0.000

$$$$
VeraChem MOL file


 16 16  0  0  0  0  0  0  0  0999 V2000     
   19.3854   19.1206   23.6332 C   0  0  0  0  0  0  0  0  0  0  0  0
   18.8405   18.9338   24.5685 H   0  0  0  0  0  0  0  0  0  0  0  0
   20.1852   19.8453   23.8403 H   0  0  0  0  0  0  0  0  0  0  0  0
   18.4731   19.6617   22.5239 C   0  0  0  0  0  0  0  0  0  0  0  0
   17.5044   19.1439   22.5584 H   0  0  0  0  0  0  0  0  0  0  0  0
   18.2901   20.7406   22.6201 H   0  0  0  0  0  0  0  0  0  0  0  0
   19.2028   19.3038   21.2160 C   0  0  0  0  0  0  0  0  0  0  0  0
   19.8753   20.1240   20.9330 H   0  0  0  0  0  0  0  0  0  0  0  0
   18.4974   19.1498   20.3885 H   0  0  0  0  0  0  0  0  0  0  0  0
   20.0426   18.0440   21.5117 C   0  0  0  0  0  0  0  0  0  0  0  0
   21.0807   18.2160   21.1917 H   0  0  0  0  0  0  0  0  0  0  0  0
   19.9888   17.8344   23.0397 C   0  0  0  0  0  0  0  0  0  0  0  0
   19.3401   16.9823   23.2844 H   0  0  0  0  0  0  0  0  0  0  0  0
   20.9844   17.6301   23.4542 H   0  0  0  0  0  0  0  0  0  0  0  0
   19.4895   16.9173   20.8419 O   0  0  0  0  0  0  0  0  0  0  0  0
   20.0525   16.1484   21.0728 H   0  0  0  0  0  0  0  0  0  0  0  0
  1  2  1  0  0  0  0
  1  3  1  0  0  0  0
  1  4  1  0  0  0  0
  4  5  1  0  0  0  0
  4  6  1  0  0  0  0
  4  7  1  0  0  0  0
  7  8  1  0  0  0  0
  7  9  1  0  0  0  0
  7 10  1  0  0  0  0
 10 11  1  0  0  0  0
  1 12  1  0  0  0  0
 10 12  1  0  0  0  0
 12 13  1  0  0  0  0
 12 14  1  0  0  0  0
 10 15  1  0  0  0  0
 15 16  1  0  0  0  0
M  END
> <VConfSearch Rank>
230

> <Conf_Id>
33

> <Delta U+W>
0.015

> <U+W>
3.025

> <U>
5.843

> <W>
-2.819

> <W(PB)>
-4.568

> <W(SA)>
1.750

> <Valence>
13.789

> <Coulomb>
-8.574

> <VdW>
0.628

> <VdW6>
-3.284

> <VdW12>
3.913

> <Bond>
0.054

> <Angle>
4.033

> <Pdih>
9.702

> <Idih>
0.000

> <Tether>
0.000

$$$$
VeraChem MOL file


 16 16  0  0  0  0  0  0  0  0999 V2000     
   18.8417   19.1777   21.1741 C   0  0  0  0  0  0  0  0  0  0  0  0
   17.7830   19.4502   21.2835 H   0  0  0  0  0  0  0  0  0  0  0  0
   19.1619   19.4817   20.1681 H   0  0  0  0  0  0  0  0  0  0  0  0
   19.0184   17.6590   21.3916 C   0  0  0  0  0  0  0  0  0  0  0  0
   18.0450   17.1963   21.6052 H   0  0  0  0  0  0  0  0  0  0  0  0
   19.4320   17.1687   20.4996 H   0  0  0  0  0  0  0  0  0  0  0  0
   19.9627   17.4971   22.6017 C   0  0  0  0  0  0  0  0  0  0  0  0
   20.9875   17.3253   22.2470 H   0  0  0  0  0  0  0  0  0  0  0  0
   19.6824   16.6468   23.2377 H   0  0  0  0  0  0  0  0  0  0  0  0
   19.9148   18.8305   23.3598 C   0  0  0  0  0  0  0  0  0  0  0  0
   20.8488   19.0176   23.9089 H   0  0  0  0  0  0  0  0  0  0  0  0
   19.6869   19.8765   22.2602 C   0  0  0  0  0  0  0  0  0  0  0  0
   19.2032   20.7847   22.6439 H   0  0  0  0  0  0  0  0  0  0  0  0
   20.6580   20.1678   21.8385 H   0  0  0  0  0  0  0  0  0  0  0  0
   18.8010   18.8279   24.2408 O   0  0  0  0  0  0  0  0  0  0  0  0
   18.0245   18.6559   23.6693 H   0  0  0  0  0  0  0  0  0  0  0  0
  1  2  1  0  0  0  0
  1  3  1  0  0  0  0
  1  4  1  0  0  0  0
  4  5  1  0  0  0  0
  4  6  1  0  0  0  0
  4  7  1  0  0  0  0
  7  8  1  0  0  0  0
  7  9  1  0  0  0  0
  7 10  1  0  0  0  0
 10 11  1  0  0  0  0
  1 12  1  0  0  0  0
 10 12  1  0  0  0  0
 12 13  1  0  0  0  0
 12 14  1  0  0  0  0
 10 15  1  0  0  0  0
 15 16  1  0  0  0  0
M  END
> <VConfSearch Rank>
231

> <Conf_Id>
20

> <Delta U+W>
-0.483

> <U+W>
2.527

> <U>
4.508

> <W>
-1.981

> <W(PB)>
-3.712

> <W(SA)>
1.732

> <Valence>
14.705

> <Coulomb>
-10.687

> <VdW>
0.490

> <VdW6>
-3.745

> <VdW12>
4.235

> <Bond>
0.068

> <Angle>
3.901

> <Pdih>
10.737

> <Idih>
0.000

> <Tether>
0.000

$$$$
VeraChem MOL file


 16 16  0  0  0  0  0  0  0  0999 V2000     
   20.3662   17.9374   23.1610 C   0  0  0  0  0  0  0  0  0  0  0  0
   21.1323   18.7126   23.3017 H   0  0  0  0  0  0  0  0  0  0  0  0
   20.6523   17.0590   23.7553 H   0  0  0  0  0  0  0  0  0  0  0  0
   20.2293   17.6147   21.6667 C   0  0  0  0  0  0  0  0  0  0  0  0
   21.1999   17.5964   21.1524 H   0  0  0  0  0  0  0  0  0  0  0  0
   19.7562   16.6306   21.5428 H   0  0  0  0  0  0  0  0  0  0  0  0
   19.2980   18.7128   21.1214 C   0  0  0  0  0  0  0  0  0  0  0  0
   18.7164   18.3552   20.2619 H   0  0  0  0  0  0  0  0  0  0  0  0
   19.9012   19.5683   20.7882 H   0  0  0  0  0  0  0  0  0  0  0  0
   18.3826   19.1278   22.2926 C   0  0  0  0  0  0  0  0  0  0  0  0
   17.3689   18.7307   22.1369 H   0  0  0  0  0  0  0  0  0  0  0  0
   18.9883   18.4952   23.5625 C   0  0  0  0  0  0  0  0  0  0  0  0
   19.0683   19.2141   24.3888 H   0  0  0  0  0  0  0  0  0  0  0  0
   18.3413   17.6736   23.8966 H   0  0  0  0  0  0  0  0  0  0  0  0
   18.3548   20.5448   22.4157 O   0  0  0  0  0  0  0  0  0  0  0  0
   17.9736   20.8922   21.5818 H   0  0  0  0  0  0  0  0  0  0  0  0
  1  2  1  0  0  0  0
  1  3  1  0  0  0  0
  1  4  1  0  0  0  0
  4  5  1  0  0  0  0
  4  6  1  0  0  0  0
  4  7  1  0  0  0  0
  7  8  1  0  0  0  0
  7  9  1  0  0  0  0
  7 10  1  0  0  0  0
 10 11  1  0  0  0  0
  1 12  1  0  0  0  0
 10 12  1  0  0  0  0
 12 13  1  0  0  0  0
 12 14  1  0  0  0  0
 10 15  1  0  0  0  0
 15 16  1  0  0  0  0
M  END
> <VConfSearch Rank>
232

> <Conf_Id>
59

> <Delta U+W>
0.000

> <U+W>
3.010

> <U>
5.843

> <W>
-2.833

> <W(PB)>
-4.568

> <W(SA)>
1.735

> <Valence>
13.789

> <Coulomb>
-8.574

> <VdW>
0.628

> <VdW6>
-3.284

> <VdW12>
3.912

> <Bond>
0.054

> <Angle>
4.034

> <Pdih>
9.702

> <Idih>
0.000

> <Tether>
0.000

$$$$
VeraChem MOL file


 16 16  0  0  0  0  0  0  0  0999 V2000     
   19.2168   18.5727   23.7079 C   0  0  0  0  0  0  0  0  0  0  0  0
   19.7620   18.3575   24.6370 H   0  0  0  0  0  0  0  0  0  0  0  0
   18.2307   18.9779   23.9742 H   0  0  0  0  0  0  0  0  0  0  0  0
   19.0427   17.3254   22.8307 C   0  0  0  0  0  0  0  0  0  0  0  0
   19.9621   16.7240   22.8590 H   0  0  0  0  0  0  0  0  0  0  0  0
   18.2076   16.6931   23.1615 H   0  0  0  0  0  0  0  0  0  0  0  0
   18.8329   17.8800   21.4096 C   0  0  0  0  0  0  0  0  0  0  0  0
   17.7616   18.0396   21.2309 H   0  0  0  0  0  0  0  0  0  0  0  0
   19.1985   17.1816   20.6450 H   0  0  0  0  0  0  0  0  0  0  0  0
   19.5597   19.2396   21.3564 C   0  0  0  0  0  0  0  0  0  0  0  0
   18.8699   20.0056   20.9730 H   0  0  0  0  0  0  0  0  0  0  0  0
   19.9652   19.5728   22.8077 C   0  0  0  0  0  0  0  0  0  0  0  0
   21.0478   19.4413   22.9402 H   0  0  0  0  0  0  0  0  0  0  0  0
   19.7172   20.6100   23.0679 H   0  0  0  0  0  0  0  0  0  0  0  0
   20.7160   19.1458   20.5329 O   0  0  0  0  0  0  0  0  0  0  0  0
   21.1419   20.0290   20.5444 H   0  0  0  0  0  0  0  0  0  0  0  0
  1  2  1  0  0  0  0
  1  3  1  0  0  0  0
  1  4  1  0  0  0  0
  4  5  1  0  0  0  0
  4  6  1  0  0  0  0
  4  7  1  0  0  0  0
  7  8  1  0  0  0  0
  7  9  1  0  0  0  0
  7 10  1  0  0  0  0
 10 11  1  0  0  0  0
  1 12  1  0  0  0  0
 10 12  1  0  0  0  0
 12 13  1  0  0  0  0
 12 14  1  0  0  0  0
 10 15  1  0  0  0  0
 15 16  1  0  0  0  0
M  END
> <VConfSearch Rank>
233

> <Conf_Id>
33

> <Delta U+W>
0.015

> <U+W>
3.025

> <U>
5.843

> <W>
-2.819

> <W(PB)>
-4.568

> <W(SA)>
1.750

> <Valence>
13.789

> <Coulomb>
-8.574

> <VdW>
0.628

> <VdW6>
-3.284

> <VdW12>
3.913

> <Bond>
0.054

> <Angle>
4.033

> <Pdih>
9.702

> <Idih>
0.000

> <Tether>
0.000

$$$$
VeraChem MOL file


 16 16  0  0  0  0  0  0  0  0999 V2000     
   18.4528   17.9339   21.5717 C   0  0  0  0  0  0  0  0  0  0  0  0
   18.8289   17.4536   20.6579 H   0  0  0  0  0  0  0  0  0  0  0  0
   17.3853   17.6902   21.6612 H   0  0  0  0  0  0  0  0  0  0  0  0
   18.6827   19.4592   21.4961 C   0  0  0  0  0  0  0  0  0  0  0  0
   19.1690   19.7172   20.5452 H   0  0  0  0  0  0  0  0  0  0  0  0
   17.7354   20.0134   21.5471 H   0  0  0  0  0  0  0  0  0  0  0  0
   19.6024   19.8225   22.6812 C   0  0  0  0  0  0  0  0  0  0  0  0
   18.9947   20.1946   23.5166 H   0  0  0  0  0  0  0  0  0  0  0  0
   20.3274   20.6052   22.4208 H   0  0  0  0  0  0  0  0  0  0  0  0
   20.2855   18.5154   23.1054 C   0  0  0  0  0  0  0  0  0  0  0  0
   20.5561   18.5277   24.1711 H   0  0  0  0  0  0  0  0  0  0  0  0
   19.2413   17.4330   22.8004 C   0  0  0  0  0  0  0  0  0  0  0  0
   19.6994   16.4498   22.6285 H   0  0  0  0  0  0  0  0  0  0  0  0
   18.5629   17.3400   23.6587 H   0  0  0  0  0  0  0  0  0  0  0  0
   21.4313   18.3018   22.2941 O   0  0  0  0  0  0  0  0  0  0  0  0
   21.0964   18.3065   21.3738 H   0  0  0  0  0  0  0  0  0  0  0  0
  1  2  1  0  0  0  0
  1  3  1  0  0  0  0
  1  4  1  0  0  0  0
  4  5  1  0  0  0  0
  4  6  1  0  0  0  0
  4  7  1  0  0  0  0
  7  8  1  0  0  0  0
  7  9  1  0  0  0  0
  7 10  1  0  0  0  0
 10 11  1  0  0  0  0
  1 12  1  0  0  0  0
 10 12  1  0  0  0  0
 12 13  1  0  0  0  0
 12 14  1  0  0  0  0
 10 15  1  0  0  0  0
 15 16  1  0  0  0  0
M  END
> <VConfSearch Rank>
234

> <Conf_Id>
20

> <Delta U+W>
-0.483

> <U+W>
2.527

> <U>
4.508

> <W>
-1.981

> <W(PB)>
-3.712

> <W(SA)>
1.732

> <Valence>
14.705

> <Coulomb>
-10.687

> <VdW>
0.490

> <VdW6>
-3.745

> <VdW12>
4.235

> <Bond>
0.068

> <Angle>
3.901

> <Pdih>
10.737

> <Idih>
0.000

> <Tether>
0.000

$$$$
VeraChem MOL file


 16 16  0  0  0  0  0  0  0  0999 V2000     
   19.3952   17.1069   22.1799 C   0  0  0  0  0  0  0  0  0  0  0  0
   18.9766   16.9029   21.1845 H   0  0  0  0  0  0  0  0  0  0  0  0
   19.7118   16.1526   22.6222 H   0  0  0  0  0  0  0  0  0  0  0  0
   18.3502   17.8328   23.0384 C   0  0  0  0  0  0  0  0  0  0  0  0
   17.3365   17.4380   22.8856 H   0  0  0  0  0  0  0  0  0  0  0  0
   18.6049   17.7234   24.1018 H   0  0  0  0  0  0  0  0  0  0  0  0
   18.4725   19.3103   22.6228 C   0  0  0  0  0  0  0  0  0  0  0  0
   18.2008   19.9825   23.4469 H   0  0  0  0  0  0  0  0  0  0  0  0
   17.7898   19.5098   21.7856 H   0  0  0  0  0  0  0  0  0  0  0  0
   19.9363   19.5179   22.1805 C   0  0  0  0  0  0  0  0  0  0  0  0
   20.4831   20.0890   22.9449 H   0  0  0  0  0  0  0  0  0  0  0  0
   20.5561   18.1108   22.0553 C   0  0  0  0  0  0  0  0  0  0  0  0
   21.1048   17.9793   21.1131 H   0  0  0  0  0  0  0  0  0  0  0  0
   21.2657   17.9577   22.8788 H   0  0  0  0  0  0  0  0  0  0  0  0
   19.9797   20.1866   20.9255 O   0  0  0  0  0  0  0  0  0  0  0  0
   19.5655   21.0651   21.0604 H   0  0  0  0  0  0  0  0  0  0  0  0
  1  2  1  0  0  0  0
  1  3  1  0  0  0  0
  1  4  1  0  0  0  0
  4  5  1  0  0  0  0
  4  6  1  0  0  0  0
  4  7  1  0  0  0  0
  7  8  1  0  0  0  0
  7  9  1  0  0  0  0
  7 10  1  0  0  0  0
 10 11  1  0  0  0  0
  1 12  1  0  0  0  0
 10 12  1  0  0  0  0
 12 13  1  0  0  0  0
 12 14  1  0  0  0  0
 10 15  1  0  0  0  0
 15 16  1  0  0  0  0
M  END
> <VConfSearch Rank>
235

> <Conf_Id>
59

> <Delta U+W>
0.000

> <U+W>
3.010

> <U>
5.843

> <W>
-2.833

> <W(PB)>
-4.568

> <W(SA)>
1.735

> <Valence>
13.789

> <Coulomb>
-8.574

> <VdW>
0.628

> <VdW6>
-3.284

> <VdW12>
3.912

> <Bond>
0.054

> <Angle>
4.034

> <Pdih>
9.702

> <Idih>
0.000

> <Tether>
0.000

$$$$
VeraChem MOL file


 16 16  0  0  0  0  0  0  0  0999 V2000     
   20.0380   19.4765   23.2774 C   0  0  0  0  0  0  0  0  0  0  0  0
   19.7639   20.3443   23.8927 H   0  0  0  0  0  0  0  0  0  0  0  0
   21.0220   19.1171   23.6093 H   0  0  0  0  0  0  0  0  0  0  0  0
   20.0896   19.8146   21.7811 C   0  0  0  0  0  0  0  0  0  0  0  0
   19.2604   20.4896   21.5273 H   0  0  0  0  0  0  0  0  0  0  0  0
   21.0309   20.3023   21.4934 H   0  0  0  0  0  0  0  0  0  0  0  0
   19.8883   18.4619   21.0734 C   0  0  0  0  0  0  0  0  0  0  0  0
   20.8631   17.9865   20.9032 H   0  0  0  0  0  0  0  0  0  0  0  0
   19.4019   18.5851   20.0966 H   0  0  0  0  0  0  0  0  0  0  0  0
   19.0605   17.5823   22.0330 C   0  0  0  0  0  0  0  0  0  0  0  0
   19.5652   16.6142   22.1652 H   0  0  0  0  0  0  0  0  0  0  0  0
   19.0065   18.3379   23.3777 C   0  0  0  0  0  0  0  0  0  0  0  0
   18.0069   18.7659   23.5340 H   0  0  0  0  0  0  0  0  0  0  0  0
   19.2244   17.6727   24.2232 H   0  0  0  0  0  0  0  0  0  0  0  0
   17.7463   17.3991   21.5199 O   0  0  0  0  0  0  0  0  0  0  0  0
   17.2647   16.8462   22.1710 H   0  0  0  0  0  0  0  0  0  0  0  0
  1  2  1  0  0  0  0
  1  3  1  0  0  0  0
  1  4  1  0  0  0  0
  4  5  1  0  0  0  0
  4  6  1  0  0  0  0
  4  7  1  0  0  0  0
  7  8  1  0  0  0  0
  7  9  1  0  0  0  0
  7 10  1  0  0  0  0
 10 11  1  0  0  0  0
  1 12  1  0  0  0  0
 10 12  1  0  0  0  0
 12 13  1  0  0  0  0
 12 14  1  0  0  0  0
 10 15  1  0  0  0  0
 15 16  1  0  0  0  0
M  END
> <VConfSearch Rank>
236

> <Conf_Id>
33

> <Delta U+W>
0.015

> <U+W>
3.025

> <U>
5.843

> <W>
-2.819

> <W(PB)>
-4.568

> <W(SA)>
1.750

> <Valence>
13.789

> <Coulomb>
-8.574

> <VdW>
0.628

> <VdW6>
-3.284

> <VdW12>
3.913

> <Bond>
0.054

> <Angle>
4.033

> <Pdih>
9.702

> <Idih>
0.000

> <Tether>
0.000

$$$$
VeraChem MOL file


 16 16  0  0  0  0  0  0  0  0999 V2000     
   20.5574   18.8744   22.8280 C   0  0  0  0  0  0  0  0  0  0  0  0
   20.6125   19.8557   23.3191 H   0  0  0  0  0  0  0  0  0  0  0  0
   21.5249   18.3743   22.9729 H   0  0  0  0  0  0  0  0  0  0  0  0
   20.2300   19.0546   21.3295 C   0  0  0  0  0  0  0  0  0  0  0  0
   20.1278   20.1231   21.0952 H   0  0  0  0  0  0  0  0  0  0  0  0
   21.0258   18.6479   20.6905 H   0  0  0  0  0  0  0  0  0  0  0  0
   18.8928   18.3243   21.0828 C   0  0  0  0  0  0  0  0  0  0  0  0
   19.0908   17.3239   20.6758 H   0  0  0  0  0  0  0  0  0  0  0  0
   18.2541   18.8565   20.3653 H   0  0  0  0  0  0  0  0  0  0  0  0
   18.2271   18.1800   22.4580 C   0  0  0  0  0  0  0  0  0  0  0  0
   17.5650   17.3031   22.4970 H   0  0  0  0  0  0  0  0  0  0  0  0
   19.4063   18.0409   23.4302 C   0  0  0  0  0  0  0  0  0  0  0  0
   19.1470   18.3632   24.4475 H   0  0  0  0  0  0  0  0  0  0  0  0
   19.7047   16.9854   23.4801 H   0  0  0  0  0  0  0  0  0  0  0  0
   17.5112   19.3692   22.7582 O   0  0  0  0  0  0  0  0  0  0  0  0
   18.1745   20.0874   22.6998 H   0  0  0  0  0  0  0  0  0  0  0  0
  1  2  1  0  0  0  0
  1  3  1  0  0  0  0
  1  4  1  0  0  0  0
  4  5  1  0  0  0  0
  4  6  1  0  0  0  0
  4  7  1  0  0  0  0
  7  8  1  0  0  0  0
  7  9  1  0  0  0  0
  7 10  1  0  0  0  0
 10 11  1  0  0  0  0
  1 12  1  0  0  0  0
 10 12  1  0  0  0  0
 12 13  1  0  0  0  0
 12 14  1  0  0  0  0
 10 15  1  0  0  0  0
 15 16  1  0  0  0  0
M  END
> <VConfSearch Rank>
237

> <Conf_Id>
20

> <Delta U+W>
-0.483

> <U+W>
2.527

> <U>
4.508

> <W>
-1.981

> <W(PB)>
-3.712

> <W(SA)>
1.732

> <Valence>
14.705

> <Coulomb>
-10.687

> <VdW>
0.490

> <VdW6>
-3.745

> <VdW12>
4.235

> <Bond>
0.068

> <Angle>
3.901

> <Pdih>
10.737

> <Idih>
0.000

> <Tether>
0.000

$$$$
VeraChem MOL file


 16 16  0  0  0  0  0  0  0  0999 V2000     
   20.4109   19.5565   22.2913 C   0  0  0  0  0  0  0  0  0  0  0  0
   20.0527   20.3600   22.9500 H   0  0  0  0  0  0  0  0  0  0  0  0
   21.4197   19.8194   21.9451 H   0  0  0  0  0  0  0  0  0  0  0  0
   19.4245   19.3645   21.1312 C   0  0  0  0  0  0  0  0  0  0  0  0
   19.0340   20.3188   20.7522 H   0  0  0  0  0  0  0  0  0  0  0  0
   19.9252   18.8448   20.3024 H   0  0  0  0  0  0  0  0  0  0  0  0
   18.3167   18.4684   21.7145 C   0  0  0  0  0  0  0  0  0  0  0  0
   17.8517   17.8481   20.9374 H   0  0  0  0  0  0  0  0  0  0  0  0
   17.5335   19.0998   22.1558 H   0  0  0  0  0  0  0  0  0  0  0  0
   18.9850   17.6049   22.8051 C   0  0  0  0  0  0  0  0  0  0  0  0
   19.0989   16.5706   22.4490 H   0  0  0  0  0  0  0  0  0  0  0  0
   20.3802   18.2164   23.0490 C   0  0  0  0  0  0  0  0  0  0  0  0
   20.5953   18.3510   24.1174 H   0  0  0  0  0  0  0  0  0  0  0  0
   21.1431   17.5428   22.6373 H   0  0  0  0  0  0  0  0  0  0  0  0
   18.2164   17.6437   24.0016 O   0  0  0  0  0  0  0  0  0  0  0  0
   17.3419   17.2556   23.7868 H   0  0  0  0  0  0  0  0  0  0  0  0
  1  2  1  0  0  0  0
  1  3  1  0  0  0  0
  1  4  1  0  0  0  0
  4  5  1  0  0  0  0
  4  6  1  0  0  0  0
  4  7  1  0  0  0  0
  7  8  1  0  0  0  0
  7  9  1  0  0  0  0
  7 10  1  0  0  0  0
 10 11  1  0  0  0  0
  1 12  1  0  0  0  0
 10 12  1  0  0  0  0
 12 13  1  0  0  0  0
 12 14  1  0  0  0  0
 10 15  1  0  0  0  0
 15 16  1  0  0  0  0
M  END
> <VConfSearch Rank>
238

> <Conf_Id>
59

> <Delta U+W>
0.000

> <U+W>
3.010

> <U>
5.843

> <W>
-2.833

> <W(PB)>
-4.568

> <W(SA)>
1.735

> <Valence>
13.789

> <Coulomb>
-8.574

> <VdW>
0.628

> <VdW6>
-3.284

> <VdW12>
3.912

> <Bond>
0.054

> <Angle>
4.034

> <Pdih>
9.702

> <Idih>
0.000

> <Tether>
0.000

$$$$
VeraChem MOL file


 16 16  0  0  0  0  0  0  0  0999 V2000     
   20.1546   19.5238   23.1503 C   0  0  0  0  0  0  0  0  0  0  0  0
   19.9585   20.4259   23.7458 H   0  0  0  0  0  0  0  0  0  0  0  0
   21.1710   19.1749   23.3798 H   0  0  0  0  0  0  0  0  0  0  0  0
   20.0247   19.7798   21.6426 C   0  0  0  0  0  0  0  0  0  0  0  0
   19.1719   20.4469   21.4544 H   0  0  0  0  0  0  0  0  0  0  0  0
   20.9248   20.2435   21.2167 H   0  0  0  0  0  0  0  0  0  0  0  0
   19.7369   18.3924   21.0397 C   0  0  0  0  0  0  0  0  0  0  0  0
   20.6831   17.9006   20.7790 H   0  0  0  0  0  0  0  0  0  0  0  0
   19.1357   18.4664   20.1236 H   0  0  0  0  0  0  0  0  0  0  0  0
   19.0303   17.5730   22.1392 C   0  0  0  0  0  0  0  0  0  0  0  0
   19.5458   16.6094   22.2622 H   0  0  0  0  0  0  0  0  0  0  0  0
   19.1411   18.4008   23.4370 C   0  0  0  0  0  0  0  0  0  0  0  0
   18.1685   18.8448   23.6895 H   0  0  0  0  0  0  0  0  0  0  0  0
   19.4589   17.7806   24.2851 H   0  0  0  0  0  0  0  0  0  0  0  0
   17.6633   17.3730   21.7998 O   0  0  0  0  0  0  0  0  0  0  0  0
   17.2634   16.8601   22.5337 H   0  0  0  0  0  0  0  0  0  0  0  0
  1  2  1  0  0  0  0
  1  3  1  0  0  0  0
  1  4  1  0  0  0  0
  4  5  1  0  0  0  0
  4  6  1  0  0  0  0
  4  7  1  0  0  0  0
  7  8  1  0  0  0  0
  7  9  1  0  0  0  0
  7 10  1  0  0  0  0
 10 11  1  0  0  0  0
  1 12  1  0  0  0  0
 10 12  1  0  0  0  0
 12 13  1  0  0  0  0
 12 14  1  0  0  0  0
 10 15  1  0  0  0  0
 15 16  1  0  0  0  0
M  END
> <VConfSearch Rank>
239

> <Conf_Id>
33

> <Delta U+W>
0.015

> <U+W>
3.025

> <U>
5.843

> <W>
-2.819

> <W(PB)>
-4.568

> <W(SA)>
1.750

> <Valence>
13.789

> <Coulomb>
-8.574

> <VdW>
0.628

> <VdW6>
-3.284

> <VdW12>
3.913

> <Bond>
0.054

> <Angle>
4.033

> <Pdih>
9.702

> <Idih>
0.000

> <Tether>
0.000

$$$$
VeraChem MOL file


 16 16  0  0  0  0  0  0  0  0999 V2000     
   18.8747   19.5506   21.4537 C   0  0  0  0  0  0  0  0  0  0  0  0
   18.7454   20.5319   21.9308 H   0  0  0  0  0  0  0  0  0  0  0  0
   18.5532   19.6438   20.4073 H   0  0  0  0  0  0  0  0  0  0  0  0
   18.0488   18.4864   22.2089 C   0  0  0  0  0  0  0  0  0  0  0  0
   17.5189   18.9529   23.0509 H   0  0  0  0  0  0  0  0  0  0  0  0
   17.2958   18.0222   21.5573 H   0  0  0  0  0  0  0  0  0  0  0  0
   19.0557   17.4379   22.7277 C   0  0  0  0  0  0  0  0  0  0  0  0
   19.0840   16.5839   22.0382 H   0  0  0  0  0  0  0  0  0  0  0  0
   18.7847   17.0564   23.7212 H   0  0  0  0  0  0  0  0  0  0  0  0
   20.4269   18.1270   22.7238 C   0  0  0  0  0  0  0  0  0  0  0  0
   21.2437   17.4021   22.5961 H   0  0  0  0  0  0  0  0  0  0  0  0
   20.3496   19.1046   21.5434 C   0  0  0  0  0  0  0  0  0  0  0  0
   21.0351   19.9544   21.6615 H   0  0  0  0  0  0  0  0  0  0  0  0
   20.6293   18.5750   20.6231 H   0  0  0  0  0  0  0  0  0  0  0  0
   20.5849   18.8610   23.9293 O   0  0  0  0  0  0  0  0  0  0  0  0
   19.8211   19.4734   23.9567 H   0  0  0  0  0  0  0  0  0  0  0  0
  1  2  1  0  0  0  0
  1  3  1  0  0  0  0
  1  4  1  0  0  0  0
  4  5  1  0  0  0  0
  4  6  1  0  0  0  0
  4  7  1  0  0  0  0
  7  8  1  0  0  0  0
  7  9  1  0  0  0  0
  7 10  1  0  0  0  0
 10 11  1  0  0  0  0
  1 12  1  0  0  0  0
 10 12  1  0  0  0  0
 12 13  1  0  0  0  0
 12 14  1  0  0  0  0
 10 15  1  0  0  0  0
 15 16  1  0  0  0  0
M  END
> <VConfSearch Rank>
240

> <Conf_Id>
20

> <Delta U+W>
-0.483

> <U+W>
2.527

> <U>
4.508

> <W>
-1.981

> <W(PB)>
-3.712

> <W(SA)>
1.732

> <Valence>
14.705

> <Coulomb>
-10.687

> <VdW>
0.490

> <VdW6>
-3.745

> <VdW12>
4.235

> <Bond>
0.068

> <Angle>
3.901

> <Pdih>
10.737

> <Idih>
0.000

> <Tether>
0.000

$$$$
VeraChem MOL file


 16 16  0  0  0  0  0  0  0  0999 V2000     
   18.4329   17.4337   22.3623 C   0  0  0  0  0  0  0  0  0  0  0  0
   17.9891   17.3881   21.3579 H   0  0  0  0  0  0  0  0  0  0  0  0
   18.0396   16.5936   22.9507 H   0  0  0  0  0  0  0  0  0  0  0  0
   18.1207   18.7938   23.0012 C   0  0  0  0  0  0  0  0  0  0  0  0
   17.0991   19.1335   22.7831 H   0  0  0  0  0  0  0  0  0  0  0  0
   18.2342   18.7246   24.0921 H   0  0  0  0  0  0  0  0  0  0  0  0
   19.1887   19.7417   22.4255 C   0  0  0  0  0  0  0  0  0  0  0  0
   19.4230   20.5543   23.1252 H   0  0  0  0  0  0  0  0  0  0  0  0
   18.8115   20.1933   21.4979 H   0  0  0  0  0  0  0  0  0  0  0  0
   20.4289   18.8717   22.1309 C   0  0  0  0  0  0  0  0  0  0  0  0
   21.2123   19.0680   22.8774 H   0  0  0  0  0  0  0  0  0  0  0  0
   19.9683   17.4042   22.2495 C   0  0  0  0  0  0  0  0  0  0  0  0
   20.2995   16.7934   21.3991 H   0  0  0  0  0  0  0  0  0  0  0  0
   20.3964   16.9672   23.1610 H   0  0  0  0  0  0  0  0  0  0  0  0
   20.9092   19.1305   20.8170 O   0  0  0  0  0  0  0  0  0  0  0  0
   21.1760   20.0739   20.7959 H   0  0  0  0  0  0  0  0  0  0  0  0
  1  2  1  0  0  0  0
  1  3  1  0  0  0  0
  1  4  1  0  0  0  0
  4  5  1  0  0  0  0
  4  6  1  0  0  0  0
  4  7  1  0  0  0  0
  7  8  1  0  0  0  0
  7  9  1  0  0  0  0
  7 10  1  0  0  0  0
 10 11  1  0  0  0  0
  1 12  1  0  0  0  0
 10 12  1  0  0  0  0
 12 13  1  0  0  0  0
 12 14  1  0  0  0  0
 10 15  1  0  0  0  0
 15 16  1  0  0  0  0
M  END
> <VConfSearch Rank>
241

> <Conf_Id>
59

> <Delta U+W>
0.000

> <U+W>
3.010

> <U>
5.843

> <W>
-2.833

> <W(PB)>
-4.568

> <W(SA)>
1.735

> <Valence>
13.789

> <Coulomb>
-8.574

> <VdW>
0.628

> <VdW6>
-3.284

> <VdW12>
3.912

> <Bond>
0.054

> <Angle>
4.034

> <Pdih>
9.702

> <Idih>
0.000

> <Tether>
0.000

$$$$
VeraChem MOL file


 16 16  0  0  0  0  0  0  0  0999 V2000     
   18.3017   18.6433   23.1505 C   0  0  0  0  0  0  0  0  0  0  0  0
   18.0573   18.7969   24.2104 H   0  0  0  0  0  0  0  0  0  0  0  0
   17.3616   18.6109   22.5823 H   0  0  0  0  0  0  0  0  0  0  0  0
   19.0921   17.3489   22.9151 C   0  0  0  0  0  0  0  0  0  0  0  0
   19.8239   17.2121   23.7235 H   0  0  0  0  0  0  0  0  0  0  0  0
   18.4448   16.4620   22.8832 H   0  0  0  0  0  0  0  0  0  0  0  0
   19.8312   17.5852   21.5851 C   0  0  0  0  0  0  0  0  0  0  0  0
   19.2055   17.2436   20.7502 H   0  0  0  0  0  0  0  0  0  0  0  0
   20.7767   17.0282   21.5434 H   0  0  0  0  0  0  0  0  0  0  0  0
   20.0431   19.1085   21.4643 C   0  0  0  0  0  0  0  0  0  0  0  0
   19.6784   19.4494   20.4844 H   0  0  0  0  0  0  0  0  0  0  0  0
   19.2100   19.7539   22.5917 C   0  0  0  0  0  0  0  0  0  0  0  0
   19.8694   20.1201   23.3904 H   0  0  0  0  0  0  0  0  0  0  0  0
   18.6227   20.6047   22.2229 H   0  0  0  0  0  0  0  0  0  0  0  0
   21.4200   19.4266   21.6276 O   0  0  0  0  0  0  0  0  0  0  0  0
   21.4941   20.4016   21.5533 H   0  0  0  0  0  0  0  0  0  0  0  0
  1  2  1  0  0  0  0
  1  3  1  0  0  0  0
  1  4  1  0  0  0  0
  4  5  1  0  0  0  0
  4  6  1  0  0  0  0
  4  7  1  0  0  0  0
  7  8  1  0  0  0  0
  7  9  1  0  0  0  0
  7 10  1  0  0  0  0
 10 11  1  0  0  0  0
  1 12  1  0  0  0  0
 10 12  1  0  0  0  0
 12 13  1  0  0  0  0
 12 14  1  0  0  0  0
 10 15  1  0  0  0  0
 15 16  1  0  0  0  0
M  END
> <VConfSearch Rank>
242

> <Conf_Id>
33

> <Delta U+W>
0.015

> <U+W>
3.025

> <U>
5.843

> <W>
-2.819

> <W(PB)>
-4.568

> <W(SA)>
1.750

> <Valence>
13.789

> <Coulomb>
-8.574

> <VdW>
0.628

> <VdW6>
-3.284

> <VdW12>
3.913

> <Bond>
0.054

> <Angle>
4.033

> <Pdih>
9.702

> <Idih>
0.000

> <Tether>
0.000

$$$$
VeraChem MOL file


 16 16  0  0  0  0  0  0  0  0999 V2000     
   20.7064   18.7302   22.1779 C   0  0  0  0  0  0  0  0  0  0  0  0
   21.0738   19.0374   21.1890 H   0  0  0  0  0  0  0  0  0  0  0  0
   21.5775   18.6252   22.8391 H   0  0  0  0  0  0  0  0  0  0  0  0
   19.9211   17.4058   22.0584 C   0  0  0  0  0  0  0  0  0  0  0  0
   19.9093   17.0715   21.0118 H   0  0  0  0  0  0  0  0  0  0  0  0
   20.3808   16.6082   22.6579 H   0  0  0  0  0  0  0  0  0  0  0  0
   18.4850   17.7037   22.5392 C   0  0  0  0  0  0  0  0  0  0  0  0
   18.3783   17.3969   23.5881 H   0  0  0  0  0  0  0  0  0  0  0  0
   17.7295   17.1623   21.9542 H   0  0  0  0  0  0  0  0  0  0  0  0
   18.3122   19.2256   22.4452 C   0  0  0  0  0  0  0  0  0  0  0  0
   17.5773   19.5952   23.1748 H   0  0  0  0  0  0  0  0  0  0  0  0
   19.7156   19.7783   22.7276 C   0  0  0  0  0  0  0  0  0  0  0  0
   19.8694   20.7703   22.2823 H   0  0  0  0  0  0  0  0  0  0  0  0
   19.8489   19.8751   23.8132 H   0  0  0  0  0  0  0  0  0  0  0  0
   17.9307   19.5721   21.1218 O   0  0  0  0  0  0  0  0  0  0  0  0
   18.6358   19.2058   20.5492 H   0  0  0  0  0  0  0  0  0  0  0  0
  1  2  1  0  0  0  0
  1  3  1  0  0  0  0
  1  4  1  0  0  0  0
  4  5  1  0  0  0  0
  4  6  1  0  0  0  0
  4  7  1  0  0  0  0
  7  8  1  0  0  0  0
  7  9  1  0  0  0  0
  7 10  1  0  0  0  0
 10 11  1  0  0  0  0
  1 12  1  0  0  0  0
 10 12  1  0  0  0  0
 12 13  1  0  0  0  0
 12 14  1  0  0  0  0
 10 15  1  0  0  0  0
 15 16  1  0  0  0  0
M  END
> <VConfSearch Rank>
243

> <Conf_Id>
20

> <Delta U+W>
-0.483

> <U+W>
2.527

> <U>
4.508

> <W>
-1.981

> <W(PB)>
-3.712

> <W(SA)>
1.732

> <Valence>
14.705

> <Coulomb>
-10.687

> <VdW>
0.490

> <VdW6>
-3.745

> <VdW12>
4.235

> <Bond>
0.068

> <Angle>
3.901

> <Pdih>
10.737

> <Idih>
0.000

> <Tether>
0.000

$$$$
VeraChem MOL file


 16 16  0  0  0  0  0  0  0  0999 V2000     
   20.5302   19.4089   22.2180 C   0  0  0  0  0  0  0  0  0  0  0  0
   20.3273   20.2472   22.8990 H   0  0  0  0  0  0  0  0  0  0  0  0
   21.5389   19.5390   21.8030 H   0  0  0  0  0  0  0  0  0  0  0  0
   19.4502   19.3583   21.1286 C   0  0  0  0  0  0  0  0  0  0  0  0
   19.1644   20.3588   20.7765 H   0  0  0  0  0  0  0  0  0  0  0  0
   19.8199   18.7837   20.2679 H   0  0  0  0  0  0  0  0  0  0  0  0
   18.2760   18.6116   21.7877 C   0  0  0  0  0  0  0  0  0  0  0  0
   17.6810   18.0645   21.0450 H   0  0  0  0  0  0  0  0  0  0  0  0
   17.6152   19.3373   22.2812 H   0  0  0  0  0  0  0  0  0  0  0  0
   18.8971   17.6585   22.8305 C   0  0  0  0  0  0  0  0  0  0  0  0
   18.8486   16.6212   22.4684 H   0  0  0  0  0  0  0  0  0  0  0  0
   20.3743   18.0784   22.9773 C   0  0  0  0  0  0  0  0  0  0  0  0
   20.6778   18.1747   24.0283 H   0  0  0  0  0  0  0  0  0  0  0  0
   21.0115   17.3134   22.5148 H   0  0  0  0  0  0  0  0  0  0  0  0
   18.2239   17.7888   24.0770 O   0  0  0  0  0  0  0  0  0  0  0  0
   17.2932   17.5213   23.9233 H   0  0  0  0  0  0  0  0  0  0  0  0
  1  2  1  0  0  0  0
  1  3  1  0  0  0  0
  1  4  1  0  0  0  0
  4  5  1  0  0  0  0
  4  6  1  0  0  0  0
  4  7  1  0  0  0  0
  7  8  1  0  0  0  0
  7  9  1  0  0  0  0
  7 10  1  0  0  0  0
 10 11  1  0  0  0  0
  1 12  1  0  0  0  0
 10 12  1  0  0  0  0
 12 13  1  0  0  0  0
 12 14  1  0  0  0  0
 10 15  1  0  0  0  0
 15 16  1  0  0  0  0
M  END
> <VConfSearch Rank>
244

> <Conf_Id>
59

> <Delta U+W>
0.000

> <U+W>
3.010

> <U>
5.843

> <W>
-2.833

> <W(PB)>
-4.568

> <W(SA)>
1.735

> <Valence>
13.789

> <Coulomb>
-8.574

> <VdW>
0.628

> <VdW6>
-3.284

> <VdW12>
3.912

> <Bond>
0.054

> <Angle>
4.034

> <Pdih>
9.702

> <Idih>
0.000

> <Tether>
0.000

$$$$
VeraChem MOL file


 16 16  0  0  0  0  0  0  0  0999 V2000     
   20.4823   17.8071   22.8847 C   0  0  0  0  0  0  0  0  0  0  0  0
   21.1882   17.0153   22.5989 H   0  0  0  0  0  0  0  0  0  0  0  0
   20.7301   18.1370   23.9032 H   0  0  0  0  0  0  0  0  0  0  0  0
   19.0231   17.3340   22.8359 C   0  0  0  0  0  0  0  0  0  0  0  0
   18.8744   16.6882   21.9592 H   0  0  0  0  0  0  0  0  0  0  0  0
   18.7351   16.7686   23.7326 H   0  0  0  0  0  0  0  0  0  0  0  0
   18.2042   18.6272   22.6685 C   0  0  0  0  0  0  0  0  0  0  0  0
   17.9424   19.0280   23.6564 H   0  0  0  0  0  0  0  0  0  0  0  0
   17.2684   18.4455   22.1233 H   0  0  0  0  0  0  0  0  0  0  0  0
   19.1184   19.6358   21.9426 C   0  0  0  0  0  0  0  0  0  0  0  0
   19.1351   20.5809   22.5048 H   0  0  0  0  0  0  0  0  0  0  0  0
   20.5281   19.0082   21.9224 C   0  0  0  0  0  0  0  0  0  0  0  0
   20.7729   18.6546   20.9115 H   0  0  0  0  0  0  0  0  0  0  0  0
   21.2966   19.7326   22.2215 H   0  0  0  0  0  0  0  0  0  0  0  0
   18.6566   19.8484   20.6139 O   0  0  0  0  0  0  0  0  0  0  0  0
   19.2769   20.4844   20.1990 H   0  0  0  0  0  0  0  0  0  0  0  0
  1  2  1  0  0  0  0
  1  3  1  0  0  0  0
  1  4  1  0  0  0  0
  4  5  1  0  0  0  0
  4  6  1  0  0  0  0
  4  7  1  0  0  0  0
  7  8  1  0  0  0  0
  7  9  1  0  0  0  0
  7 10  1  0  0  0  0
 10 11  1  0  0  0  0
  1 12  1  0  0  0  0
 10 12  1  0  0  0  0
 12 13  1  0  0  0  0
 12 14  1  0  0  0  0
 10 15  1  0  0  0  0
 15 16  1  0  0  0  0
M  END
> <VConfSearch Rank>
245

> <Conf_Id>
33

> <Delta U+W>
0.015

> <U+W>
3.025

> <U>
5.843

> <W>
-2.819

> <W(PB)>
-4.568

> <W(SA)>
1.750

> <Valence>
13.789

> <Coulomb>
-8.574

> <VdW>
0.628

> <VdW6>
-3.284

> <VdW12>
3.913

> <Bond>
0.054

> <Angle>
4.033

> <Pdih>
9.702

> <Idih>
0.000

> <Tether>
0.000

$$$$
VeraChem MOL file


 16 16  0  0  0  0  0  0  0  0999 V2000     
   18.6313   18.4991   21.1560 C   0  0  0  0  0  0  0  0  0  0  0  0
   18.9944   17.7516   20.4372 H   0  0  0  0  0  0  0  0  0  0  0  0
   17.7131   18.9394   20.7437 H   0  0  0  0  0  0  0  0  0  0  0  0
   19.7179   19.5705   21.3934 C   0  0  0  0  0  0  0  0  0  0  0  0
   20.6064   19.3422   20.7888 H   0  0  0  0  0  0  0  0  0  0  0  0
   19.3676   20.5715   21.1063 H   0  0  0  0  0  0  0  0  0  0  0  0
   20.0667   19.5147   22.8960 C   0  0  0  0  0  0  0  0  0  0  0  0
   19.5131   20.2980   23.4305 H   0  0  0  0  0  0  0  0  0  0  0  0
   21.1370   19.6763   23.0812 H   0  0  0  0  0  0  0  0  0  0  0  0
   19.5918   18.1422   23.3919 C   0  0  0  0  0  0  0  0  0  0  0  0
   19.3364   18.1645   24.4611 H   0  0  0  0  0  0  0  0  0  0  0  0
   18.3635   17.8368   22.5242 C   0  0  0  0  0  0  0  0  0  0  0  0
   18.1748   16.7586   22.4350 H   0  0  0  0  0  0  0  0  0  0  0  0
   17.4782   18.2938   22.9859 H   0  0  0  0  0  0  0  0  0  0  0  0
   20.5999   17.1764   23.1318 O   0  0  0  0  0  0  0  0  0  0  0  0
   20.7595   17.2282   22.1669 H   0  0  0  0  0  0  0  0  0  0  0  0
  1  2  1  0  0  0  0
  1  3  1  0  0  0  0
  1  4  1  0  0  0  0
  4  5  1  0  0  0  0
  4  6  1  0  0  0  0
  4  7  1  0  0  0  0
  7  8  1  0  0  0  0
  7  9  1  0  0  0  0
  7 10  1  0  0  0  0
 10 11  1  0  0  0  0
  1 12  1  0  0  0  0
 10 12  1  0  0  0  0
 12 13  1  0  0  0  0
 12 14  1  0  0  0  0
 10 15  1  0  0  0  0
 15 16  1  0  0  0  0
M  END
> <VConfSearch Rank>
246

> <Conf_Id>
20

> <Delta U+W>
-0.483

> <U+W>
2.527

> <U>
4.508

> <W>
-1.981

> <W(PB)>
-3.712

> <W(SA)>
1.732

> <Valence>
14.705

> <Coulomb>
-10.687

> <VdW>
0.490

> <VdW6>
-3.745

> <VdW12>
4.235

> <Bond>
0.068

> <Angle>
3.901

> <Pdih>
10.737

> <Idih>
0.000

> <Tether>
0.000

$$$$
VeraChem MOL file


 16 16  0  0  0  0  0  0  0  0999 V2000     
   18.6908   18.3305   23.5863 C   0  0  0  0  0  0  0  0  0  0  0  0
   17.6944   17.9500   23.3216 H   0  0  0  0  0  0  0  0  0  0  0  0
   18.7807   18.3274   24.6811 H   0  0  0  0  0  0  0  0  0  0  0  0
   18.8829   19.7301   22.9864 C   0  0  0  0  0  0  0  0  0  0  0  0
   17.9727   20.3416   23.0520 H   0  0  0  0  0  0  0  0  0  0  0  0
   19.6880   20.2539   23.5204 H   0  0  0  0  0  0  0  0  0  0  0  0
   19.3087   19.4676   21.5302 C   0  0  0  0  0  0  0  0  0  0  0  0
   19.9494   20.2728   21.1483 H   0  0  0  0  0  0  0  0  0  0  0  0
   18.4146   19.4171   20.8939 H   0  0  0  0  0  0  0  0  0  0  0  0
   20.0427   18.1100   21.5297 C   0  0  0  0  0  0  0  0  0  0  0  0
   21.1246   18.2672   21.4105 H   0  0  0  0  0  0  0  0  0  0  0  0
   19.7696   17.4680   22.9056 C   0  0  0  0  0  0  0  0  0  0  0  0
   19.4549   16.4193   22.8211 H   0  0  0  0  0  0  0  0  0  0  0  0
   20.6913   17.4928   23.5014 H   0  0  0  0  0  0  0  0  0  0  0  0
   19.5372   17.2790   20.4915 O   0  0  0  0  0  0  0  0  0  0  0  0
   19.7271   17.7382   19.6462 H   0  0  0  0  0  0  0  0  0  0  0  0
  1  2  1  0  0  0  0
  1  3  1  0  0  0  0
  1  4  1  0  0  0  0
  4  5  1  0  0  0  0
  4  6  1  0  0  0  0
  4  7  1  0  0  0  0
  7  8  1  0  0  0  0
  7  9  1  0  0  0  0
  7 10  1  0  0  0  0
 10 11  1  0  0  0  0
  1 12  1  0  0  0  0
 10 12  1  0  0  0  0
 12 13  1  0  0  0  0
 12 14  1  0  0  0  0
 10 15  1  0  0  0  0
 15 16  1  0  0  0  0
M  END
> <VConfSearch Rank>
247

> <Conf_Id>
59

> <Delta U+W>
0.000

> <U+W>
3.010

> <U>
5.843

> <W>
-2.833

> <W(PB)>
-4.568

> <W(SA)>
1.735

> <Valence>
13.789

> <Coulomb>
-8.574

> <VdW>
0.628

> <VdW6>
-3.284

> <VdW12>
3.912

> <Bond>
0.054

> <Angle>
4.034

> <Pdih>
9.702

> <Idih>
0.000

> <Tether>
0.000

$$$$
VeraChem MOL file


 16 16  0  0  0  0  0  0  0  0999 V2000     
   18.3610   19.5285   22.4671 C   0  0  0  0  0  0  0  0  0  0  0  0
   18.0590   20.3461   23.1357 H   0  0  0  0  0  0  0  0  0  0  0  0
   17.6512   19.4901   21.6290 H   0  0  0  0  0  0  0  0  0  0  0  0
   18.3902   18.1704   23.1816 C   0  0  0  0  0  0  0  0  0  0  0  0
   18.7974   18.2959   24.1945 H   0  0  0  0  0  0  0  0  0  0  0  0
   17.3923   17.7189   23.2653 H   0  0  0  0  0  0  0  0  0  0  0  0
   19.3543   17.3134   22.3407 C   0  0  0  0  0  0  0  0  0  0  0  0
   18.7919   16.7845   21.5602 H   0  0  0  0  0  0  0  0  0  0  0  0
   19.8642   16.5587   22.9542 H   0  0  0  0  0  0  0  0  0  0  0  0
   20.3434   18.2910   21.6730 C   0  0  0  0  0  0  0  0  0  0  0  0
   20.3785   18.0906   20.5922 H   0  0  0  0  0  0  0  0  0  0  0  0
   19.7923   19.7096   21.9296 C   0  0  0  0  0  0  0  0  0  0  0  0
   20.4018   20.2238   22.6851 H   0  0  0  0  0  0  0  0  0  0  0  0
   19.8037   20.3181   21.0161 H   0  0  0  0  0  0  0  0  0  0  0  0
   21.6353   18.1539   22.2527 O   0  0  0  0  0  0  0  0  0  0  0  0
   22.2163   18.8022   21.8014 H   0  0  0  0  0  0  0  0  0  0  0  0
  1  2  1  0  0  0  0
  1  3  1  0  0  0  0
  1  4  1  0  0  0  0
  4  5  1  0  0  0  0
  4  6  1  0  0  0  0
  4  7  1  0  0  0  0
  7  8  1  0  0  0  0
  7  9  1  0  0  0  0
  7 10  1  0  0  0  0
 10 11  1  0  0  0  0
  1 12  1  0  0  0  0
 10 12  1  0  0  0  0
 12 13  1  0  0  0  0
 12 14  1  0  0  0  0
 10 15  1  0  0  0  0
 15 16  1  0  0  0  0
M  END
> <VConfSearch Rank>
248

> <Conf_Id>
33

> <Delta U+W>
0.015

> <U+W>
3.025

> <U>
5.843

> <W>
-2.819

> <W(PB)>
-4.568

> <W(SA)>
1.750

> <Valence>
13.789

> <Coulomb>
-8.574

> <VdW>
0.628

> <VdW6>
-3.284

> <VdW12>
3.913

> <Bond>
0.054

> <Angle>
4.033

> <Pdih>
9.702

> <Idih>
0.000

> <Tether>
0.000

$$$$
VeraChem MOL file


 16 16  0  0  0  0  0  0  0  0999 V2000     
   19.1500   19.1623   21.0631 C   0  0  0  0  0  0  0  0  0  0  0  0
   18.1699   19.6502   20.9702 H   0  0  0  0  0  0  0  0  0  0  0  0
   19.6797   19.2942   20.1097 H   0  0  0  0  0  0  0  0  0  0  0  0
   18.9625   17.6683   21.4066 C   0  0  0  0  0  0  0  0  0  0  0  0
   17.8917   17.4330   21.4789 H   0  0  0  0  0  0  0  0  0  0  0  0
   19.3950   17.0187   20.6333 H   0  0  0  0  0  0  0  0  0  0  0  0
   19.6511   17.4428   22.7694 C   0  0  0  0  0  0  0  0  0  0  0  0
   20.6580   17.0353   22.6087 H   0  0  0  0  0  0  0  0  0  0  0  0
   19.1006   16.7334   23.4016 H   0  0  0  0  0  0  0  0  0  0  0  0
   19.7720   18.8279   23.4190 C   0  0  0  0  0  0  0  0  0  0  0  0
   20.6277   18.8786   24.1076 H   0  0  0  0  0  0  0  0  0  0  0  0
   19.9459   19.7831   22.2307 C   0  0  0  0  0  0  0  0  0  0  0  0
   19.6137   20.8033   22.4650 H   0  0  0  0  0  0  0  0  0  0  0  0
   21.0101   19.8311   21.9646 H   0  0  0  0  0  0  0  0  0  0  0  0
   18.5604   19.1356   24.0930 O   0  0  0  0  0  0  0  0  0  0  0  0
   17.8633   19.0659   23.4086 H   0  0  0  0  0  0  0  0  0  0  0  0
  1  2  1  0  0  0  0
  1  3  1  0  0  0  0
  1  4  1  0  0  0  0
  4  5  1  0  0  0  0
  4  6  1  0  0  0  0
  4  7  1  0  0  0  0
  7  8  1  0  0  0  0
  7  9  1  0  0  0  0
  7 10  1  0  0  0  0
 10 11  1  0  0  0  0
  1 12  1  0  0  0  0
 10 12  1  0  0  0  0
 12 13  1  0  0  0  0
 12 14  1  0  0  0  0
 10 15  1  0  0  0  0
 15 16  1  0  0  0  0
M  END
> <VConfSearch Rank>
249

> <Conf_Id>
20

> <Delta U+W>
-0.483

> <U+W>
2.527

> <U>
4.508

> <W>
-1.981

> <W(PB)>
-3.712

> <W(SA)>
1.732

> <Valence>
14.705

> <Coulomb>
-10.687

> <VdW>
0.490

> <VdW6>
-3.745

> <VdW12>
4.235

> <Bond>
0.068

> <Angle>
3.901

> <Pdih>
10.737

> <Idih>
0.000

> <Tether>
0.000

$$$$
VeraChem MOL file


 16 16  0  0  0  0  0  0  0  0999 V2000     
   20.3377   19.6137   22.4910 C   0  0  0  0  0  0  0  0  0  0  0  0
   20.1025   20.3514   21.7111 H   0  0  0  0  0  0  0  0  0  0  0  0
   21.1625   20.0080   23.1000 H   0  0  0  0  0  0  0  0  0  0  0  0
   20.6820   18.2677   21.8388 C   0  0  0  0  0  0  0  0  0  0  0  0
   21.2837   18.3866   20.9274 H   0  0  0  0  0  0  0  0  0  0  0  0
   21.2498   17.6483   22.5470 H   0  0  0  0  0  0  0  0  0  0  0  0
   19.3150   17.6174   21.5577 C   0  0  0  0  0  0  0  0  0  0  0  0
   19.3789   16.5220   21.5841 H   0  0  0  0  0  0  0  0  0  0  0  0
   18.9719   17.9114   20.5563 H   0  0  0  0  0  0  0  0  0  0  0  0
   18.3480   18.1554   22.6335 C   0  0  0  0  0  0  0  0  0  0  0  0
   18.1351   17.3709   23.3743 H   0  0  0  0  0  0  0  0  0  0  0  0
   19.0762   19.3259   23.3259 C   0  0  0  0  0  0  0  0  0  0  0  0
   18.4403   20.2166   23.4177 H   0  0  0  0  0  0  0  0  0  0  0  0
   19.3670   19.0178   24.3386 H   0  0  0  0  0  0  0  0  0  0  0  0
   17.1459   18.6151   22.0273 O   0  0  0  0  0  0  0  0  0  0  0  0
   16.7332   17.8373   21.5958 H   0  0  0  0  0  0  0  0  0  0  0  0
  1  2  1  0  0  0  0
  1  3  1  0  0  0  0
  1  4  1  0  0  0  0
  4  5  1  0  0  0  0
  4  6  1  0  0  0  0
  4  7  1  0  0  0  0
  7  8  1  0  0  0  0
  7  9  1  0  0  0  0
  7 10  1  0  0  0  0
 10 11  1  0  0  0  0
  1 12  1  0  0  0  0
 10 12  1  0  0  0  0
 12 13  1  0  0  0  0
 12 14  1  0  0  0  0
 10 15  1  0  0  0  0
 15 16  1  0  0  0  0
M  END
> <VConfSearch Rank>
250

> <Conf_Id>
59

> <Delta U+W>
0.000

> <U+W>
3.010

> <U>
5.843

> <W>
-2.833

> <W(PB)>
-4.568

> <W(SA)>
1.735

> <Valence>
13.789

> <Coulomb>
-8.574

> <VdW>
0.628

> <VdW6>
-3.284

> <VdW12>
3.912

> <Bond>
0.054

> <Angle>
4.034

> <Pdih>
9.702

> <Idih>
0.000

> <Tether>
0.000

$$$$
VeraChem MOL file


 16 16  0  0  0  0  0  0  0  0999 V2000     
   19.2495   18.0069   21.0067 C   0  0  0  0  0  0  0  0  0  0  0  0
   18.4350   17.5782   20.4070 H   0  0  0  0  0  0  0  0  0  0  0  0
   20.1432   18.0783   20.3712 H   0  0  0  0  0  0  0  0  0  0  0  0
   19.5658   17.1636   22.2495 C   0  0  0  0  0  0  0  0  0  0  0  0
   18.6303   16.7921   22.6904 H   0  0  0  0  0  0  0  0  0  0  0  0
   20.2044   16.3000   22.0191 H   0  0  0  0  0  0  0  0  0  0  0  0
   20.2388   18.1491   23.2227 C   0  0  0  0  0  0  0  0  0  0  0  0
   21.3243   18.1447   23.0594 H   0  0  0  0  0  0  0  0  0  0  0  0
   20.0575   17.8709   24.2695 H   0  0  0  0  0  0  0  0  0  0  0  0
   19.6849   19.5486   22.8843 C   0  0  0  0  0  0  0  0  0  0  0  0
   20.5230   20.2466   22.7431 H   0  0  0  0  0  0  0  0  0  0  0  0
   18.8960   19.3969   21.5666 C   0  0  0  0  0  0  0  0  0  0  0  0
   17.8161   19.4461   21.7616 H   0  0  0  0  0  0  0  0  0  0  0  0
   19.1463   20.1923   20.8528 H   0  0  0  0  0  0  0  0  0  0  0  0
   18.8236   19.9995   23.9229 O   0  0  0  0  0  0  0  0  0  0  0  0
   18.4940   20.8823   23.6516 H   0  0  0  0  0  0  0  0  0  0  0  0
  1  2  1  0  0  0  0
  1  3  1  0  0  0  0
  1  4  1  0  0  0  0
  4  5  1  0  0  0  0
  4  6  1  0  0  0  0
  4  7  1  0  0  0  0
  7  8  1  0  0  0  0
  7  9  1  0  0  0  0
  7 10  1  0  0  0  0
 10 11  1  0  0  0  0
  1 12  1  0  0  0  0
 10 12  1  0  0  0  0
 12 13  1  0  0  0  0
 12 14  1  0  0  0  0
 10 15  1  0  0  0  0
 15 16  1  0  0  0  0
M  END
> <VConfSearch Rank>
251

> <Conf_Id>
33

> <Delta U+W>
0.015

> <U+W>
3.025

> <U>
5.843

> <W>
-2.819

> <W(PB)>
-4.568

> <W(SA)>
1.750

> <Valence>
13.789

> <Coulomb>
-8.574

> <VdW>
0.628

> <VdW6>
-3.284

> <VdW12>
3.913

> <Bond>
0.054

> <Angle>
4.033

> <Pdih>
9.702

> <Idih>
0.000

> <Tether>
0.000

$$$$
VeraChem MOL file


 16 16  0  0  0  0  0  0  0  0999 V2000     
   20.2262   18.2920   21.2760 C   0  0  0  0  0  0  0  0  0  0  0  0
   20.6410   19.1562   20.7391 H   0  0  0  0  0  0  0  0  0  0  0  0
   20.6645   17.3852   20.8370 H   0  0  0  0  0  0  0  0  0  0  0  0
   18.6862   18.2917   21.1605 C   0  0  0  0  0  0  0  0  0  0  0  0
   18.3558   19.1552   20.5668 H   0  0  0  0  0  0  0  0  0  0  0  0
   18.3188   17.3842   20.6620 H   0  0  0  0  0  0  0  0  0  0  0  0
   18.1393   18.3939   22.6002 C   0  0  0  0  0  0  0  0  0  0  0  0
   17.8753   17.3922   22.9643 H   0  0  0  0  0  0  0  0  0  0  0  0
   17.2385   19.0192   22.6599 H   0  0  0  0  0  0  0  0  0  0  0  0
   19.2886   18.9473   23.4533 C   0  0  0  0  0  0  0  0  0  0  0  0
   19.2100   18.6194   24.4998 H   0  0  0  0  0  0  0  0  0  0  0  0
   20.5521   18.3932   22.7813 C   0  0  0  0  0  0  0  0  0  0  0  0
   21.4344   19.0176   22.9752 H   0  0  0  0  0  0  0  0  0  0  0  0
   20.7578   17.3911   23.1802 H   0  0  0  0  0  0  0  0  0  0  0  0
   19.2957   20.3647   23.3656 O   0  0  0  0  0  0  0  0  0  0  0  0
   19.3675   20.5605   22.4087 H   0  0  0  0  0  0  0  0  0  0  0  0
  1  2  1  0  0  0  0
  1  3  1  0  0  0  0
  1  4  1  0  0  0  0
  4  5  1  0  0  0  0
  4  6  1  0  0  0  0
  4  7  1  0  0  0  0
  7  8  1  0  0  0  0
  7  9  1  0  0  0  0
  7 10  1  0  0  0  0
 10 11  1  0  0  0  0
  1 12  1  0  0  0  0
 10 12  1  0  0  0  0
 12 13  1  0  0  0  0
 12 14  1  0  0  0  0
 10 15  1  0  0  0  0
 15 16  1  0  0  0  0
M  END
> <VConfSearch Rank>
252

> <Conf_Id>
20

> <Delta U+W>
-0.483

> <U+W>
2.527

> <U>
4.508

> <W>
-1.981

> <W(PB)>
-3.712

> <W(SA)>
1.732

> <Valence>
14.705

> <Coulomb>
-10.687

> <VdW>
0.490

> <VdW6>
-3.745

> <VdW12>
4.235

> <Bond>
0.068

> <Angle>
3.901

> <Pdih>
10.737

> <Idih>
0.000

> <Tether>
0.000

$$$$
VeraChem MOL file


 16 16  0  0  0  0  0  0  0  0999 V2000     
   20.0663   19.8007   22.5556 C   0  0  0  0  0  0  0  0  0  0  0  0
   19.2784   20.5435   22.7428 H   0  0  0  0  0  0  0  0  0  0  0  0
   21.0402   20.2922   22.6840 H   0  0  0  0  0  0  0  0  0  0  0  0
   19.8900   19.2066   21.1514 C   0  0  0  0  0  0  0  0  0  0  0  0
   19.5936   19.9629   20.4118 H   0  0  0  0  0  0  0  0  0  0  0  0
   20.8350   18.7540   20.8202 H   0  0  0  0  0  0  0  0  0  0  0  0
   18.8224   18.1117   21.3299 C   0  0  0  0  0  0  0  0  0  0  0  0
   18.9551   17.2998   20.6032 H   0  0  0  0  0  0  0  0  0  0  0  0
   17.8261   18.5465   21.1718 H   0  0  0  0  0  0  0  0  0  0  0  0
   18.9597   17.6028   22.7804 C   0  0  0  0  0  0  0  0  0  0  0  0
   19.4267   16.6071   22.7873 H   0  0  0  0  0  0  0  0  0  0  0  0
   19.8825   18.6034   23.5064 C   0  0  0  0  0  0  0  0  0  0  0  0
   19.4757   18.9168   24.4771 H   0  0  0  0  0  0  0  0  0  0  0  0
   20.8539   18.1262   23.6900 H   0  0  0  0  0  0  0  0  0  0  0  0
   17.6846   17.5653   23.4103 O   0  0  0  0  0  0  0  0  0  0  0  0
   17.1396   16.9262   22.9042 H   0  0  0  0  0  0  0  0  0  0  0  0
  1  2  1  0  0  0  0
  1  3  1  0  0  0  0
  1  4  1  0  0  0  0
  4  5  1  0  0  0  0
  4  6  1  0  0  0  0
  4  7  1  0  0  0  0
  7  8  1  0  0  0  0
  7  9  1  0  0  0  0
  7 10  1  0  0  0  0
 10 11  1  0  0  0  0
  1 12  1  0  0  0  0
 10 12  1  0  0  0  0
 12 13  1  0  0  0  0
 12 14  1  0  0  0  0
 10 15  1  0  0  0  0
 15 16  1  0  0  0  0
M  END
> <VConfSearch Rank>
253

> <Conf_Id>
59

> <Delta U+W>
0.000

> <U+W>
3.010

> <U>
5.843

> <W>
-2.833

> <W(PB)>
-4.568

> <W(SA)>
1.735

> <Valence>
13.789

> <Coulomb>
-8.574

> <VdW>
0.628

> <VdW6>
-3.284

> <VdW12>
3.912

> <Bond>
0.054

> <Angle>
4.034

> <Pdih>
9.702

> <Idih>
0.000

> <Tether>
0.000

$$$$
VeraChem MOL file


 16 16  0  0  0  0  0  0  0  0999 V2000     
   18.3362   18.5059   23.1891 C   0  0  0  0  0  0  0  0  0  0  0  0
   17.2404   18.4384   23.1506 H   0  0  0  0  0  0  0  0  0  0  0  0
   18.6549   18.3320   24.2263 H   0  0  0  0  0  0  0  0  0  0  0  0
   18.8543   19.8694   22.7114 C   0  0  0  0  0  0  0  0  0  0  0  0
   18.2644   20.2054   21.8472 H   0  0  0  0  0  0  0  0  0  0  0  0
   18.7902   20.6395   23.4922 H   0  0  0  0  0  0  0  0  0  0  0  0
   20.3047   19.5978   22.2715 C   0  0  0  0  0  0  0  0  0  0  0  0
   20.9817   19.7447   23.1232 H   0  0  0  0  0  0  0  0  0  0  0  0
   20.6199   20.2823   21.4727 H   0  0  0  0  0  0  0  0  0  0  0  0
   20.3618   18.1200   21.8327 C   0  0  0  0  0  0  0  0  0  0  0  0
   21.1932   17.6193   22.3499 H   0  0  0  0  0  0  0  0  0  0  0  0
   19.0190   17.4885   22.2568 C   0  0  0  0  0  0  0  0  0  0  0  0
   18.3836   17.3185   21.3769 H   0  0  0  0  0  0  0  0  0  0  0  0
   19.1674   16.5228   22.7570 H   0  0  0  0  0  0  0  0  0  0  0  0
   20.5212   18.0331   20.4217 O   0  0  0  0  0  0  0  0  0  0  0  0
   20.5397   17.0783   20.1990 H   0  0  0  0  0  0  0  0  0  0  0  0
  1  2  1  0  0  0  0
  1  3  1  0  0  0  0
  1  4  1  0  0  0  0
  4  5  1  0  0  0  0
  4  6  1  0  0  0  0
  4  7  1  0  0  0  0
  7  8  1  0  0  0  0
  7  9  1  0  0  0  0
  7 10  1  0  0  0  0
 10 11  1  0  0  0  0
  1 12  1  0  0  0  0
 10 12  1  0  0  0  0
 12 13  1  0  0  0  0
 12 14  1  0  0  0  0
 10 15  1  0  0  0  0
 15 16  1  0  0  0  0
M  END
> <VConfSearch Rank>
254

> <Conf_Id>
33

> <Delta U+W>
0.015

> <U+W>
3.025

> <U>
5.843

> <W>
-2.819

> <W(PB)>
-4.568

> <W(SA)>
1.750

> <Valence>
13.789

> <Coulomb>
-8.574

> <VdW>
0.628

> <VdW6>
-3.284

> <VdW12>
3.913

> <Bond>
0.054

> <Angle>
4.033

> <Pdih>
9.702

> <Idih>
0.000

> <Tether>
0.000

$$$$
VeraChem MOL file


 16 16  0  0  0  0  0  0  0  0999 V2000     
   20.5019   18.0479   21.8041 C   0  0  0  0  0  0  0  0  0  0  0  0
   21.1341   17.6056   22.5863 H   0  0  0  0  0  0  0  0  0  0  0  0
   20.9956   17.8736   20.8383 H   0  0  0  0  0  0  0  0  0  0  0  0
   20.3055   19.5551   22.0776 C   0  0  0  0  0  0  0  0  0  0  0  0
   20.8435   19.8424   22.9915 H   0  0  0  0  0  0  0  0  0  0  0  0
   20.6955   20.1692   21.2543 H   0  0  0  0  0  0  0  0  0  0  0  0
   18.7884   19.7725   22.2613 C   0  0  0  0  0  0  0  0  0  0  0  0
   18.3521   20.1287   21.3188 H   0  0  0  0  0  0  0  0  0  0  0  0
   18.5656   20.5187   23.0357 H   0  0  0  0  0  0  0  0  0  0  0  0
   18.1989   18.3954   22.5944 C   0  0  0  0  0  0  0  0  0  0  0  0
   17.1495   18.3166   22.2756 H   0  0  0  0  0  0  0  0  0  0  0  0
   19.0961   17.4114   21.8317 C   0  0  0  0  0  0  0  0  0  0  0  0
   19.1003   16.4126   22.2882 H   0  0  0  0  0  0  0  0  0  0  0  0
   18.7200   17.3080   20.8053 H   0  0  0  0  0  0  0  0  0  0  0  0
   18.3240   18.1579   23.9889 O   0  0  0  0  0  0  0  0  0  0  0  0
   19.2807   18.2482   24.1779 H   0  0  0  0  0  0  0  0  0  0  0  0
  1  2  1  0  0  0  0
  1  3  1  0  0  0  0
  1  4  1  0  0  0  0
  4  5  1  0  0  0  0
  4  6  1  0  0  0  0
  4  7  1  0  0  0  0
  7  8  1  0  0  0  0
  7  9  1  0  0  0  0
  7 10  1  0  0  0  0
 10 11  1  0  0  0  0
  1 12  1  0  0  0  0
 10 12  1  0  0  0  0
 12 13  1  0  0  0  0
 12 14  1  0  0  0  0
 10 15  1  0  0  0  0
 15 16  1  0  0  0  0
M  END
> <VConfSearch Rank>
255

> <Conf_Id>
20

> <Delta U+W>
-0.483

> <U+W>
2.527

> <U>
4.508

> <W>
-1.981

> <W(PB)>
-3.712

> <W(SA)>
1.732

> <Valence>
14.705

> <Coulomb>
-10.687

> <VdW>
0.490

> <VdW6>
-3.745

> <VdW12>
4.235

> <Bond>
0.068

> <Angle>
3.901

> <Pdih>
10.737

> <Idih>
0.000

> <Tether>
0.000

$$$$
VeraChem MOL file


 16 16  0  0  0  0  0  0  0  0999 V2000     
   18.1516   17.8994   22.7930 C   0  0  0  0  0  0  0  0  0  0  0  0
   18.4937   17.2139   23.5809 H   0  0  0  0  0  0  0  0  0  0  0  0
   17.0558   17.8433   22.7401 H   0  0  0  0  0  0  0  0  0  0  0  0
   18.8224   17.5299   21.4629 C   0  0  0  0  0  0  0  0  0  0  0  0
   18.8958   16.4432   21.3195 H   0  0  0  0  0  0  0  0  0  0  0  0
   18.2431   17.9483   20.6280 H   0  0  0  0  0  0  0  0  0  0  0  0
   20.2037   18.2067   21.5295 C   0  0  0  0  0  0  0  0  0  0  0  0
   20.5699   18.4702   20.5288 H   0  0  0  0  0  0  0  0  0  0  0  0
   20.9263   17.5138   21.9816 H   0  0  0  0  0  0  0  0  0  0  0  0
   20.0331   19.4566   22.4184 C   0  0  0  0  0  0  0  0  0  0  0  0
   20.0474   20.3646   21.7979 H   0  0  0  0  0  0  0  0  0  0  0  0
   18.6532   19.3236   23.0950 C   0  0  0  0  0  0  0  0  0  0  0  0
   18.6984   19.5156   24.1754 H   0  0  0  0  0  0  0  0  0  0  0  0
   17.9661   20.0574   22.6541 H   0  0  0  0  0  0  0  0  0  0  0  0
   21.0596   19.5030   23.4024 O   0  0  0  0  0  0  0  0  0  0  0  0
   21.9096   19.5760   22.9189 H   0  0  0  0  0  0  0  0  0  0  0  0
  1  2  1  0  0  0  0
  1  3  1  0  0  0  0
  1  4  1  0  0  0  0
  4  5  1  0  0  0  0
  4  6  1  0  0  0  0
  4  7  1  0  0  0  0
  7  8  1  0  0  0  0
  7  9  1  0  0  0  0
  7 10  1  0  0  0  0
 10 11  1  0  0  0  0
  1 12  1  0  0  0  0
 10 12  1  0  0  0  0
 12 13  1  0  0  0  0
 12 14  1  0  0  0  0
 10 15  1  0  0  0  0
 15 16  1  0  0  0  0
M  END
> <VConfSearch Rank>
256

> <Conf_Id>
59

> <Delta U+W>
0.000

> <U+W>
3.010

> <U>
5.843

> <W>
-2.833

> <W(PB)>
-4.568

> <W(SA)>
1.735

> <Valence>
13.789

> <Coulomb>
-8.574

> <VdW>
0.628

> <VdW6>
-3.284

> <VdW12>
3.912

> <Bond>
0.054

> <Angle>
4.034

> <Pdih>
9.702

> <Idih>
0.000

> <Tether>
0.000

$$$$
VeraChem MOL file


 16 16  0  0  0  0  0  0  0  0999 V2000     
   20.4281   18.8969   23.3057 C   0  0  0  0  0  0  0  0  0  0  0  0
   21.2243   19.6246   23.5142 H   0  0  0  0  0  0  0  0  0  0  0  0
   20.2856   18.2774   24.2021 H   0  0  0  0  0  0  0  0  0  0  0  0
   20.7569   17.9995   22.1048 C   0  0  0  0  0  0  0  0  0  0  0  0
   21.2412   18.5973   21.3200 H   0  0  0  0  0  0  0  0  0  0  0  0
   21.4286   17.1720   22.3708 H   0  0  0  0  0  0  0  0  0  0  0  0
   19.3863   17.5065   21.6056 C   0  0  0  0  0  0  0  0  0  0  0  0
   19.1243   16.5694   22.1139 H   0  0  0  0  0  0  0  0  0  0  0  0
   19.3966   17.3086   20.5254 H   0  0  0  0  0  0  0  0  0  0  0  0
   18.3608   18.5922   21.9922 C   0  0  0  0  0  0  0  0  0  0  0  0
   17.5211   18.1249   22.5269 H   0  0  0  0  0  0  0  0  0  0  0  0
   19.0995   19.5753   22.9247 C   0  0  0  0  0  0  0  0  0  0  0  0
   19.3098   20.5155   22.3969 H   0  0  0  0  0  0  0  0  0  0  0  0
   18.5017   19.8142   23.8138 H   0  0  0  0  0  0  0  0  0  0  0  0
   17.9020   19.2701   20.8286 O   0  0  0  0  0  0  0  0  0  0  0  0
   17.2659   19.9516   21.1327 H   0  0  0  0  0  0  0  0  0  0  0  0
  1  2  1  0  0  0  0
  1  3  1  0  0  0  0
  1  4  1  0  0  0  0
  4  5  1  0  0  0  0
  4  6  1  0  0  0  0
  4  7  1  0  0  0  0
  7  8  1  0  0  0  0
  7  9  1  0  0  0  0
  7 10  1  0  0  0  0
 10 11  1  0  0  0  0
  1 12  1  0  0  0  0
 10 12  1  0  0  0  0
 12 13  1  0  0  0  0
 12 14  1  0  0  0  0
 10 15  1  0  0  0  0
 15 16  1  0  0  0  0
M  END
> <VConfSearch Rank>
257

> <Conf_Id>
33

> <Delta U+W>
0.015

> <U+W>
3.025

> <U>
5.843

> <W>
-2.819

> <W(PB)>
-4.568

> <W(SA)>
1.750

> <Valence>
13.789

> <Coulomb>
-8.574

> <VdW>
0.628

> <VdW6>
-3.284

> <VdW12>
3.913

> <Bond>
0.054

> <Angle>
4.033

> <Pdih>
9.702

> <Idih>
0.000

> <Tether>
0.000

$$$$
VeraChem MOL file


 16 16  0  0  0  0  0  0  0  0999 V2000     
   19.4907   17.8541   21.1625 C   0  0  0  0  0  0  0  0  0  0  0  0
   18.6054   17.8661   20.5119 H   0  0  0  0  0  0  0  0  0  0  0  0
   20.2435   17.2090   20.6889 H   0  0  0  0  0  0  0  0  0  0  0  0
   19.1040   17.3394   22.5662 C   0  0  0  0  0  0  0  0  0  0  0  0
   18.0318   17.1013   22.5948 H   0  0  0  0  0  0  0  0  0  0  0  0
   19.6553   16.4257   22.8274 H   0  0  0  0  0  0  0  0  0  0  0  0
   19.4232   18.4814   23.5543 C   0  0  0  0  0  0  0  0  0  0  0  0
   20.4021   18.3023   24.0182 H   0  0  0  0  0  0  0  0  0  0  0  0
   18.6802   18.5547   24.3597 H   0  0  0  0  0  0  0  0  0  0  0  0
   19.4972   19.7629   22.7134 C   0  0  0  0  0  0  0  0  0  0  0  0
   20.1630   20.5090   23.1705 H   0  0  0  0  0  0  0  0  0  0  0  0
   20.0301   19.2873   21.3552 C   0  0  0  0  0  0  0  0  0  0  0  0
   19.7361   19.9564   20.5355 H   0  0  0  0  0  0  0  0  0  0  0  0
   21.1273   19.2647   21.3908 H   0  0  0  0  0  0  0  0  0  0  0  0
   18.1884   20.2877   22.5445 O   0  0  0  0  0  0  0  0  0  0  0  0
   17.6734   19.5616   22.1362 H   0  0  0  0  0  0  0  0  0  0  0  0
  1  2  1  0  0  0  0
  1  3  1  0  0  0  0
  1  4  1  0  0  0  0
  4  5  1  0  0  0  0
  4  6  1  0  0  0  0
  4  7  1  0  0  0  0
  7  8  1  0  0  0  0
  7  9  1  0  0  0  0
  7 10  1  0  0  0  0
 10 11  1  0  0  0  0
  1 12  1  0  0  0  0
 10 12  1  0  0  0  0
 12 13  1  0  0  0  0
 12 14  1  0  0  0  0
 10 15  1  0  0  0  0
 15 16  1  0  0  0  0
M  END
> <VConfSearch Rank>
258

> <Conf_Id>
20

> <Delta U+W>
-0.483

> <U+W>
2.527

> <U>
4.508

> <W>
-1.981

> <W(PB)>
-3.712

> <W(SA)>
1.732

> <Valence>
14.705

> <Coulomb>
-10.687

> <VdW>
0.490

> <VdW6>
-3.745

> <VdW12>
4.235

> <Bond>
0.068

> <Angle>
3.901

> <Pdih>
10.737

> <Idih>
0.000

> <Tether>
0.000

$$$$
VeraChem MOL file


 16 16  0  0  0  0  0  0  0  0999 V2000     
   20.1008   19.0801   23.4479 C   0  0  0  0  0  0  0  0  0  0  0  0
   20.7217   19.8858   23.0319 H   0  0  0  0  0  0  0  0  0  0  0  0
   20.2581   19.0507   24.5346 H   0  0  0  0  0  0  0  0  0  0  0  0
   20.4586   17.7516   22.7676 C   0  0  0  0  0  0  0  0  0  0  0  0
   21.5388   17.6468   22.5975 H   0  0  0  0  0  0  0  0  0  0  0  0
   20.1268   16.9134   23.3960 H   0  0  0  0  0  0  0  0  0  0  0  0
   19.6571   17.7663   21.4531 C   0  0  0  0  0  0  0  0  0  0  0  0
   19.4000   16.7497   21.1287 H   0  0  0  0  0  0  0  0  0  0  0  0
   20.2637   18.2294   20.6629 H   0  0  0  0  0  0  0  0  0  0  0  0
   18.3947   18.6120   21.7229 C   0  0  0  0  0  0  0  0  0  0  0  0
   17.5136   17.9584   21.8017 H   0  0  0  0  0  0  0  0  0  0  0  0
   18.6264   19.3198   23.0738 C   0  0  0  0  0  0  0  0  0  0  0  0
   18.3898   20.3913   23.0290 H   0  0  0  0  0  0  0  0  0  0  0  0
   17.9754   18.8658   23.8322 H   0  0  0  0  0  0  0  0  0  0  0  0
   18.2176   19.5733   20.6893 O   0  0  0  0  0  0  0  0  0  0  0  0
   18.0864   19.0710   19.8574 H   0  0  0  0  0  0  0  0  0  0  0  0
  1  2  1  0  0  0  0
  1  3  1  0  0  0  0
  1  4  1  0  0  0  0
  4  5  1  0  0  0  0
  4  6  1  0  0  0  0
  4  7  1  0  0  0  0
  7  8  1  0  0  0  0
  7  9  1  0  0  0  0
  7 10  1  0  0  0  0
 10 11  1  0  0  0  0
  1 12  1  0  0  0  0
 10 12  1  0  0  0  0
 12 13  1  0  0  0  0
 12 14  1  0  0  0  0
 10 15  1  0  0  0  0
 15 16  1  0  0  0  0
M  END
> <VConfSearch Rank>
259

> <Conf_Id>
59

> <Delta U+W>
0.000

> <U+W>
3.010

> <U>
5.843

> <W>
-2.833

> <W(PB)>
-4.568

> <W(SA)>
1.735

> <Valence>
13.789

> <Coulomb>
-8.574

> <VdW>
0.628

> <VdW6>
-3.284

> <VdW12>
3.912

> <Bond>
0.054

> <Angle>
4.034

> <Pdih>
9.702

> <Idih>
0.000

> <Tether>
0.000

$$$$
VeraChem MOL file


 16 16  0  0  0  0  0  0  0  0999 V2000     
   18.2034   18.5045   22.9923 C   0  0  0  0  0  0  0  0  0  0  0  0
   17.1428   18.3136   22.7788 H   0  0  0  0  0  0  0  0  0  0  0  0
   18.3397   18.5050   24.0827 H   0  0  0  0  0  0  0  0  0  0  0  0
   18.6846   19.8412   22.4113 C   0  0  0  0  0  0  0  0  0  0  0  0
   18.2374   19.9938   21.4191 H   0  0  0  0  0  0  0  0  0  0  0  0
   18.4142   20.6961   23.0458 H   0  0  0  0  0  0  0  0  0  0  0  0
   20.2087   19.6733   22.2696 C   0  0  0  0  0  0  0  0  0  0  0  0
   20.7031   20.0042   23.1922 H   0  0  0  0  0  0  0  0  0  0  0  0
   20.6068   20.2764   21.4427 H   0  0  0  0  0  0  0  0  0  0  0  0
   20.4686   18.1655   22.0726 C   0  0  0  0  0  0  0  0  0  0  0  0
   21.2299   17.8310   22.7925 H   0  0  0  0  0  0  0  0  0  0  0  0
   19.1283   17.4533   22.3520 C   0  0  0  0  0  0  0  0  0  0  0  0
   18.6817   17.1004   21.4125 H   0  0  0  0  0  0  0  0  0  0  0  0
   19.2626   16.5841   23.0088 H   0  0  0  0  0  0  0  0  0  0  0  0
   20.8911   17.9108   20.7383 O   0  0  0  0  0  0  0  0  0  0  0  0
   21.0298   16.9427   20.6672 H   0  0  0  0  0  0  0  0  0  0  0  0
  1  2  1  0  0  0  0
  1  3  1  0  0  0  0
  1  4  1  0  0  0  0
  4  5  1  0  0  0  0
  4  6  1  0  0  0  0
  4  7  1  0  0  0  0
  7  8  1  0  0  0  0
  7  9  1  0  0  0  0
  7 10  1  0  0  0  0
 10 11  1  0  0  0  0
  1 12  1  0  0  0  0
 10 12  1  0  0  0  0
 12 13  1  0  0  0  0
 12 14  1  0  0  0  0
 10 15  1  0  0  0  0
 15 16  1  0  0  0  0
M  END
> <VConfSearch Rank>
260

> <Conf_Id>
33

> <Delta U+W>
0.015

> <U+W>
3.025

> <U>
5.843

> <W>
-2.819

> <W(PB)>
-4.568

> <W(SA)>
1.750

> <Valence>
13.789

> <Coulomb>
-8.574

> <VdW>
0.628

> <VdW6>
-3.284

> <VdW12>
3.913

> <Bond>
0.054

> <Angle>
4.033

> <Pdih>
9.702

> <Idih>
0.000

> <Tether>
0.000

$$$$
VeraChem MOL file


 16 16  0  0  0  0  0  0  0  0999 V2000     
   19.4105   17.4229   22.8699 C   0  0  0  0  0  0  0  0  0  0  0  0
   18.6389   17.2905   23.6409 H   0  0  0  0  0  0  0  0  0  0  0  0
   19.9930   16.4929   22.8180 H   0  0  0  0  0  0  0  0  0  0  0  0
   20.3029   18.6331   23.2223 C   0  0  0  0  0  0  0  0  0  0  0  0
   19.9639   19.0856   24.1644 H   0  0  0  0  0  0  0  0  0  0  0  0
   21.3524   18.3362   23.3539 H   0  0  0  0  0  0  0  0  0  0  0  0
   20.1524   19.6404   22.0625 C   0  0  0  0  0  0  0  0  0  0  0  0
   20.9928   19.5252   21.3653 H   0  0  0  0  0  0  0  0  0  0  0  0
   20.1492   20.6812   22.4129 H   0  0  0  0  0  0  0  0  0  0  0  0
   18.8510   19.2661   21.3406 C   0  0  0  0  0  0  0  0  0  0  0  0
   18.8794   19.5544   20.2799 H   0  0  0  0  0  0  0  0  0  0  0  0
   18.7552   17.7439   21.5097 C   0  0  0  0  0  0  0  0  0  0  0  0
   17.7197   17.3832   21.4511 H   0  0  0  0  0  0  0  0  0  0  0  0
   19.3239   17.2593   20.7051 H   0  0  0  0  0  0  0  0  0  0  0  0
   17.7553   19.8802   22.0032 O   0  0  0  0  0  0  0  0  0  0  0  0
   17.8112   19.5688   22.9301 H   0  0  0  0  0  0  0  0  0  0  0  0
  1  2  1  0  0  0  0
  1  3  1  0  0  0  0
  1  4  1  0  0  0  0
  4  5  1  0  0  0  0
  4  6  1  0  0  0  0
  4  7  1  0  0  0  0
  7  8  1  0  0  0  0
  7  9  1  0  0  0  0
  7 10  1  0  0  0  0
 10 11  1  0  0  0  0
  1 12  1  0  0  0  0
 10 12  1  0  0  0  0
 12 13  1  0  0  0  0
 12 14  1  0  0  0  0
 10 15  1  0  0  0  0
 15 16  1  0  0  0  0
M  END
> <VConfSearch Rank>
261

> <Conf_Id>
20

> <Delta U+W>
-0.483

> <U+W>
2.527

> <U>
4.508

> <W>
-1.981

> <W(PB)>
-3.712

> <W(SA)>
1.732

> <Valence>
14.705

> <Coulomb>
-10.687

> <VdW>
0.490

> <VdW6>
-3.745

> <VdW12>
4.235

> <Bond>
0.068

> <Angle>
3.901

> <Pdih>
10.737

> <Idih>
0.000

> <Tether>
0.000

$$$$
VeraChem MOL file


 16 16  0  0  0  0  0  0  0  0999 V2000     
   20.6506   18.2030   22.8798 C   0  0  0  0  0  0  0  0  0  0  0  0
   20.8690   17.1996   22.4885 H   0  0  0  0  0  0  0  0  0  0  0  0
   21.5112   18.5346   23.4765 H   0  0  0  0  0  0  0  0  0  0  0  0
   19.3512   18.1651   23.6959 C   0  0  0  0  0  0  0  0  0  0  0  0
   19.2663   17.2545   24.3045 H   0  0  0  0  0  0  0  0  0  0  0  0
   19.3119   19.0330   24.3688 H   0  0  0  0  0  0  0  0  0  0  0  0
   18.2337   18.2719   22.6422 C   0  0  0  0  0  0  0  0  0  0  0  0
   17.3395   18.7575   23.0536 H   0  0  0  0  0  0  0  0  0  0  0  0
   17.9484   17.2638   22.3118 H   0  0  0  0  0  0  0  0  0  0  0  0
   18.8232   19.0741   21.4629 C   0  0  0  0  0  0  0  0  0  0  0  0
   18.4014   20.0897   21.4505 H   0  0  0  0  0  0  0  0  0  0  0  0
   20.3436   19.1569   21.7107 C   0  0  0  0  0  0  0  0  0  0  0  0
   20.9263   18.9003   20.8159 H   0  0  0  0  0  0  0  0  0  0  0  0
   20.6045   20.1845   21.9953 H   0  0  0  0  0  0  0  0  0  0  0  0
   18.5619   18.4053   20.2348 O   0  0  0  0  0  0  0  0  0  0  0  0
   17.5870   18.3717   20.1347 H   0  0  0  0  0  0  0  0  0  0  0  0
  1  2  1  0  0  0  0
  1  3  1  0  0  0  0
  1  4  1  0  0  0  0
  4  5  1  0  0  0  0
  4  6  1  0  0  0  0
  4  7  1  0  0  0  0
  7  8  1  0  0  0  0
  7  9  1  0  0  0  0
  7 10  1  0  0  0  0
 10 11  1  0  0  0  0
  1 12  1  0  0  0  0
 10 12  1  0  0  0  0
 12 13  1  0  0  0  0
 12 14  1  0  0  0  0
 10 15  1  0  0  0  0
 15 16  1  0  0  0  0
M  END
> <VConfSearch Rank>
262

> <Conf_Id>
59

> <Delta U+W>
0.000

> <U+W>
3.010

> <U>
5.843

> <W>
-2.833

> <W(PB)>
-4.568

> <W(SA)>
1.735

> <Valence>
13.789

> <Coulomb>
-8.574

> <VdW>
0.628

> <VdW6>
-3.284

> <VdW12>
3.912

> <Bond>
0.054

> <Angle>
4.034

> <Pdih>
9.702

> <Idih>
0.000

> <Tether>
0.000

$$$$
VeraChem MOL file


 16 16  0  0  0  0  0  0  0  0999 V2000     
   20.2924   17.6131   21.6957 C   0  0  0  0  0  0  0  0  0  0  0  0
   20.3872   17.0606   20.7510 H   0  0  0  0  0  0  0  0  0  0  0  0
   21.1769   17.3964   22.3107 H   0  0  0  0  0  0  0  0  0  0  0  0
   19.0212   17.2350   22.4683 C   0  0  0  0  0  0  0  0  0  0  0  0
   18.1871   17.1063   21.7645 H   0  0  0  0  0  0  0  0  0  0  0  0
   19.1380   16.3029   23.0377 H   0  0  0  0  0  0  0  0  0  0  0  0
   18.7472   18.4479   23.3764 C   0  0  0  0  0  0  0  0  0  0  0  0
   19.2588   18.3113   24.3380 H   0  0  0  0  0  0  0  0  0  0  0  0
   17.6749   18.5647   23.5824 H   0  0  0  0  0  0  0  0  0  0  0  0
   19.3430   19.6773   22.6599 C   0  0  0  0  0  0  0  0  0  0  0  0
   19.9968   20.2223   23.3564 H   0  0  0  0  0  0  0  0  0  0  0  0
   20.1699   19.1321   21.4763 C   0  0  0  0  0  0  0  0  0  0  0  0
   19.6481   19.3213   20.5283 H   0  0  0  0  0  0  0  0  0  0  0  0
   21.1564   19.6100   21.4193 H   0  0  0  0  0  0  0  0  0  0  0  0
   18.3008   20.5203   22.1835 O   0  0  0  0  0  0  0  0  0  0  0  0
   18.7339   21.2742   21.7301 H   0  0  0  0  0  0  0  0  0  0  0  0
  1  2  1  0  0  0  0
  1  3  1  0  0  0  0
  1  4  1  0  0  0  0
  4  5  1  0  0  0  0
  4  6  1  0  0  0  0
  4  7  1  0  0  0  0
  7  8  1  0  0  0  0
  7  9  1  0  0  0  0
  7 10  1  0  0  0  0
 10 11  1  0  0  0  0
  1 12  1  0  0  0  0
 10 12  1  0  0  0  0
 12 13  1  0  0  0  0
 12 14  1  0  0  0  0
 10 15  1  0  0  0  0
 15 16  1  0  0  0  0
M  END
> <VConfSearch Rank>
263

> <Conf_Id>
33

> <Delta U+W>
0.015

> <U+W>
3.025

> <U>
5.843

> <W>
-2.819

> <W(PB)>
-4.568

> <W(SA)>
1.750

> <Valence>
13.789

> <Coulomb>
-8.574

> <VdW>
0.628

> <VdW6>
-3.284

> <VdW12>
3.913

> <Bond>
0.054

> <Angle>
4.033

> <Pdih>
9.702

> <Idih>
0.000

> <Tether>
0.000

$$$$
VeraChem MOL file


 16 16  0  0  0  0  0  0  0  0999 V2000     
   19.9015   19.5548   23.0448 C   0  0  0  0  0  0  0  0  0  0  0  0
   20.3123   20.4180   22.5031 H   0  0  0  0  0  0  0  0  0  0  0  0
   20.0341   19.7417   24.1193 H   0  0  0  0  0  0  0  0  0  0  0  0
   20.6226   18.2637   22.5998 C   0  0  0  0  0  0  0  0  0  0  0  0
   21.3831   18.5022   21.8435 H   0  0  0  0  0  0  0  0  0  0  0  0
   21.1316   17.7747   23.4417 H   0  0  0  0  0  0  0  0  0  0  0  0
   19.5402   17.3438   21.9960 C   0  0  0  0  0  0  0  0  0  0  0  0
   19.2125   16.6178   22.7517 H   0  0  0  0  0  0  0  0  0  0  0  0
   19.9095   16.7800   21.1289 H   0  0  0  0  0  0  0  0  0  0  0  0
   18.3595   18.2558   21.6363 C   0  0  0  0  0  0  0  0  0  0  0  0
   17.4044   17.7119   21.6659 H   0  0  0  0  0  0  0  0  0  0  0  0
   18.4102   19.3661   22.6944 C   0  0  0  0  0  0  0  0  0  0  0  0
   17.9440   20.2965   22.3437 H   0  0  0  0  0  0  0  0  0  0  0  0
   17.8629   19.0338   23.5864 H   0  0  0  0  0  0  0  0  0  0  0  0
   18.5803   18.8224   20.3529 O   0  0  0  0  0  0  0  0  0  0  0  0
   19.4430   19.2807   20.4217 H   0  0  0  0  0  0  0  0  0  0  0  0
  1  2  1  0  0  0  0
  1  3  1  0  0  0  0
  1  4  1  0  0  0  0
  4  5  1  0  0  0  0
  4  6  1  0  0  0  0
  4  7  1  0  0  0  0
  7  8  1  0  0  0  0
  7  9  1  0  0  0  0
  7 10  1  0  0  0  0
 10 11  1  0  0  0  0
  1 12  1  0  0  0  0
 10 12  1  0  0  0  0
 12 13  1  0  0  0  0
 12 14  1  0  0  0  0
 10 15  1  0  0  0  0
 15 16  1  0  0  0  0
M  END
> <VConfSearch Rank>
264

> <Conf_Id>
20

> <Delta U+W>
-0.483

> <U+W>
2.527

> <U>
4.508

> <W>
-1.981

> <W(PB)>
-3.712

> <W(SA)>
1.732

> <Valence>
14.705

> <Coulomb>
-10.687

> <VdW>
0.490

> <VdW6>
-3.745

> <VdW12>
4.235

> <Bond>
0.068

> <Angle>
3.901

> <Pdih>
10.737

> <Idih>
0.000

> <Tether>
0.000

$$$$
VeraChem MOL file


 16 16  0  0  0  0  0  0  0  0999 V2000     
   18.3881   19.5937   22.0109 C   0  0  0  0  0  0  0  0  0  0  0  0
   18.6047   19.8913   20.9754 H   0  0  0  0  0  0  0  0  0  0  0  0
   17.5095   20.1567   22.3541 H   0  0  0  0  0  0  0  0  0  0  0  0
   19.6233   19.8434   22.8869 C   0  0  0  0  0  0  0  0  0  0  0  0
   20.1363   20.7799   22.6290 H   0  0  0  0  0  0  0  0  0  0  0  0
   19.3232   19.8955   23.9428 H   0  0  0  0  0  0  0  0  0  0  0  0
   20.5115   18.6066   22.6583 C   0  0  0  0  0  0  0  0  0  0  0  0
   21.1285   18.3875   23.5392 H   0  0  0  0  0  0  0  0  0  0  0  0
   21.1862   18.7954   21.8122 H   0  0  0  0  0  0  0  0  0  0  0  0
   19.5562   17.4398   22.3304 C   0  0  0  0  0  0  0  0  0  0  0  0
   19.4906   16.7547   23.1882 H   0  0  0  0  0  0  0  0  0  0  0  0
   18.1716   18.0705   22.0750 C   0  0  0  0  0  0  0  0  0  0  0  0
   17.7030   17.6897   21.1577 H   0  0  0  0  0  0  0  0  0  0  0  0
   17.5074   17.8277   22.9146 H   0  0  0  0  0  0  0  0  0  0  0  0
   20.0033   16.7509   21.1688 O   0  0  0  0  0  0  0  0  0  0  0  0
   20.8863   16.3822   21.3829 H   0  0  0  0  0  0  0  0  0  0  0  0
  1  2  1  0  0  0  0
  1  3  1  0  0  0  0
  1  4  1  0  0  0  0
  4  5  1  0  0  0  0
  4  6  1  0  0  0  0
  4  7  1  0  0  0  0
  7  8  1  0  0  0  0
  7  9  1  0  0  0  0
  7 10  1  0  0  0  0
 10 11  1  0  0  0  0
  1 12  1  0  0  0  0
 10 12  1  0  0  0  0
 12 13  1  0  0  0  0
 12 14  1  0  0  0  0
 10 15  1  0  0  0  0
 15 16  1  0  0  0  0
M  END
> <VConfSearch Rank>
265

> <Conf_Id>
59

> <Delta U+W>
0.000

> <U+W>
3.010

> <U>
5.843

> <W>
-2.833

> <W(PB)>
-4.568

> <W(SA)>
1.735

> <Valence>
13.789

> <Coulomb>
-8.574

> <VdW>
0.628

> <VdW6>
-3.284

> <VdW12>
3.912

> <Bond>
0.054

> <Angle>
4.034

> <Pdih>
9.702

> <Idih>
0.000

> <Tether>
0.000

$$$$
VeraChem MOL file


 16 16  0  0  0  0  0  0  0  0999 V2000     
   19.5169   19.7834   23.1199 C   0  0  0  0  0  0  0  0  0  0  0  0
   19.8126   20.8389   23.0477 H   0  0  0  0  0  0  0  0  0  0  0  0
   19.0311   19.6286   24.0934 H   0  0  0  0  0  0  0  0  0  0  0  0
   20.7127   18.8311   22.9825 C   0  0  0  0  0  0  0  0  0  0  0  0
   21.3973   19.2087   22.2102 H   0  0  0  0  0  0  0  0  0  0  0  0
   21.2756   18.7264   23.9200 H   0  0  0  0  0  0  0  0  0  0  0  0
   20.0938   17.5002   22.5168 C   0  0  0  0  0  0  0  0  0  0  0  0
   19.8297   16.8909   23.3909 H   0  0  0  0  0  0  0  0  0  0  0  0
   20.7971   16.9194   21.9052 H   0  0  0  0  0  0  0  0  0  0  0  0
   18.8064   17.8595   21.7466 C   0  0  0  0  0  0  0  0  0  0  0  0
   17.9674   17.2721   22.1473 H   0  0  0  0  0  0  0  0  0  0  0  0
   18.5609   19.3639   21.9882 C   0  0  0  0  0  0  0  0  0  0  0  0
   18.7966   19.9384   21.0820 H   0  0  0  0  0  0  0  0  0  0  0  0
   17.5145   19.5646   22.2520 H   0  0  0  0  0  0  0  0  0  0  0  0
   18.9794   17.6073   20.3572 O   0  0  0  0  0  0  0  0  0  0  0  0
   18.1404   17.8625   19.9184 H   0  0  0  0  0  0  0  0  0  0  0  0
  1  2  1  0  0  0  0
  1  3  1  0  0  0  0
  1  4  1  0  0  0  0
  4  5  1  0  0  0  0
  4  6  1  0  0  0  0
  4  7  1  0  0  0  0
  7  8  1  0  0  0  0
  7  9  1  0  0  0  0
  7 10  1  0  0  0  0
 10 11  1  0  0  0  0
  1 12  1  0  0  0  0
 10 12  1  0  0  0  0
 12 13  1  0  0  0  0
 12 14  1  0  0  0  0
 10 15  1  0  0  0  0
 15 16  1  0  0  0  0
M  END
> <VConfSearch Rank>
266

> <Conf_Id>
33

> <Delta U+W>
0.015

> <U+W>
3.025

> <U>
5.843

> <W>
-2.819

> <W(PB)>
-4.568

> <W(SA)>
1.750

> <Valence>
13.789

> <Coulomb>
-8.574

> <VdW>
0.628

> <VdW6>
-3.284

> <VdW12>
3.913

> <Bond>
0.054

> <Angle>
4.033

> <Pdih>
9.702

> <Idih>
0.000

> <Tether>
0.000

$$$$
VeraChem MOL file


 16 16  0  0  0  0  0  0  0  0999 V2000     
   20.3224   18.0540   21.4938 C   0  0  0  0  0  0  0  0  0  0  0  0
   20.4625   18.5437   20.5202 H   0  0  0  0  0  0  0  0  0  0  0  0
   21.0433   17.2275   21.5580 H   0  0  0  0  0  0  0  0  0  0  0  0
   18.8682   17.5505   21.6240 C   0  0  0  0  0  0  0  0  0  0  0  0
   18.3049   17.7956   20.7130 H   0  0  0  0  0  0  0  0  0  0  0  0
   18.8285   16.4607   21.7574 H   0  0  0  0  0  0  0  0  0  0  0  0
   18.2594   18.2808   22.8400 C   0  0  0  0  0  0  0  0  0  0  0  0
   18.3129   17.6303   23.7230 H   0  0  0  0  0  0  0  0  0  0  0  0
   17.2050   18.5441   22.6823 H   0  0  0  0  0  0  0  0  0  0  0  0
   19.1380   19.5164   23.0774 C   0  0  0  0  0  0  0  0  0  0  0  0
   19.1253   19.8252   24.1326 H   0  0  0  0  0  0  0  0  0  0  0  0
   20.5381   19.0687   22.6367 C   0  0  0  0  0  0  0  0  0  0  0  0
   21.1677   19.9143   22.3293 H   0  0  0  0  0  0  0  0  0  0  0  0
   21.0352   18.5712   23.4800 H   0  0  0  0  0  0  0  0  0  0  0  0
   18.6979   20.5719   22.2354 O   0  0  0  0  0  0  0  0  0  0  0  0
   18.7425   20.2087   21.3269 H   0  0  0  0  0  0  0  0  0  0  0  0
  1  2  1  0  0  0  0
  1  3  1  0  0  0  0
  1  4  1  0  0  0  0
  4  5  1  0  0  0  0
  4  6  1  0  0  0  0
  4  7  1  0  0  0  0
  7  8  1  0  0  0  0
  7  9  1  0  0  0  0
  7 10  1  0  0  0  0
 10 11  1  0  0  0  0
  1 12  1  0  0  0  0
 10 12  1  0  0  0  0
 12 13  1  0  0  0  0
 12 14  1  0  0  0  0
 10 15  1  0  0  0  0
 15 16  1  0  0  0  0
M  END
> <VConfSearch Rank>
267

> <Conf_Id>
20

> <Delta U+W>
-0.483

> <U+W>
2.527

> <U>
4.508

> <W>
-1.981

> <W(PB)>
-3.712

> <W(SA)>
1.732

> <Valence>
14.705

> <Coulomb>
-10.687

> <VdW>
0.490

> <VdW6>
-3.745

> <VdW12>
4.235

> <Bond>
0.068

> <Angle>
3.901

> <Pdih>
10.737

> <Idih>
0.000

> <Tether>
0.000

$$$$
VeraChem MOL file


 16 16  0  0  0  0  0  0  0  0999 V2000     
   20.0488   17.3859   21.7927 C   0  0  0  0  0  0  0  0  0  0  0  0
   20.5646   17.7403   20.8893 H   0  0  0  0  0  0  0  0  0  0  0  0
   20.3142   16.3315   21.9491 H   0  0  0  0  0  0  0  0  0  0  0  0
   18.5360   17.5925   21.6357 C   0  0  0  0  0  0  0  0  0  0  0  0
   18.1863   17.3650   20.6195 H   0  0  0  0  0  0  0  0  0  0  0  0
   17.9990   16.9400   22.3381 H   0  0  0  0  0  0  0  0  0  0  0  0
   18.3092   19.0669   22.0170 C   0  0  0  0  0  0  0  0  0  0  0  0
   17.3086   19.2223   22.4406 H   0  0  0  0  0  0  0  0  0  0  0  0
   18.3958   19.6921   21.1179 H   0  0  0  0  0  0  0  0  0  0  0  0
   19.4163   19.4296   23.0291 C   0  0  0  0  0  0  0  0  0  0  0  0
   18.9915   19.5048   24.0408 H   0  0  0  0  0  0  0  0  0  0  0  0
   20.4368   18.2734   22.9897 C   0  0  0  0  0  0  0  0  0  0  0  0
   21.4712   18.6330   22.9078 H   0  0  0  0  0  0  0  0  0  0  0  0
   20.3575   17.6942   23.9188 H   0  0  0  0  0  0  0  0  0  0  0  0
   20.0433   20.6504   22.6543 O   0  0  0  0  0  0  0  0  0  0  0  0
   19.3505   21.3437   22.6859 H   0  0  0  0  0  0  0  0  0  0  0  0
  1  2  1  0  0  0  0
  1  3  1  0  0  0  0
  1  4  1  0  0  0  0
  4  5  1  0  0  0  0
  4  6  1  0  0  0  0
  4  7  1  0  0  0  0
  7  8  1  0  0  0  0
  7  9  1  0  0  0  0
  7 10  1  0  0  0  0
 10 11  1  0  0  0  0
  1 12  1  0  0  0  0
 10 12  1  0  0  0  0
 12 13  1  0  0  0  0
 12 14  1  0  0  0  0
 10 15  1  0  0  0  0
 15 16  1  0  0  0  0
M  END
> <VConfSearch Rank>
268

> <Conf_Id>
59

> <Delta U+W>
0.000

> <U+W>
3.010

> <U>
5.843

> <W>
-2.833

> <W(PB)>
-4.568

> <W(SA)>
1.735

> <Valence>
13.789

> <Coulomb>
-8.574

> <VdW>
0.628

> <VdW6>
-3.284

> <VdW12>
3.912

> <Bond>
0.054

> <Angle>
4.034

> <Pdih>
9.702

> <Idih>
0.000

> <Tether>
0.000

$$$$
VeraChem MOL file


 16 16  0  0  0  0  0  0  0  0999 V2000     
   20.7863   19.0734   22.5523 C   0  0  0  0  0  0  0  0  0  0  0  0
   21.3378   20.0191   22.6427 H   0  0  0  0  0  0  0  0  0  0  0  0
   21.4530   18.2561   22.8610 H   0  0  0  0  0  0  0  0  0  0  0  0
   20.2889   18.8218   21.1223 C   0  0  0  0  0  0  0  0  0  0  0  0
   19.9339   19.7652   20.6845 H   0  0  0  0  0  0  0  0  0  0  0  0
   21.0737   18.4139   20.4708 H   0  0  0  0  0  0  0  0  0  0  0  0
   19.1036   17.8536   21.2915 C   0  0  0  0  0  0  0  0  0  0  0  0
   19.4647   16.8179   21.2472 H   0  0  0  0  0  0  0  0  0  0  0  0
   18.3596   17.9821   20.4940 H   0  0  0  0  0  0  0  0  0  0  0  0
   18.5135   18.1212   22.6915 C   0  0  0  0  0  0  0  0  0  0  0  0
   18.4279   17.1703   23.2374 H   0  0  0  0  0  0  0  0  0  0  0  0
   19.5085   19.0558   23.4112 C   0  0  0  0  0  0  0  0  0  0  0  0
   19.0985   20.0731   23.4732 H   0  0  0  0  0  0  0  0  0  0  0  0
   19.7168   18.7134   24.4330 H   0  0  0  0  0  0  0  0  0  0  0  0
   17.2434   18.7516   22.5761 O   0  0  0  0  0  0  0  0  0  0  0  0
   16.9226   18.9072   23.4896 H   0  0  0  0  0  0  0  0  0  0  0  0
  1  2  1  0  0  0  0
  1  3  1  0  0  0  0
  1  4  1  0  0  0  0
  4  5  1  0  0  0  0
  4  6  1  0  0  0  0
  4  7  1  0  0  0  0
  7  8  1  0  0  0  0
  7  9  1  0  0  0  0
  7 10  1  0  0  0  0
 10 11  1  0  0  0  0
  1 12  1  0  0  0  0
 10 12  1  0  0  0  0
 12 13  1  0  0  0  0
 12 14  1  0  0  0  0
 10 15  1  0  0  0  0
 15 16  1  0  0  0  0
M  END
> <VConfSearch Rank>
269

> <Conf_Id>
33

> <Delta U+W>
0.015

> <U+W>
3.025

> <U>
5.843

> <W>
-2.819

> <W(PB)>
-4.568

> <W(SA)>
1.750

> <Valence>
13.789

> <Coulomb>
-8.574

> <VdW>
0.628

> <VdW6>
-3.284

> <VdW12>
3.913

> <Bond>
0.054

> <Angle>
4.033

> <Pdih>
9.702

> <Idih>
0.000

> <Tether>
0.000

$$$$
VeraChem MOL file


 16 16  0  0  0  0  0  0  0  0999 V2000     
   20.0708   17.4678   22.2746 C   0  0  0  0  0  0  0  0  0  0  0  0
   20.8660   17.4102   21.5187 H   0  0  0  0  0  0  0  0  0  0  0  0
   20.0942   16.5352   22.8548 H   0  0  0  0  0  0  0  0  0  0  0  0
   18.7043   17.6733   21.5849 C   0  0  0  0  0  0  0  0  0  0  0  0
   18.8381   17.7140   20.4951 H   0  0  0  0  0  0  0  0  0  0  0  0
   18.0127   16.8486   21.8052 H   0  0  0  0  0  0  0  0  0  0  0  0
   18.1494   19.0166   22.1046 C   0  0  0  0  0  0  0  0  0  0  0  0
   17.4413   18.8291   22.9226 H   0  0  0  0  0  0  0  0  0  0  0  0
   17.6175   19.5770   21.3242 H   0  0  0  0  0  0  0  0  0  0  0  0
   19.3548   19.7897   22.6562 C   0  0  0  0  0  0  0  0  0  0  0  0
   19.0579   20.4880   23.4519 H   0  0  0  0  0  0  0  0  0  0  0  0
   20.2896   18.6941   23.1861 C   0  0  0  0  0  0  0  0  0  0  0  0
   21.3393   19.0164   23.2054 H   0  0  0  0  0  0  0  0  0  0  0  0
   19.9981   18.4434   24.2146 H   0  0  0  0  0  0  0  0  0  0  0  0
   19.9962   20.4773   21.5920 O   0  0  0  0  0  0  0  0  0  0  0  0
   20.2215   19.7830   20.9391 H   0  0  0  0  0  0  0  0  0  0  0  0
  1  2  1  0  0  0  0
  1  3  1  0  0  0  0
  1  4  1  0  0  0  0
  4  5  1  0  0  0  0
  4  6  1  0  0  0  0
  4  7  1  0  0  0  0
  7  8  1  0  0  0  0
  7  9  1  0  0  0  0
  7 10  1  0  0  0  0
 10 11  1  0  0  0  0
  1 12  1  0  0  0  0
 10 12  1  0  0  0  0
 12 13  1  0  0  0  0
 12 14  1  0  0  0  0
 10 15  1  0  0  0  0
 15 16  1  0  0  0  0
M  END
> <VConfSearch Rank>
270

> <Conf_Id>
20

> <Delta U+W>
-0.483

> <U+W>
2.527

> <U>
4.508

> <W>
-1.981

> <W(PB)>
-3.712

> <W(SA)>
1.732

> <Valence>
14.705

> <Coulomb>
-10.687

> <VdW>
0.490

> <VdW6>
-3.745

> <VdW12>
4.235

> <Bond>
0.068

> <Angle>
3.901

> <Pdih>
10.737

> <Idih>
0.000

> <Tether>
0.000

$$$$
VeraChem MOL file


 16 16  0  0  0  0  0  0  0  0999 V2000     
   19.8510   19.5852   21.4155 C   0  0  0  0  0  0  0  0  0  0  0  0
   18.9836   19.8658   20.8019 H   0  0  0  0  0  0  0  0  0  0  0  0
   20.6944   20.2305   21.1347 H   0  0  0  0  0  0  0  0  0  0  0  0
   20.1613   18.0953   21.2164 C   0  0  0  0  0  0  0  0  0  0  0  0
   20.0411   17.7792   20.1712 H   0  0  0  0  0  0  0  0  0  0  0  0
   21.1971   17.8895   21.5206 H   0  0  0  0  0  0  0  0  0  0  0  0
   19.1868   17.3712   22.1633 C   0  0  0  0  0  0  0  0  0  0  0  0
   19.6025   16.4180   22.5145 H   0  0  0  0  0  0  0  0  0  0  0  0
   18.2527   17.1547   21.6271 H   0  0  0  0  0  0  0  0  0  0  0  0
   18.9187   18.3392   23.3349 C   0  0  0  0  0  0  0  0  0  0  0  0
   19.4440   17.9929   24.2370 H   0  0  0  0  0  0  0  0  0  0  0  0
   19.4887   19.7074   22.9071 C   0  0  0  0  0  0  0  0  0  0  0  0
   18.7808   20.5280   23.0852 H   0  0  0  0  0  0  0  0  0  0  0  0
   20.3949   19.9160   23.4905 H   0  0  0  0  0  0  0  0  0  0  0  0
   17.5205   18.4437   23.5754 O   0  0  0  0  0  0  0  0  0  0  0  0
   17.2115   17.5489   23.8313 H   0  0  0  0  0  0  0  0  0  0  0  0
  1  2  1  0  0  0  0
  1  3  1  0  0  0  0
  1  4  1  0  0  0  0
  4  5  1  0  0  0  0
  4  6  1  0  0  0  0
  4  7  1  0  0  0  0
  7  8  1  0  0  0  0
  7  9  1  0  0  0  0
  7 10  1  0  0  0  0
 10 11  1  0  0  0  0
  1 12  1  0  0  0  0
 10 12  1  0  0  0  0
 12 13  1  0  0  0  0
 12 14  1  0  0  0  0
 10 15  1  0  0  0  0
 15 16  1  0  0  0  0
M  END
> <VConfSearch Rank>
271

> <Conf_Id>
59

> <Delta U+W>
0.000

> <U+W>
3.010

> <U>
5.843

> <W>
-2.833

> <W(PB)>
-4.568

> <W(SA)>
1.735

> <Valence>
13.789

> <Coulomb>
-8.574

> <VdW>
0.628

> <VdW6>
-3.284

> <VdW12>
3.912

> <Bond>
0.054

> <Angle>
4.034

> <Pdih>
9.702

> <Idih>
0.000

> <Tether>
0.000

$$$$
VeraChem MOL file


 16 16  0  0  0  0  0  0  0  0999 V2000     
   18.6723   19.7421   22.7118 C   0  0  0  0  0  0  0  0  0  0  0  0
   18.2357   20.6564   22.2873 H   0  0  0  0  0  0  0  0  0  0  0  0
   18.2982   19.6275   23.7387 H   0  0  0  0  0  0  0  0  0  0  0  0
   20.2067   19.7781   22.7223 C   0  0  0  0  0  0  0  0  0  0  0  0
   20.5706   20.2391   21.7935 H   0  0  0  0  0  0  0  0  0  0  0  0
   20.6072   20.3500   23.5703 H   0  0  0  0  0  0  0  0  0  0  0  0
   20.6264   18.2971   22.7618 C   0  0  0  0  0  0  0  0  0  0  0  0
   20.7210   17.9686   23.8049 H   0  0  0  0  0  0  0  0  0  0  0  0
   21.5969   18.1387   22.2727 H   0  0  0  0  0  0  0  0  0  0  0  0
   19.4924   17.5003   22.0844 C   0  0  0  0  0  0  0  0  0  0  0  0
   19.1819   16.6774   22.7447 H   0  0  0  0  0  0  0  0  0  0  0  0
   18.3240   18.4892   21.8876 C   0  0  0  0  0  0  0  0  0  0  0  0
   18.2330   18.7650   20.8281 H   0  0  0  0  0  0  0  0  0  0  0  0
   17.3683   18.0528   22.2056 H   0  0  0  0  0  0  0  0  0  0  0  0
   19.9285   16.9992   20.8264 O   0  0  0  0  0  0  0  0  0  0  0  0
   19.1696   16.5145   20.4383 H   0  0  0  0  0  0  0  0  0  0  0  0
  1  2  1  0  0  0  0
  1  3  1  0  0  0  0
  1  4  1  0  0  0  0
  4  5  1  0  0  0  0
  4  6  1  0  0  0  0
  4  7  1  0  0  0  0
  7  8  1  0  0  0  0
  7  9  1  0  0  0  0
  7 10  1  0  0  0  0
 10 11  1  0  0  0  0
  1 12  1  0  0  0  0
 10 12  1  0  0  0  0
 12 13  1  0  0  0  0
 12 14  1  0  0  0  0
 10 15  1  0  0  0  0
 15 16  1  0  0  0  0
M  END
> <VConfSearch Rank>
272

> <Conf_Id>
33

> <Delta U+W>
0.015

> <U+W>
3.025

> <U>
5.843

> <W>
-2.819

> <W(PB)>
-4.568

> <W(SA)>
1.750

> <Valence>
13.789

> <Coulomb>
-8.574

> <VdW>
0.628

> <VdW6>
-3.284

> <VdW12>
3.913

> <Bond>
0.054

> <Angle>
4.033

> <Pdih>
9.702

> <Idih>
0.000

> <Tether>
0.000

$$$$
VeraChem MOL file


 16 16  0  0  0  0  0  0  0  0999 V2000     
   20.2437   17.8178   21.6193 C   0  0  0  0  0  0  0  0  0  0  0  0
   21.2002   17.6791   22.1418 H   0  0  0  0  0  0  0  0  0  0  0  0
   20.2793   17.2243   20.6955 H   0  0  0  0  0  0  0  0  0  0  0  0
   20.0197   19.3168   21.3230 C   0  0  0  0  0  0  0  0  0  0  0  0
   20.8683   19.9034   21.7011 H   0  0  0  0  0  0  0  0  0  0  0  0
   19.9371   19.5073   20.2441 H   0  0  0  0  0  0  0  0  0  0  0  0
   18.7236   19.7194   22.0582 C   0  0  0  0  0  0  0  0  0  0  0  0
   17.8809   19.6977   21.3546 H   0  0  0  0  0  0  0  0  0  0  0  0
   18.7813   20.7320   22.4793 H   0  0  0  0  0  0  0  0  0  0  0  0
   18.4986   18.6526   23.1382 C   0  0  0  0  0  0  0  0  0  0  0  0
   17.4320   18.5415   23.3811 H   0  0  0  0  0  0  0  0  0  0  0  0
   19.0739   17.3706   22.5215 C   0  0  0  0  0  0  0  0  0  0  0  0
   19.3899   16.6472   23.2849 H   0  0  0  0  0  0  0  0  0  0  0  0
   18.2996   16.8916   21.9077 H   0  0  0  0  0  0  0  0  0  0  0  0
   19.2489   18.9927   24.2950 O   0  0  0  0  0  0  0  0  0  0  0  0
   20.1747   19.0696   23.9847 H   0  0  0  0  0  0  0  0  0  0  0  0
  1  2  1  0  0  0  0
  1  3  1  0  0  0  0
  1  4  1  0  0  0  0
  4  5  1  0  0  0  0
  4  6  1  0  0  0  0
  4  7  1  0  0  0  0
  7  8  1  0  0  0  0
  7  9  1  0  0  0  0
  7 10  1  0  0  0  0
 10 11  1  0  0  0  0
  1 12  1  0  0  0  0
 10 12  1  0  0  0  0
 12 13  1  0  0  0  0
 12 14  1  0  0  0  0
 10 15  1  0  0  0  0
 15 16  1  0  0  0  0
M  END
> <VConfSearch Rank>
273

> <Conf_Id>
20

> <Delta U+W>
-0.483

> <U+W>
2.527

> <U>
4.508

> <W>
-1.981

> <W(PB)>
-3.712

> <W(SA)>
1.732

> <Valence>
14.705

> <Coulomb>
-10.687

> <VdW>
0.490

> <VdW6>
-3.745

> <VdW12>
4.235

> <Bond>
0.068

> <Angle>
3.901

> <Pdih>
10.737

> <Idih>
0.000

> <Tether>
0.000

$$$$
VeraChem MOL file


 16 16  0  0  0  0  0  0  0  0999 V2000     
   19.7017   19.2400   23.5492 C   0  0  0  0  0  0  0  0  0  0  0  0
   19.4135   20.2872   23.3824 H   0  0  0  0  0  0  0  0  0  0  0  0
   20.0683   19.1440   24.5802 H   0  0  0  0  0  0  0  0  0  0  0  0
   20.7539   18.8246   22.5118 C   0  0  0  0  0  0  0  0  0  0  0  0
   21.4840   19.6215   22.3149 H   0  0  0  0  0  0  0  0  0  0  0  0
   21.2988   17.9407   22.8715 H   0  0  0  0  0  0  0  0  0  0  0  0
   19.9348   18.4583   21.2607 C   0  0  0  0  0  0  0  0  0  0  0  0
   20.4443   17.6967   20.6565 H   0  0  0  0  0  0  0  0  0  0  0  0
   19.8051   19.3530   20.6366 H   0  0  0  0  0  0  0  0  0  0  0  0
   18.5661   17.9575   21.7683 C   0  0  0  0  0  0  0  0  0  0  0  0
   18.5002   16.8653   21.6573 H   0  0  0  0  0  0  0  0  0  0  0  0
   18.4980   18.3225   23.2656 C   0  0  0  0  0  0  0  0  0  0  0  0
   17.5491   18.8059   23.5340 H   0  0  0  0  0  0  0  0  0  0  0  0
   18.5855   17.4050   23.8620 H   0  0  0  0  0  0  0  0  0  0  0  0
   17.5141   18.6001   21.0583 O   0  0  0  0  0  0  0  0  0  0  0  0
   17.6122   18.3434   20.1170 H   0  0  0  0  0  0  0  0  0  0  0  0
  1  2  1  0  0  0  0
  1  3  1  0  0  0  0
  1  4  1  0  0  0  0
  4  5  1  0  0  0  0
  4  6  1  0  0  0  0
  4  7  1  0  0  0  0
  7  8  1  0  0  0  0
  7  9  1  0  0  0  0
  7 10  1  0  0  0  0
 10 11  1  0  0  0  0
  1 12  1  0  0  0  0
 10 12  1  0  0  0  0
 12 13  1  0  0  0  0
 12 14  1  0  0  0  0
 10 15  1  0  0  0  0
 15 16  1  0  0  0  0
M  END
> <VConfSearch Rank>
274

> <Conf_Id>
59

> <Delta U+W>
0.000

> <U+W>
3.010

> <U>
5.843

> <W>
-2.833

> <W(PB)>
-4.568

> <W(SA)>
1.735

> <Valence>
13.789

> <Coulomb>
-8.574

> <VdW>
0.628

> <VdW6>
-3.284

> <VdW12>
3.912

> <Bond>
0.054

> <Angle>
4.034

> <Pdih>
9.702

> <Idih>
0.000

> <Tether>
0.000

$$$$
VeraChem MOL file


 16 16  0  0  0  0  0  0  0  0999 V2000     
   20.4611   17.6203   22.0510 C   0  0  0  0  0  0  0  0  0  0  0  0
   20.6903   16.8237   21.3301 H   0  0  0  0  0  0  0  0  0  0  0  0
   21.3295   17.7450   22.7128 H   0  0  0  0  0  0  0  0  0  0  0  0
   19.2138   17.3082   22.8892 C   0  0  0  0  0  0  0  0  0  0  0  0
   18.4501   16.8399   22.2527 H   0  0  0  0  0  0  0  0  0  0  0  0
   19.4293   16.6287   23.7249 H   0  0  0  0  0  0  0  0  0  0  0  0
   18.7150   18.6851   23.3649 C   0  0  0  0  0  0  0  0  0  0  0  0
   19.1829   18.9345   24.3261 H   0  0  0  0  0  0  0  0  0  0  0  0
   17.6266   18.6923   23.5116 H   0  0  0  0  0  0  0  0  0  0  0  0
   19.1695   19.7083   22.3037 C   0  0  0  0  0  0  0  0  0  0  0  0
   19.6957   20.5369   22.7998 H   0  0  0  0  0  0  0  0  0  0  0  0
   20.1350   18.9580   21.3620 C   0  0  0  0  0  0  0  0  0  0  0  0
   19.6487   18.7605   20.3969 H   0  0  0  0  0  0  0  0  0  0  0  0
   21.0442   19.5415   21.1681 H   0  0  0  0  0  0  0  0  0  0  0  0
   18.0472   20.1897   21.5740 O   0  0  0  0  0  0  0  0  0  0  0  0
   18.3937   20.8233   20.9107 H   0  0  0  0  0  0  0  0  0  0  0  0
  1  2  1  0  0  0  0
  1  3  1  0  0  0  0
  1  4  1  0  0  0  0
  4  5  1  0  0  0  0
  4  6  1  0  0  0  0
  4  7  1  0  0  0  0
  7  8  1  0  0  0  0
  7  9  1  0  0  0  0
  7 10  1  0  0  0  0
 10 11  1  0  0  0  0
  1 12  1  0  0  0  0
 10 12  1  0  0  0  0
 12 13  1  0  0  0  0
 12 14  1  0  0  0  0
 10 15  1  0  0  0  0
 15 16  1  0  0  0  0
M  END
> <VConfSearch Rank>
275

> <Conf_Id>
33

> <Delta U+W>
0.015

> <U+W>
3.025

> <U>
5.843

> <W>
-2.819

> <W(PB)>
-4.568

> <W(SA)>
1.750

> <Valence>
13.789

> <Coulomb>
-8.574

> <VdW>
0.628

> <VdW6>
-3.284

> <VdW12>
3.913

> <Bond>
0.054

> <Angle>
4.033

> <Pdih>
9.702

> <Idih>
0.000

> <Tether>
0.000

$$$$
VeraChem MOL file


 16 16  0  0  0  0  0  0  0  0999 V2000     
   20.2355   19.0583   21.3365 C   0  0  0  0  0  0  0  0  0  0  0  0
   19.8062   19.1573   20.3299 H   0  0  0  0  0  0  0  0  0  0  0  0
   21.2824   19.3875   21.2862 H   0  0  0  0  0  0  0  0  0  0  0  0
   20.1230   17.5938   21.8137 C   0  0  0  0  0  0  0  0  0  0  0  0
   19.6402   16.9839   21.0377 H   0  0  0  0  0  0  0  0  0  0  0  0
   21.1110   17.1573   22.0140 H   0  0  0  0  0  0  0  0  0  0  0  0
   19.2565   17.6150   23.0909 C   0  0  0  0  0  0  0  0  0  0  0  0
   19.9068   17.6043   23.9756 H   0  0  0  0  0  0  0  0  0  0  0  0
   18.5895   16.7450   23.1559 H   0  0  0  0  0  0  0  0  0  0  0  0
   18.4825   18.9397   23.0576 C   0  0  0  0  0  0  0  0  0  0  0  0
   18.2337   19.2885   24.0702 H   0  0  0  0  0  0  0  0  0  0  0  0
   19.4338   19.9096   22.3440 C   0  0  0  0  0  0  0  0  0  0  0  0
   18.8979   20.7355   21.8574 H   0  0  0  0  0  0  0  0  0  0  0  0
   20.1190   20.3454   23.0830 H   0  0  0  0  0  0  0  0  0  0  0  0
   17.3085   18.7758   22.2755 O   0  0  0  0  0  0  0  0  0  0  0  0
   17.6254   18.4669   21.4018 H   0  0  0  0  0  0  0  0  0  0  0  0
  1  2  1  0  0  0  0
  1  3  1  0  0  0  0
  1  4  1  0  0  0  0
  4  5  1  0  0  0  0
  4  6  1  0  0  0  0
  4  7  1  0  0  0  0
  7  8  1  0  0  0  0
  7  9  1  0  0  0  0
  7 10  1  0  0  0  0
 10 11  1  0  0  0  0
  1 12  1  0  0  0  0
 10 12  1  0  0  0  0
 12 13  1  0  0  0  0
 12 14  1  0  0  0  0
 10 15  1  0  0  0  0
 15 16  1  0  0  0  0
M  END
> <VConfSearch Rank>
276

> <Conf_Id>
20

> <Delta U+W>
-0.483

> <U+W>
2.527

> <U>
4.508

> <W>
-1.981

> <W(PB)>
-3.712

> <W(SA)>
1.732

> <Valence>
14.705

> <Coulomb>
-10.687

> <VdW>
0.490

> <VdW6>
-3.745

> <VdW12>
4.235

> <Bond>
0.068

> <Angle>
3.901

> <Pdih>
10.737

> <Idih>
0.000

> <Tether>
0.000

$$$$
VeraChem MOL file


 16 16  0  0  0  0  0  0  0  0999 V2000     
   18.0910   18.8208   21.6530 C   0  0  0  0  0  0  0  0  0  0  0  0
   18.1003   19.8999   21.4455 H   0  0  0  0  0  0  0  0  0  0  0  0
   17.1702   18.3969   21.2299 H   0  0  0  0  0  0  0  0  0  0  0  0
   18.2030   18.5869   23.1658 C   0  0  0  0  0  0  0  0  0  0  0  0
   17.6157   19.3122   23.7454 H   0  0  0  0  0  0  0  0  0  0  0  0
   17.8426   17.5783   23.4115 H   0  0  0  0  0  0  0  0  0  0  0  0
   19.7113   18.6869   23.4583 C   0  0  0  0  0  0  0  0  0  0  0  0
   19.9947   18.0683   24.3196 H   0  0  0  0  0  0  0  0  0  0  0  0
   19.9675   19.7291   23.6926 H   0  0  0  0  0  0  0  0  0  0  0  0
   20.4346   18.2345   22.1723 C   0  0  0  0  0  0  0  0  0  0  0  0
   20.8663   17.2332   22.3157 H   0  0  0  0  0  0  0  0  0  0  0  0
   19.3593   18.1723   21.0679 C   0  0  0  0  0  0  0  0  0  0  0  0
   19.6804   18.6732   20.1449 H   0  0  0  0  0  0  0  0  0  0  0  0
   19.1568   17.1213   20.8242 H   0  0  0  0  0  0  0  0  0  0  0  0
   21.4448   19.1727   21.8213 O   0  0  0  0  0  0  0  0  0  0  0  0
   22.0911   19.1791   22.5586 H   0  0  0  0  0  0  0  0  0  0  0  0
  1  2  1  0  0  0  0
  1  3  1  0  0  0  0
  1  4  1  0  0  0  0
  4  5  1  0  0  0  0
  4  6  1  0  0  0  0
  4  7  1  0  0  0  0
  7  8  1  0  0  0  0
  7  9  1  0  0  0  0
  7 10  1  0  0  0  0
 10 11  1  0  0  0  0
  1 12  1  0  0  0  0
 10 12  1  0  0  0  0
 12 13  1  0  0  0  0
 12 14  1  0  0  0  0
 10 15  1  0  0  0  0
 15 16  1  0  0  0  0
M  END
> <VConfSearch Rank>
277

> <Conf_Id>
59

> <Delta U+W>
0.000

> <U+W>
3.010

> <U>
5.843

> <W>
-2.833

> <W(PB)>
-4.568

> <W(SA)>
1.735

> <Valence>
13.789

> <Coulomb>
-8.574

> <VdW>
0.628

> <VdW6>
-3.284

> <VdW12>
3.912

> <Bond>
0.054

> <Angle>
4.034

> <Pdih>
9.702

> <Idih>
0.000

> <Tether>
0.000

$$$$
VeraChem MOL file


 16 16  0  0  0  0  0  0  0  0999 V2000     
   18.3383   17.9924   22.9527 C   0  0  0  0  0  0  0  0  0  0  0  0
   17.4420   18.2783   23.5198 H   0  0  0  0  0  0  0  0  0  0  0  0
   18.2898   16.9125   22.7548 H   0  0  0  0  0  0  0  0  0  0  0  0
   19.6350   18.3216   23.7050 C   0  0  0  0  0  0  0  0  0  0  0  0
   19.5314   19.2919   24.2103 H   0  0  0  0  0  0  0  0  0  0  0  0
   19.8852   17.5648   24.4609 H   0  0  0  0  0  0  0  0  0  0  0  0
   20.7044   18.4262   22.6020 C   0  0  0  0  0  0  0  0  0  0  0  0
   21.1612   17.4417   22.4371 H   0  0  0  0  0  0  0  0  0  0  0  0
   21.5057   19.1236   22.8806 H   0  0  0  0  0  0  0  0  0  0  0  0
   19.9698   18.8614   21.3171 C   0  0  0  0  0  0  0  0  0  0  0  0
   20.2341   18.1767   20.4980 H   0  0  0  0  0  0  0  0  0  0  0  0
   18.4607   18.7604   21.6239 C   0  0  0  0  0  0  0  0  0  0  0  0
   18.0285   19.7634   21.7429 H   0  0  0  0  0  0  0  0  0  0  0  0
   17.9178   18.2531   20.8160 H   0  0  0  0  0  0  0  0  0  0  0  0
   20.3147   20.2009   20.9847 O   0  0  0  0  0  0  0  0  0  0  0  0
   19.8139   20.4270   20.1725 H   0  0  0  0  0  0  0  0  0  0  0  0
  1  2  1  0  0  0  0
  1  3  1  0  0  0  0
  1  4  1  0  0  0  0
  4  5  1  0  0  0  0
  4  6  1  0  0  0  0
  4  7  1  0  0  0  0
  7  8  1  0  0  0  0
  7  9  1  0  0  0  0
  7 10  1  0  0  0  0
 10 11  1  0  0  0  0
  1 12  1  0  0  0  0
 10 12  1  0  0  0  0
 12 13  1  0  0  0  0
 12 14  1  0  0  0  0
 10 15  1  0  0  0  0
 15 16  1  0  0  0  0
M  END
> <VConfSearch Rank>
278

> <Conf_Id>
33

> <Delta U+W>
0.015

> <U+W>
3.025

> <U>
5.843

> <W>
-2.819

> <W(PB)>
-4.568

> <W(SA)>
1.750

> <Valence>
13.789

> <Coulomb>
-8.574

> <VdW>
0.628

> <VdW6>
-3.284

> <VdW12>
3.913

> <Bond>
0.054

> <Angle>
4.033

> <Pdih>
9.702

> <Idih>
0.000

> <Tether>
0.000

$$$$
VeraChem MOL file


 16 16  0  0  0  0  0  0  0  0999 V2000     
   18.0641   18.6732   22.4908 C   0  0  0  0  0  0  0  0  0  0  0  0
   17.6079   17.7136   22.7701 H   0  0  0  0  0  0  0  0  0  0  0  0
   17.2724   19.4348   22.5030 H   0  0  0  0  0  0  0  0  0  0  0  0
   18.7192   18.5574   21.0970 C   0  0  0  0  0  0  0  0  0  0  0  0
   18.5791   17.5420   20.7014 H   0  0  0  0  0  0  0  0  0  0  0  0
   18.2708   19.2591   20.3804 H   0  0  0  0  0  0  0  0  0  0  0  0
   20.2218   18.8502   21.2940 C   0  0  0  0  0  0  0  0  0  0  0  0
   20.4274   19.8989   21.0417 H   0  0  0  0  0  0  0  0  0  0  0  0
   20.8557   18.2222   20.6539 H   0  0  0  0  0  0  0  0  0  0  0  0
   20.5055   18.6319   22.7863 C   0  0  0  0  0  0  0  0  0  0  0  0
   21.3496   19.2460   23.1318 H   0  0  0  0  0  0  0  0  0  0  0  0
   19.1953   19.0329   23.4774 C   0  0  0  0  0  0  0  0  0  0  0  0
   19.0708   18.5403   24.4509 H   0  0  0  0  0  0  0  0  0  0  0  0
   19.2006   20.1173   23.6499 H   0  0  0  0  0  0  0  0  0  0  0  0
   20.7536   17.2530   23.0184 O   0  0  0  0  0  0  0  0  0  0  0  0
   19.9579   16.7910   22.6829 H   0  0  0  0  0  0  0  0  0  0  0  0
  1  2  1  0  0  0  0
  1  3  1  0  0  0  0
  1  4  1  0  0  0  0
  4  5  1  0  0  0  0
  4  6  1  0  0  0  0
  4  7  1  0  0  0  0
  7  8  1  0  0  0  0
  7  9  1  0  0  0  0
  7 10  1  0  0  0  0
 10 11  1  0  0  0  0
  1 12  1  0  0  0  0
 10 12  1  0  0  0  0
 12 13  1  0  0  0  0
 12 14  1  0  0  0  0
 10 15  1  0  0  0  0
 15 16  1  0  0  0  0
M  END
> <VConfSearch Rank>
279

> <Conf_Id>
20

> <Delta U+W>
-0.483

> <U+W>
2.527

> <U>
4.508

> <W>
-1.981

> <W(PB)>
-3.712

> <W(SA)>
1.732

> <Valence>
14.705

> <Coulomb>
-10.687

> <VdW>
0.490

> <VdW6>
-3.745

> <VdW12>
4.235

> <Bond>
0.068

> <Angle>
3.901

> <Pdih>
10.737

> <Idih>
0.000

> <Tether>
0.000

$$$$
VeraChem MOL file


 16 16  0  0  0  0  0  0  0  0999 V2000     
   18.4052   18.2061   21.2727 C   0  0  0  0  0  0  0  0  0  0  0  0
   19.0036   18.1287   20.3542 H   0  0  0  0  0  0  0  0  0  0  0  0
   17.3679   17.9369   21.0313 H   0  0  0  0  0  0  0  0  0  0  0  0
   18.5244   19.6248   21.8461 C   0  0  0  0  0  0  0  0  0  0  0  0
   18.5185   20.3943   21.0622 H   0  0  0  0  0  0  0  0  0  0  0  0
   17.6835   19.8206   22.5260 H   0  0  0  0  0  0  0  0  0  0  0  0
   19.8433   19.6075   22.6403 C   0  0  0  0  0  0  0  0  0  0  0  0
   19.8147   20.3129   23.4808 H   0  0  0  0  0  0  0  0  0  0  0  0
   20.6692   19.9035   21.9793 H   0  0  0  0  0  0  0  0  0  0  0  0
   20.0402   18.1555   23.1248 C   0  0  0  0  0  0  0  0  0  0  0  0
   19.8390   18.0883   24.2039 H   0  0  0  0  0  0  0  0  0  0  0  0
   19.0099   17.2989   22.3601 C   0  0  0  0  0  0  0  0  0  0  0  0
   19.4585   16.3942   21.9284 H   0  0  0  0  0  0  0  0  0  0  0  0
   18.2219   16.9815   23.0553 H   0  0  0  0  0  0  0  0  0  0  0  0
   21.3602   17.7145   22.8302 O   0  0  0  0  0  0  0  0  0  0  0  0
   21.9697   18.2972   23.3307 H   0  0  0  0  0  0  0  0  0  0  0  0
  1  2  1  0  0  0  0
  1  3  1  0  0  0  0
  1  4  1  0  0  0  0
  4  5  1  0  0  0  0
  4  6  1  0  0  0  0
  4  7  1  0  0  0  0
  7  8  1  0  0  0  0
  7  9  1  0  0  0  0
  7 10  1  0  0  0  0
 10 11  1  0  0  0  0
  1 12  1  0  0  0  0
 10 12  1  0  0  0  0
 12 13  1  0  0  0  0
 12 14  1  0  0  0  0
 10 15  1  0  0  0  0
 15 16  1  0  0  0  0
M  END
> <VConfSearch Rank>
280

> <Conf_Id>
59

> <Delta U+W>
0.000

> <U+W>
3.010

> <U>
5.843

> <W>
-2.833

> <W(PB)>
-4.568

> <W(SA)>
1.735

> <Valence>
13.789

> <Coulomb>
-8.574

> <VdW>
0.628

> <VdW6>
-3.284

> <VdW12>
3.912

> <Bond>
0.054

> <Angle>
4.034

> <Pdih>
9.702

> <Idih>
0.000

> <Tether>
0.000

$$$$
VeraChem MOL file


 16 16  0  0  0  0  0  0  0  0999 V2000     
   19.2717   19.9421   22.8017 C   0  0  0  0  0  0  0  0  0  0  0  0
   18.5820   20.4991   23.4504 H   0  0  0  0  0  0  0  0  0  0  0  0
   20.1279   20.5918   22.5725 H   0  0  0  0  0  0  0  0  0  0  0  0
   18.6057   19.4860   21.4963 C   0  0  0  0  0  0  0  0  0  0  0  0
   17.5792   19.1528   21.7035 H   0  0  0  0  0  0  0  0  0  0  0  0
   18.5628   20.2864   20.7452 H   0  0  0  0  0  0  0  0  0  0  0  0
   19.4526   18.2874   21.0301 C   0  0  0  0  0  0  0  0  0  0  0  0
   20.2650   18.6404   20.3817 H   0  0  0  0  0  0  0  0  0  0  0  0
   18.8540   17.5691   20.4542 H   0  0  0  0  0  0  0  0  0  0  0  0
   20.0603   17.6577   22.3005 C   0  0  0  0  0  0  0  0  0  0  0  0
   21.1464   17.5471   22.1673 H   0  0  0  0  0  0  0  0  0  0  0  0
   19.7670   18.6389   23.4550 C   0  0  0  0  0  0  0  0  0  0  0  0
   18.9787   18.2363   24.1057 H   0  0  0  0  0  0  0  0  0  0  0  0
   20.6576   18.8130   24.0726 H   0  0  0  0  0  0  0  0  0  0  0  0
   19.4542   16.3974   22.5614 O   0  0  0  0  0  0  0  0  0  0  0  0
   19.8676   16.0506   23.3802 H   0  0  0  0  0  0  0  0  0  0  0  0
  1  2  1  0  0  0  0
  1  3  1  0  0  0  0
  1  4  1  0  0  0  0
  4  5  1  0  0  0  0
  4  6  1  0  0  0  0
  4  7  1  0  0  0  0
  7  8  1  0  0  0  0
  7  9  1  0  0  0  0
  7 10  1  0  0  0  0
 10 11  1  0  0  0  0
  1 12  1  0  0  0  0
 10 12  1  0  0  0  0
 12 13  1  0  0  0  0
 12 14  1  0  0  0  0
 10 15  1  0  0  0  0
 15 16  1  0  0  0  0
M  END
> <VConfSearch Rank>
281

> <Conf_Id>
33

> <Delta U+W>
0.015

> <U+W>
3.025

> <U>
5.843

> <W>
-2.819

> <W(PB)>
-4.568

> <W(SA)>
1.750

> <Valence>
13.789

> <Coulomb>
-8.574

> <VdW>
0.628

> <VdW6>
-3.284

> <VdW12>
3.913

> <Bond>
0.054

> <Angle>
4.033

> <Pdih>
9.702

> <Idih>
0.000

> <Tether>
0.000

$$$$
VeraChem MOL file


 16 16  0  0  0  0  0  0  0  0999 V2000     
   18.7274   17.4631   22.4711 C   0  0  0  0  0  0  0  0  0  0  0  0
   18.6761   16.8028   21.5943 H   0  0  0  0  0  0  0  0  0  0  0  0
   18.2208   16.9535   23.3022 H   0  0  0  0  0  0  0  0  0  0  0  0
   18.0632   18.8191   22.1470 C   0  0  0  0  0  0  0  0  0  0  0  0
   17.6895   18.8148   21.1138 H   0  0  0  0  0  0  0  0  0  0  0  0
   17.2098   19.0194   22.8092 H   0  0  0  0  0  0  0  0  0  0  0  0
   19.1586   19.8938   22.3133 C   0  0  0  0  0  0  0  0  0  0  0  0
   19.0707   20.3568   23.3051 H   0  0  0  0  0  0  0  0  0  0  0  0
   19.0760   20.6919   21.5635 H   0  0  0  0  0  0  0  0  0  0  0  0
   20.4990   19.1516   22.2269 C   0  0  0  0  0  0  0  0  0  0  0  0
   21.2869   19.6723   22.7900 H   0  0  0  0  0  0  0  0  0  0  0  0
   20.1989   17.7694   22.8223 C   0  0  0  0  0  0  0  0  0  0  0  0
   20.8852   16.9977   22.4490 H   0  0  0  0  0  0  0  0  0  0  0  0
   20.3131   17.8186   23.9132 H   0  0  0  0  0  0  0  0  0  0  0  0
   20.8647   19.0038   20.8626 O   0  0  0  0  0  0  0  0  0  0  0  0
   20.1119   18.5355   20.4464 H   0  0  0  0  0  0  0  0  0  0  0  0
  1  2  1  0  0  0  0
  1  3  1  0  0  0  0
  1  4  1  0  0  0  0
  4  5  1  0  0  0  0
  4  6  1  0  0  0  0
  4  7  1  0  0  0  0
  7  8  1  0  0  0  0
  7  9  1  0  0  0  0
  7 10  1  0  0  0  0
 10 11  1  0  0  0  0
  1 12  1  0  0  0  0
 10 12  1  0  0  0  0
 12 13  1  0  0  0  0
 12 14  1  0  0  0  0
 10 15  1  0  0  0  0
 15 16  1  0  0  0  0
M  END
> <VConfSearch Rank>
282

> <Conf_Id>
20

> <Delta U+W>
-0.483

> <U+W>
2.527

> <U>
4.508

> <W>
-1.981

> <W(PB)>
-3.712

> <W(SA)>
1.732

> <Valence>
14.705

> <Coulomb>
-10.687

> <VdW>
0.490

> <VdW6>
-3.745

> <VdW12>
4.235

> <Bond>
0.068

> <Angle>
3.901

> <Pdih>
10.737

> <Idih>
0.000

> <Tether>
0.000

$$$$
VeraChem MOL file


 16 16  0  0  0  0  0  0  0  0999 V2000     
   19.1595   19.1327   23.6331 C   0  0  0  0  0  0  0  0  0  0  0  0
   18.0836   19.0277   23.8305 H   0  0  0  0  0  0  0  0  0  0  0  0
   19.6315   19.5706   24.5230 H   0  0  0  0  0  0  0  0  0  0  0  0
   19.3709   19.9882   22.3764 C   0  0  0  0  0  0  0  0  0  0  0  0
   18.6680   20.8306   22.3213 H   0  0  0  0  0  0  0  0  0  0  0  0
   20.3928   20.3924   22.3720 H   0  0  0  0  0  0  0  0  0  0  0  0
   19.1958   19.0016   21.2074 C   0  0  0  0  0  0  0  0  0  0  0  0
   19.7906   19.3031   20.3356 H   0  0  0  0  0  0  0  0  0  0  0  0
   18.1400   18.9807   20.9047 H   0  0  0  0  0  0  0  0  0  0  0  0
   19.6276   17.6181   21.7376 C   0  0  0  0  0  0  0  0  0  0  0  0
   20.6055   17.3422   21.3168 H   0  0  0  0  0  0  0  0  0  0  0  0
   19.7532   17.7594   23.2687 C   0  0  0  0  0  0  0  0  0  0  0  0
   19.2480   16.9453   23.8053 H   0  0  0  0  0  0  0  0  0  0  0  0
   20.8154   17.7322   23.5447 H   0  0  0  0  0  0  0  0  0  0  0  0
   18.6462   16.6402   21.4141 O   0  0  0  0  0  0  0  0  0  0  0  0
   18.6008   16.6005   20.4354 H   0  0  0  0  0  0  0  0  0  0  0  0
  1  2  1  0  0  0  0
  1  3  1  0  0  0  0
  1  4  1  0  0  0  0
  4  5  1  0  0  0  0
  4  6  1  0  0  0  0
  4  7  1  0  0  0  0
  7  8  1  0  0  0  0
  7  9  1  0  0  0  0
  7 10  1  0  0  0  0
 10 11  1  0  0  0  0
  1 12  1  0  0  0  0
 10 12  1  0  0  0  0
 12 13  1  0  0  0  0
 12 14  1  0  0  0  0
 10 15  1  0  0  0  0
 15 16  1  0  0  0  0
M  END
> <VConfSearch Rank>
283

> <Conf_Id>
59

> <Delta U+W>
0.000

> <U+W>
3.010

> <U>
5.843

> <W>
-2.833

> <W(PB)>
-4.568

> <W(SA)>
1.735

> <Valence>
13.789

> <Coulomb>
-8.574

> <VdW>
0.628

> <VdW6>
-3.284

> <VdW12>
3.912

> <Bond>
0.054

> <Angle>
4.034

> <Pdih>
9.702

> <Idih>
0.000

> <Tether>
0.000

$$$$
VeraChem MOL file


 16 16  0  0  0  0  0  0  0  0999 V2000     
   18.3296   18.0903   23.0193 C   0  0  0  0  0  0  0  0  0  0  0  0
   17.7956   18.2634   23.9635 H   0  0  0  0  0  0  0  0  0  0  0  0
   17.7507   17.3705   22.4241 H   0  0  0  0  0  0  0  0  0  0  0  0
   19.7498   17.5524   23.2418 C   0  0  0  0  0  0  0  0  0  0  0  0
   20.2059   18.0617   24.1022 H   0  0  0  0  0  0  0  0  0  0  0  0
   19.7633   16.4711   23.4352 H   0  0  0  0  0  0  0  0  0  0  0  0
   20.5102   17.9292   21.9570 C   0  0  0  0  0  0  0  0  0  0  0  0
   20.4192   17.1174   21.2235 H   0  0  0  0  0  0  0  0  0  0  0  0
   21.5798   18.0852   22.1511 H   0  0  0  0  0  0  0  0  0  0  0  0
   19.8264   19.1930   21.3958 C   0  0  0  0  0  0  0  0  0  0  0  0
   19.5805   19.0329   20.3359 H   0  0  0  0  0  0  0  0  0  0  0  0
   18.5329   19.3873   22.2148 C   0  0  0  0  0  0  0  0  0  0  0  0
   18.6448   20.2315   22.9088 H   0  0  0  0  0  0  0  0  0  0  0  0
   17.6723   19.5959   21.5662 H   0  0  0  0  0  0  0  0  0  0  0  0
   20.6790   20.3214   21.5499 O   0  0  0  0  0  0  0  0  0  0  0  0
   20.1926   21.0927   21.1893 H   0  0  0  0  0  0  0  0  0  0  0  0
  1  2  1  0  0  0  0
  1  3  1  0  0  0  0
  1  4  1  0  0  0  0
  4  5  1  0  0  0  0
  4  6  1  0  0  0  0
  4  7  1  0  0  0  0
  7  8  1  0  0  0  0
  7  9  1  0  0  0  0
  7 10  1  0  0  0  0
 10 11  1  0  0  0  0
  1 12  1  0  0  0  0
 10 12  1  0  0  0  0
 12 13  1  0  0  0  0
 12 14  1  0  0  0  0
 10 15  1  0  0  0  0
 15 16  1  0  0  0  0
M  END
> <VConfSearch Rank>
284

> <Conf_Id>
33

> <Delta U+W>
0.015

> <U+W>
3.025

> <U>
5.843

> <W>
-2.819

> <W(PB)>
-4.568

> <W(SA)>
1.750

> <Valence>
13.789

> <Coulomb>
-8.574

> <VdW>
0.628

> <VdW6>
-3.284

> <VdW12>
3.913

> <Bond>
0.054

> <Angle>
4.033

> <Pdih>
9.702

> <Idih>
0.000

> <Tether>
0.000

$$$$
VeraChem MOL file


 16 16  0  0  0  0  0  0  0  0999 V2000     
   19.0081   19.1866   23.4052 C   0  0  0  0  0  0  0  0  0  0  0  0
   18.3499   20.0577   23.2817 H   0  0  0  0  0  0  0  0  0  0  0  0
   19.1585   19.0326   24.4825 H   0  0  0  0  0  0  0  0  0  0  0  0
   20.3463   19.4317   22.6743 C   0  0  0  0  0  0  0  0  0  0  0  0
   20.3361   20.4218   22.1980 H   0  0  0  0  0  0  0  0  0  0  0  0
   21.1969   19.4049   23.3691 H   0  0  0  0  0  0  0  0  0  0  0  0
   20.4692   18.3264   21.6039 C   0  0  0  0  0  0  0  0  0  0  0  0
   21.1000   17.5134   21.9870 H   0  0  0  0  0  0  0  0  0  0  0  0
   20.9262   18.6948   20.6758 H   0  0  0  0  0  0  0  0  0  0  0  0
   19.0484   17.7916   21.3800 C   0  0  0  0  0  0  0  0  0  0  0  0
   19.0583   16.7440   21.0464 H   0  0  0  0  0  0  0  0  0  0  0  0
   18.3733   17.9417   22.7499 C   0  0  0  0  0  0  0  0  0  0  0  0
   17.2813   18.0252   22.6686 H   0  0  0  0  0  0  0  0  0  0  0  0
   18.5962   17.0539   23.3564 H   0  0  0  0  0  0  0  0  0  0  0  0
   18.3811   18.6174   20.4367 O   0  0  0  0  0  0  0  0  0  0  0  0
   18.4219   19.5200   20.8145 H   0  0  0  0  0  0  0  0  0  0  0  0
  1  2  1  0  0  0  0
  1  3  1  0  0  0  0
  1  4  1  0  0  0  0
  4  5  1  0  0  0  0
  4  6  1  0  0  0  0
  4  7  1  0  0  0  0
  7  8  1  0  0  0  0
  7  9  1  0  0  0  0
  7 10  1  0  0  0  0
 10 11  1  0  0  0  0
  1 12  1  0  0  0  0
 10 12  1  0  0  0  0
 12 13  1  0  0  0  0
 12 14  1  0  0  0  0
 10 15  1  0  0  0  0
 15 16  1  0  0  0  0
M  END
> <VConfSearch Rank>
285

> <Conf_Id>
20

> <Delta U+W>
-0.483

> <U+W>
2.527

> <U>
4.508

> <W>
-1.981

> <W(PB)>
-3.712

> <W(SA)>
1.732

> <Valence>
14.705

> <Coulomb>
-10.687

> <VdW>
0.490

> <VdW6>
-3.745

> <VdW12>
4.235

> <Bond>
0.068

> <Angle>
3.901

> <Pdih>
10.737

> <Idih>
0.000

> <Tether>
0.000

$$$$
VeraChem MOL file


 16 16  0  0  0  0  0  0  0  0999 V2000     
   19.8400   19.0975   21.0547 C   0  0  0  0  0  0  0  0  0  0  0  0
   19.0895   19.8449   20.7618 H   0  0  0  0  0  0  0  0  0  0  0  0
   20.6518   19.1168   20.3149 H   0  0  0  0  0  0  0  0  0  0  0  0
   19.1771   17.7174   21.1618 C   0  0  0  0  0  0  0  0  0  0  0  0
   18.4406   17.5446   20.3653 H   0  0  0  0  0  0  0  0  0  0  0  0
   19.9439   16.9329   21.0969 H   0  0  0  0  0  0  0  0  0  0  0  0
   18.5385   17.7068   22.5628 C   0  0  0  0  0  0  0  0  0  0  0  0
   18.4899   16.6902   22.9738 H   0  0  0  0  0  0  0  0  0  0  0  0
   17.5124   18.0936   22.4971 H   0  0  0  0  0  0  0  0  0  0  0  0
   19.4041   18.6336   23.4423 C   0  0  0  0  0  0  0  0  0  0  0  0
   20.0102   18.0345   24.1374 H   0  0  0  0  0  0  0  0  0  0  0  0
   20.3375   19.3978   22.4808 C   0  0  0  0  0  0  0  0  0  0  0  0
   20.3530   20.4768   22.6847 H   0  0  0  0  0  0  0  0  0  0  0  0
   21.3614   19.0208   22.6008 H   0  0  0  0  0  0  0  0  0  0  0  0
   18.5779   19.5474   24.1538 O   0  0  0  0  0  0  0  0  0  0  0  0
   18.0017   19.0100   24.7374 H   0  0  0  0  0  0  0  0  0  0  0  0
  1  2  1  0  0  0  0
  1  3  1  0  0  0  0
  1  4  1  0  0  0  0
  4  5  1  0  0  0  0
  4  6  1  0  0  0  0
  4  7  1  0  0  0  0
  7  8  1  0  0  0  0
  7  9  1  0  0  0  0
  7 10  1  0  0  0  0
 10 11  1  0  0  0  0
  1 12  1  0  0  0  0
 10 12  1  0  0  0  0
 12 13  1  0  0  0  0
 12 14  1  0  0  0  0
 10 15  1  0  0  0  0
 15 16  1  0  0  0  0
M  END
> <VConfSearch Rank>
286

> <Conf_Id>
59

> <Delta U+W>
0.000

> <U+W>
3.010

> <U>
5.843

> <W>
-2.833

> <W(PB)>
-4.568

> <W(SA)>
1.735

> <Valence>
13.789

> <Coulomb>
-8.574

> <VdW>
0.628

> <VdW6>
-3.284

> <VdW12>
3.912

> <Bond>
0.054

> <Angle>
4.034

> <Pdih>
9.702

> <Idih>
0.000

> <Tether>
0.000

$$$$
VeraChem MOL file


 16 16  0  0  0  0  0  0  0  0999 V2000     
   19.6281   20.0306   22.1585 C   0  0  0  0  0  0  0  0  0  0  0  0
   20.2783   20.7431   21.6329 H   0  0  0  0  0  0  0  0  0  0  0  0
   18.8123   20.5945   22.6318 H   0  0  0  0  0  0  0  0  0  0  0  0
   20.3849   19.2253   23.2237 C   0  0  0  0  0  0  0  0  0  0  0  0
   21.3813   18.9584   22.8446 H   0  0  0  0  0  0  0  0  0  0  0  0
   20.5116   19.7843   24.1607 H   0  0  0  0  0  0  0  0  0  0  0  0
   19.5450   17.9483   23.4101 C   0  0  0  0  0  0  0  0  0  0  0  0
   18.7984   18.1102   24.1985 H   0  0  0  0  0  0  0  0  0  0  0  0
   20.1677   17.0950   23.7104 H   0  0  0  0  0  0  0  0  0  0  0  0
   18.8182   17.7007   22.0722 C   0  0  0  0  0  0  0  0  0  0  0  0
   17.7438   17.5624   22.2625 H   0  0  0  0  0  0  0  0  0  0  0  0
   19.0444   18.9635   21.2144 C   0  0  0  0  0  0  0  0  0  0  0  0
   19.7653   18.7547   20.4122 H   0  0  0  0  0  0  0  0  0  0  0  0
   18.1118   19.3071   20.7485 H   0  0  0  0  0  0  0  0  0  0  0  0
   19.3649   16.5603   21.4206 O   0  0  0  0  0  0  0  0  0  0  0  0
   18.8765   16.4575   20.5766 H   0  0  0  0  0  0  0  0  0  0  0  0
  1  2  1  0  0  0  0
  1  3  1  0  0  0  0
  1  4  1  0  0  0  0
  4  5  1  0  0  0  0
  4  6  1  0  0  0  0
  4  7  1  0  0  0  0
  7  8  1  0  0  0  0
  7  9  1  0  0  0  0
  7 10  1  0  0  0  0
 10 11  1  0  0  0  0
  1 12  1  0  0  0  0
 10 12  1  0  0  0  0
 12 13  1  0  0  0  0
 12 14  1  0  0  0  0
 10 15  1  0  0  0  0
 15 16  1  0  0  0  0
M  END
> <VConfSearch Rank>
287

> <Conf_Id>
33

> <Delta U+W>
0.015

> <U+W>
3.025

> <U>
5.843

> <W>
-2.819

> <W(PB)>
-4.568

> <W(SA)>
1.750

> <Valence>
13.789

> <Coulomb>
-8.574

> <VdW>
0.628

> <VdW6>
-3.284

> <VdW12>
3.913

> <Bond>
0.054

> <Angle>
4.033

> <Pdih>
9.702

> <Idih>
0.000

> <Tether>
0.000

$$$$
VeraChem MOL file


 16 16  0  0  0  0  0  0  0  0999 V2000     
   19.0631   17.3507   22.5730 C   0  0  0  0  0  0  0  0  0  0  0  0
   19.6879   16.9123   23.3633 H   0  0  0  0  0  0  0  0  0  0  0  0
   18.3224   16.5954   22.2763 H   0  0  0  0  0  0  0  0  0  0  0  0
   19.9470   17.7782   21.3810 C   0  0  0  0  0  0  0  0  0  0  0  0
   20.9995   17.5457   21.5939 H   0  0  0  0  0  0  0  0  0  0  0  0
   19.6681   17.2473   20.4605 H   0  0  0  0  0  0  0  0  0  0  0  0
   19.7593   19.3019   21.2212 C   0  0  0  0  0  0  0  0  0  0  0  0
   19.0176   19.4998   20.4361 H   0  0  0  0  0  0  0  0  0  0  0  0
   20.6910   19.8084   20.9359 H   0  0  0  0  0  0  0  0  0  0  0  0
   19.2111   19.8057   22.5631 C   0  0  0  0  0  0  0  0  0  0  0  0
   18.6023   20.7126   22.4366 H   0  0  0  0  0  0  0  0  0  0  0  0
   18.3734   18.6319   23.0880 C   0  0  0  0  0  0  0  0  0  0  0  0
   18.2806   18.6436   24.1822 H   0  0  0  0  0  0  0  0  0  0  0  0
   17.3619   18.6990   22.6661 H   0  0  0  0  0  0  0  0  0  0  0  0
   20.2936   20.0419   23.4515 O   0  0  0  0  0  0  0  0  0  0  0  0
   20.7729   19.1894   23.5014 H   0  0  0  0  0  0  0  0  0  0  0  0
  1  2  1  0  0  0  0
  1  3  1  0  0  0  0
  1  4  1  0  0  0  0
  4  5  1  0  0  0  0
  4  6  1  0  0  0  0
  4  7  1  0  0  0  0
  7  8  1  0  0  0  0
  7  9  1  0  0  0  0
  7 10  1  0  0  0  0
 10 11  1  0  0  0  0
  1 12  1  0  0  0  0
 10 12  1  0  0  0  0
 12 13  1  0  0  0  0
 12 14  1  0  0  0  0
 10 15  1  0  0  0  0
 15 16  1  0  0  0  0
M  END
> <VConfSearch Rank>
288

> <Conf_Id>
20

> <Delta U+W>
-0.483

> <U+W>
2.527

> <U>
4.508

> <W>
-1.981

> <W(PB)>
-3.712

> <W(SA)>
1.732

> <Valence>
14.705

> <Coulomb>
-10.687

> <VdW>
0.490

> <VdW6>
-3.745

> <VdW12>
4.235

> <Bond>
0.068

> <Angle>
3.901

> <Pdih>
10.737

> <Idih>
0.000

> <Tether>
0.000

$$$$
VeraChem MOL file


 16 16  0  0  0  0  0  0  0  0999 V2000     
   19.6399   19.8948   22.8009 C   0  0  0  0  0  0  0  0  0  0  0  0
   20.4092   20.2879   22.1217 H   0  0  0  0  0  0  0  0  0  0  0  0
   19.3723   20.6870   23.5132 H   0  0  0  0  0  0  0  0  0  0  0  0
   20.1659   18.6327   23.4982 C   0  0  0  0  0  0  0  0  0  0  0  0
   21.2238   18.7212   23.7805 H   0  0  0  0  0  0  0  0  0  0  0  0
   19.5818   18.4432   24.4096 H   0  0  0  0  0  0  0  0  0  0  0  0
   19.9236   17.5033   22.4801 C   0  0  0  0  0  0  0  0  0  0  0  0
   19.7611   16.5401   22.9807 H   0  0  0  0  0  0  0  0  0  0  0  0
   20.8053   17.4026   21.8327 H   0  0  0  0  0  0  0  0  0  0  0  0
   18.6942   17.9246   21.6477 C   0  0  0  0  0  0  0  0  0  0  0  0
   17.8194   17.3250   21.9386 H   0  0  0  0  0  0  0  0  0  0  0  0
   18.4301   19.4071   21.9826 C   0  0  0  0  0  0  0  0  0  0  0  0
   18.2786   20.0173   21.0822 H   0  0  0  0  0  0  0  0  0  0  0  0
   17.5198   19.4797   22.5919 H   0  0  0  0  0  0  0  0  0  0  0  0
   18.9672   17.7763   20.2594 O   0  0  0  0  0  0  0  0  0  0  0  0
   19.1374   16.8228   20.1065 H   0  0  0  0  0  0  0  0  0  0  0  0
  1  2  1  0  0  0  0
  1  3  1  0  0  0  0
  1  4  1  0  0  0  0
  4  5  1  0  0  0  0
  4  6  1  0  0  0  0
  4  7  1  0  0  0  0
  7  8  1  0  0  0  0
  7  9  1  0  0  0  0
  7 10  1  0  0  0  0
 10 11  1  0  0  0  0
  1 12  1  0  0  0  0
 10 12  1  0  0  0  0
 12 13  1  0  0  0  0
 12 14  1  0  0  0  0
 10 15  1  0  0  0  0
 15 16  1  0  0  0  0
M  END
> <VConfSearch Rank>
289

> <Conf_Id>
59

> <Delta U+W>
0.000

> <U+W>
3.010

> <U>
5.843

> <W>
-2.833

> <W(PB)>
-4.568

> <W(SA)>
1.735

> <Valence>
13.789

> <Coulomb>
-8.574

> <VdW>
0.628

> <VdW6>
-3.284

> <VdW12>
3.912

> <Bond>
0.054

> <Angle>
4.034

> <Pdih>
9.702

> <Idih>
0.000

> <Tether>
0.000

$$$$
VeraChem MOL file


 16 16  0  0  0  0  0  0  0  0999 V2000     
   20.7710   19.0414   22.6623 C   0  0  0  0  0  0  0  0  0  0  0  0
   21.3474   19.9714   22.7597 H   0  0  0  0  0  0  0  0  0  0  0  0
   21.3710   18.2201   23.0783 H   0  0  0  0  0  0  0  0  0  0  0  0
   20.4087   18.7288   21.2040 C   0  0  0  0  0  0  0  0  0  0  0  0
   20.1363   19.6583   20.6848 H   0  0  0  0  0  0  0  0  0  0  0  0
   21.2377   18.2594   20.6571 H   0  0  0  0  0  0  0  0  0  0  0  0
   19.1753   17.8121   21.3014 C   0  0  0  0  0  0  0  0  0  0  0  0
   19.4980   16.7639   21.3470 H   0  0  0  0  0  0  0  0  0  0  0  0
   18.5199   17.9219   20.4271 H   0  0  0  0  0  0  0  0  0  0  0  0
   18.4599   18.1759   22.6188 C   0  0  0  0  0  0  0  0  0  0  0  0
   18.2831   17.2599   23.2012 H   0  0  0  0  0  0  0  0  0  0  0  0
   19.4144   19.1143   23.3870 C   0  0  0  0  0  0  0  0  0  0  0  0
   19.0406   20.1468   23.3551 H   0  0  0  0  0  0  0  0  0  0  0  0
   19.5064   18.8215   24.4408 H   0  0  0  0  0  0  0  0  0  0  0  0
   17.2333   18.8419   22.3433 O   0  0  0  0  0  0  0  0  0  0  0  0
   16.8297   19.0581   23.2104 H   0  0  0  0  0  0  0  0  0  0  0  0
  1  2  1  0  0  0  0
  1  3  1  0  0  0  0
  1  4  1  0  0  0  0
  4  5  1  0  0  0  0
  4  6  1  0  0  0  0
  4  7  1  0  0  0  0
  7  8  1  0  0  0  0
  7  9  1  0  0  0  0
  7 10  1  0  0  0  0
 10 11  1  0  0  0  0
  1 12  1  0  0  0  0
 10 12  1  0  0  0  0
 12 13  1  0  0  0  0
 12 14  1  0  0  0  0
 10 15  1  0  0  0  0
 15 16  1  0  0  0  0
M  END
> <VConfSearch Rank>
290

> <Conf_Id>
33

> <Delta U+W>
0.015

> <U+W>
3.025

> <U>
5.843

> <W>
-2.819

> <W(PB)>
-4.568

> <W(SA)>
1.750

> <Valence>
13.789

> <Coulomb>
-8.574

> <VdW>
0.628

> <VdW6>
-3.284

> <VdW12>
3.913

> <Bond>
0.054

> <Angle>
4.033

> <Pdih>
9.702

> <Idih>
0.000

> <Tether>
0.000

$$$$
VeraChem MOL file


 16 16  0  0  0  0  0  0  0  0999 V2000     
   19.5149   17.3330   22.6255 C   0  0  0  0  0  0  0  0  0  0  0  0
   20.2992   17.1596   23.3752 H   0  0  0  0  0  0  0  0  0  0  0  0
   19.0453   16.3647   22.4043 H   0  0  0  0  0  0  0  0  0  0  0  0
   20.1300   17.9682   21.3593 C   0  0  0  0  0  0  0  0  0  0  0  0
   21.2120   18.1013   21.4958 H   0  0  0  0  0  0  0  0  0  0  0  0
   19.9812   17.3327   20.4756 H   0  0  0  0  0  0  0  0  0  0  0  0
   19.4428   19.3385   21.1791 C   0  0  0  0  0  0  0  0  0  0  0  0
   18.6277   19.2471   20.4492 H   0  0  0  0  0  0  0  0  0  0  0  0
   20.1361   20.1067   20.8113 H   0  0  0  0  0  0  0  0  0  0  0  0
   18.8485   19.6992   22.5472 C   0  0  0  0  0  0  0  0  0  0  0  0
   17.9690   20.3515   22.4471 H   0  0  0  0  0  0  0  0  0  0  0  0
   18.4783   18.3428   23.1622 C   0  0  0  0  0  0  0  0  0  0  0  0
   18.4584   18.3752   24.2597 H   0  0  0  0  0  0  0  0  0  0  0  0
   17.4755   18.0571   22.8181 H   0  0  0  0  0  0  0  0  0  0  0  0
   19.8491   20.3165   23.3438 O   0  0  0  0  0  0  0  0  0  0  0  0
   20.5838   19.6697   23.3764 H   0  0  0  0  0  0  0  0  0  0  0  0
  1  2  1  0  0  0  0
  1  3  1  0  0  0  0
  1  4  1  0  0  0  0
  4  5  1  0  0  0  0
  4  6  1  0  0  0  0
  4  7  1  0  0  0  0
  7  8  1  0  0  0  0
  7  9  1  0  0  0  0
  7 10  1  0  0  0  0
 10 11  1  0  0  0  0
  1 12  1  0  0  0  0
 10 12  1  0  0  0  0
 12 13  1  0  0  0  0
 12 14  1  0  0  0  0
 10 15  1  0  0  0  0
 15 16  1  0  0  0  0
M  END
> <VConfSearch Rank>
291

> <Conf_Id>
20

> <Delta U+W>
-0.483

> <U+W>
2.527

> <U>
4.508

> <W>
-1.981

> <W(PB)>
-3.712

> <W(SA)>
1.732

> <Valence>
14.705

> <Coulomb>
-10.687

> <VdW>
0.490

> <VdW6>
-3.745

> <VdW12>
4.235

> <Bond>
0.068

> <Angle>
3.901

> <Pdih>
10.737

> <Idih>
0.000

> <Tether>
0.000

$$$$
VeraChem MOL file


 16 16  0  0  0  0  0  0  0  0999 V2000     
   20.1830   18.9493   23.4443 C   0  0  0  0  0  0  0  0  0  0  0  0
   20.2685   20.0421   23.3654 H   0  0  0  0  0  0  0  0  0  0  0  0
   20.6998   18.6288   24.3590 H   0  0  0  0  0  0  0  0  0  0  0  0
   20.7640   18.2956   22.1830 C   0  0  0  0  0  0  0  0  0  0  0  0
   21.6746   18.8002   21.8323 H   0  0  0  0  0  0  0  0  0  0  0  0
   21.0118   17.2455   22.3916 H   0  0  0  0  0  0  0  0  0  0  0  0
   19.6213   18.3667   21.1535 C   0  0  0  0  0  0  0  0  0  0  0  0
   19.6764   17.5384   20.4353 H   0  0  0  0  0  0  0  0  0  0  0  0
   19.6974   19.3070   20.5907 H   0  0  0  0  0  0  0  0  0  0  0  0
   18.3063   18.3313   21.9604 C   0  0  0  0  0  0  0  0  0  0  0  0
   17.8243   17.3487   21.8516 H   0  0  0  0  0  0  0  0  0  0  0  0
   18.6967   18.5465   23.4372 C   0  0  0  0  0  0  0  0  0  0  0  0
   18.0704   19.3035   23.9279 H   0  0  0  0  0  0  0  0  0  0  0  0
   18.5682   17.6026   23.9827 H   0  0  0  0  0  0  0  0  0  0  0  0
   17.4361   19.3698   21.5266 O   0  0  0  0  0  0  0  0  0  0  0  0
   17.2308   19.1897   20.5848 H   0  0  0  0  0  0  0  0  0  0  0  0
  1  2  1  0  0  0  0
  1  3  1  0  0  0  0
  1  4  1  0  0  0  0
  4  5  1  0  0  0  0
  4  6  1  0  0  0  0
  4  7  1  0  0  0  0
  7  8  1  0  0  0  0
  7  9  1  0  0  0  0
  7 10  1  0  0  0  0
 10 11  1  0  0  0  0
  1 12  1  0  0  0  0
 10 12  1  0  0  0  0
 12 13  1  0  0  0  0
 12 14  1  0  0  0  0
 10 15  1  0  0  0  0
 15 16  1  0  0  0  0
M  END
> <VConfSearch Rank>
292

> <Conf_Id>
59

> <Delta U+W>
0.000

> <U+W>
3.010

> <U>
5.843

> <W>
-2.833

> <W(PB)>
-4.568

> <W(SA)>
1.735

> <Valence>
13.789

> <Coulomb>
-8.574

> <VdW>
0.628

> <VdW6>
-3.284

> <VdW12>
3.912

> <Bond>
0.054

> <Angle>
4.034

> <Pdih>
9.702

> <Idih>
0.000

> <Tether>
0.000

$$$$
VeraChem MOL file


 16 16  0  0  0  0  0  0  0  0999 V2000     
   20.5006   18.5225   21.3161 C   0  0  0  0  0  0  0  0  0  0  0  0
   21.4438   17.9832   21.1543 H   0  0  0  0  0  0  0  0  0  0  0  0
   20.2558   19.0705   20.3956 H   0  0  0  0  0  0  0  0  0  0  0  0
   20.5831   19.5029   22.4941 C   0  0  0  0  0  0  0  0  0  0  0  0
   21.1601   19.0486   23.3117 H   0  0  0  0  0  0  0  0  0  0  0  0
   21.0650   20.4507   22.2181 H   0  0  0  0  0  0  0  0  0  0  0  0
   19.1215   19.6946   22.9390 C   0  0  0  0  0  0  0  0  0  0  0  0
   18.6772   20.5363   22.3920 H   0  0  0  0  0  0  0  0  0  0  0  0
   19.0515   19.9194   24.0116 H   0  0  0  0  0  0  0  0  0  0  0  0
   18.3736   18.3990   22.5622 C   0  0  0  0  0  0  0  0  0  0  0  0
   17.4703   18.6545   21.9893 H   0  0  0  0  0  0  0  0  0  0  0  0
   19.3415   17.5782   21.6841 C   0  0  0  0  0  0  0  0  0  0  0  0
   19.7355   16.7225   22.2492 H   0  0  0  0  0  0  0  0  0  0  0  0
   18.8414   17.1888   20.7879 H   0  0  0  0  0  0  0  0  0  0  0  0
   18.0359   17.6687   23.7354 O   0  0  0  0  0  0  0  0  0  0  0  0
   17.5759   16.8554   23.4378 H   0  0  0  0  0  0  0  0  0  0  0  0
  1  2  1  0  0  0  0
  1  3  1  0  0  0  0
  1  4  1  0  0  0  0
  4  5  1  0  0  0  0
  4  6  1  0  0  0  0
  4  7  1  0  0  0  0
  7  8  1  0  0  0  0
  7  9  1  0  0  0  0
  7 10  1  0  0  0  0
 10 11  1  0  0  0  0
  1 12  1  0  0  0  0
 10 12  1  0  0  0  0
 12 13  1  0  0  0  0
 12 14  1  0  0  0  0
 10 15  1  0  0  0  0
 15 16  1  0  0  0  0
M  END
> <VConfSearch Rank>
293

> <Conf_Id>
33

> <Delta U+W>
0.015

> <U+W>
3.025

> <U>
5.843

> <W>
-2.819

> <W(PB)>
-4.568

> <W(SA)>
1.750

> <Valence>
13.789

> <Coulomb>
-8.574

> <VdW>
0.628

> <VdW6>
-3.284

> <VdW12>
3.913

> <Bond>
0.054

> <Angle>
4.033

> <Pdih>
9.702

> <Idih>
0.000

> <Tether>
0.000

$$$$
VeraChem MOL file


 16 16  0  0  0  0  0  0  0  0999 V2000     
   19.8060   19.0918   23.4286 C   0  0  0  0  0  0  0  0  0  0  0  0
   19.0842   18.9892   24.2507 H   0  0  0  0  0  0  0  0  0  0  0  0
   20.7099   19.5651   23.8359 H   0  0  0  0  0  0  0  0  0  0  0  0
   19.1888   19.9325   22.2896 C   0  0  0  0  0  0  0  0  0  0  0  0
   18.1687   20.2377   22.5608 H   0  0  0  0  0  0  0  0  0  0  0  0
   19.7705   20.8451   22.1003 H   0  0  0  0  0  0  0  0  0  0  0  0
   19.1596   19.0244   21.0418 C   0  0  0  0  0  0  0  0  0  0  0  0
   20.0308   19.2415   20.4097 H   0  0  0  0  0  0  0  0  0  0  0  0
   18.2585   19.1811   20.4340 H   0  0  0  0  0  0  0  0  0  0  0  0
   19.2673   17.5845   21.5613 C   0  0  0  0  0  0  0  0  0  0  0  0
   19.7323   16.9201   20.8187 H   0  0  0  0  0  0  0  0  0  0  0  0
   20.1277   17.7077   22.8260 C   0  0  0  0  0  0  0  0  0  0  0  0
   19.9424   16.8911   23.5365 H   0  0  0  0  0  0  0  0  0  0  0  0
   21.1875   17.6689   22.5414 H   0  0  0  0  0  0  0  0  0  0  0  0
   17.9744   17.1183   21.9189 O   0  0  0  0  0  0  0  0  0  0  0  0
   17.6431   17.7648   22.5757 H   0  0  0  0  0  0  0  0  0  0  0  0
  1  2  1  0  0  0  0
  1  3  1  0  0  0  0
  1  4  1  0  0  0  0
  4  5  1  0  0  0  0
  4  6  1  0  0  0  0
  4  7  1  0  0  0  0
  7  8  1  0  0  0  0
  7  9  1  0  0  0  0
  7 10  1  0  0  0  0
 10 11  1  0  0  0  0
  1 12  1  0  0  0  0
 10 12  1  0  0  0  0
 12 13  1  0  0  0  0
 12 14  1  0  0  0  0
 10 15  1  0  0  0  0
 15 16  1  0  0  0  0
M  END
> <VConfSearch Rank>
294

> <Conf_Id>
20

> <Delta U+W>
-0.483

> <U+W>
2.527

> <U>
4.508

> <W>
-1.981

> <W(PB)>
-3.712

> <W(SA)>
1.732

> <Valence>
14.705

> <Coulomb>
-10.687

> <VdW>
0.490

> <VdW6>
-3.745

> <VdW12>
4.235

> <Bond>
0.068

> <Angle>
3.901

> <Pdih>
10.737

> <Idih>
0.000

> <Tether>
0.000

$$$$
VeraChem MOL file


 16 16  0  0  0  0  0  0  0  0999 V2000     
   18.7792   18.9509   21.0409 C   0  0  0  0  0  0  0  0  0  0  0  0
   19.0700   20.0027   20.9119 H   0  0  0  0  0  0  0  0  0  0  0  0
   18.2322   18.6325   20.1431 H   0  0  0  0  0  0  0  0  0  0  0  0
   17.9441   18.8014   22.3199 C   0  0  0  0  0  0  0  0  0  0  0  0
   17.2451   19.6367   22.4628 H   0  0  0  0  0  0  0  0  0  0  0  0
   17.3621   17.8703   22.2747 H   0  0  0  0  0  0  0  0  0  0  0  0
   18.9863   18.7098   23.4495 C   0  0  0  0  0  0  0  0  0  0  0  0
   18.6129   18.1144   24.2926 H   0  0  0  0  0  0  0  0  0  0  0  0
   19.2084   19.7193   23.8215 H   0  0  0  0  0  0  0  0  0  0  0  0
   20.2495   18.0799   22.8256 C   0  0  0  0  0  0  0  0  0  0  0  0
   20.3586   17.0397   23.1657 H   0  0  0  0  0  0  0  0  0  0  0  0
   20.0343   18.0967   21.2981 C   0  0  0  0  0  0  0  0  0  0  0  0
   20.9071   18.4879   20.7585 H   0  0  0  0  0  0  0  0  0  0  0  0
   19.8592   17.0704   20.9500 H   0  0  0  0  0  0  0  0  0  0  0  0
   21.3995   18.8445   23.1675 O   0  0  0  0  0  0  0  0  0  0  0  0
   21.4810   18.8086   24.1440 H   0  0  0  0  0  0  0  0  0  0  0  0
  1  2  1  0  0  0  0
  1  3  1  0  0  0  0
  1  4  1  0  0  0  0
  4  5  1  0  0  0  0
  4  6  1  0  0  0  0
  4  7  1  0  0  0  0
  7  8  1  0  0  0  0
  7  9  1  0  0  0  0
  7 10  1  0  0  0  0
 10 11  1  0  0  0  0
  1 12  1  0  0  0  0
 10 12  1  0  0  0  0
 12 13  1  0  0  0  0
 12 14  1  0  0  0  0
 10 15  1  0  0  0  0
 15 16  1  0  0  0  0
M  END
> <VConfSearch Rank>
295

> <Conf_Id>
59

> <Delta U+W>
0.000

> <U+W>
3.010

> <U>
5.843

> <W>
-2.833

> <W(PB)>
-4.568

> <W(SA)>
1.735

> <Valence>
13.789

> <Coulomb>
-8.574

> <VdW>
0.628

> <VdW6>
-3.284

> <VdW12>
3.912

> <Bond>
0.054

> <Angle>
4.034

> <Pdih>
9.702

> <Idih>
0.000

> <Tether>
0.000

$$$$
VeraChem MOL file


 16 16  0  0  0  0  0  0  0  0999 V2000     
   20.1192   17.3537   22.4697 C   0  0  0  0  0  0  0  0  0  0  0  0
   19.9672   16.2906   22.2382 H   0  0  0  0  0  0  0  0  0  0  0  0
   21.1398   17.4783   22.8575 H   0  0  0  0  0  0  0  0  0  0  0  0
   19.1082   17.8776   23.4988 C   0  0  0  0  0  0  0  0  0  0  0  0
   18.1184   17.4454   23.2958 H   0  0  0  0  0  0  0  0  0  0  0  0
   19.3895   17.6240   24.5300 H   0  0  0  0  0  0  0  0  0  0  0  0
   19.0663   19.3979   23.2582 C   0  0  0  0  0  0  0  0  0  0  0  0
   19.8191   19.8913   23.8866 H   0  0  0  0  0  0  0  0  0  0  0  0
   18.0865   19.8213   23.5164 H   0  0  0  0  0  0  0  0  0  0  0  0
   19.4268   19.6185   21.7745 C   0  0  0  0  0  0  0  0  0  0  0  0
   20.2336   20.3625   21.7034 H   0  0  0  0  0  0  0  0  0  0  0  0
   19.9158   18.2562   21.2390 C   0  0  0  0  0  0  0  0  0  0  0  0
   19.1560   17.8101   20.5829 H   0  0  0  0  0  0  0  0  0  0  0  0
   20.8425   18.3595   20.6598 H   0  0  0  0  0  0  0  0  0  0  0  0
   18.2805   20.0480   21.0498 O   0  0  0  0  0  0  0  0  0  0  0  0
   18.5631   20.1609   20.1176 H   0  0  0  0  0  0  0  0  0  0  0  0
  1  2  1  0  0  0  0
  1  3  1  0  0  0  0
  1  4  1  0  0  0  0
  4  5  1  0  0  0  0
  4  6  1  0  0  0  0
  4  7  1  0  0  0  0
  7  8  1  0  0  0  0
  7  9  1  0  0  0  0
  7 10  1  0  0  0  0
 10 11  1  0  0  0  0
  1 12  1  0  0  0  0
 10 12  1  0  0  0  0
 12 13  1  0  0  0  0
 12 14  1  0  0  0  0
 10 15  1  0  0  0  0
 15 16  1  0  0  0  0
M  END
> <VConfSearch Rank>
296

> <Conf_Id>
33

> <Delta U+W>
0.015

> <U+W>
3.025

> <U>
5.843

> <W>
-2.819

> <W(PB)>
-4.568

> <W(SA)>
1.750

> <Valence>
13.789

> <Coulomb>
-8.574

> <VdW>
0.628

> <VdW6>
-3.284

> <VdW12>
3.913

> <Bond>
0.054

> <Angle>
4.033

> <Pdih>
9.702

> <Idih>
0.000

> <Tether>
0.000

$$$$
VeraChem MOL file


 16 16  0  0  0  0  0  0  0  0999 V2000     
   18.9530   17.6576   21.4234 C   0  0  0  0  0  0  0  0  0  0  0  0
   18.3618   18.0303   20.5756 H   0  0  0  0  0  0  0  0  0  0  0  0
   19.0360   16.5672   21.3182 H   0  0  0  0  0  0  0  0  0  0  0  0
   18.2706   18.0496   22.7522 C   0  0  0  0  0  0  0  0  0  0  0  0
   17.3486   18.6111   22.5474 H   0  0  0  0  0  0  0  0  0  0  0  0
   17.9975   17.1643   23.3425 H   0  0  0  0  0  0  0  0  0  0  0  0
   19.2767   18.9369   23.5158 C   0  0  0  0  0  0  0  0  0  0  0  0
   19.8204   18.3271   24.2494 H   0  0  0  0  0  0  0  0  0  0  0  0
   18.7827   19.7528   24.0600 H   0  0  0  0  0  0  0  0  0  0  0  0
   20.2685   19.4554   22.4659 C   0  0  0  0  0  0  0  0  0  0  0  0
   21.2523   19.6677   22.9087 H   0  0  0  0  0  0  0  0  0  0  0  0
   20.3463   18.3217   21.4345 C   0  0  0  0  0  0  0  0  0  0  0  0
   20.6432   18.6829   20.4409 H   0  0  0  0  0  0  0  0  0  0  0  0
   21.0980   17.5918   21.7630 H   0  0  0  0  0  0  0  0  0  0  0  0
   19.7307   20.6148   21.8468 O   0  0  0  0  0  0  0  0  0  0  0  0
   18.8653   20.3325   21.4855 H   0  0  0  0  0  0  0  0  0  0  0  0
  1  2  1  0  0  0  0
  1  3  1  0  0  0  0
  1  4  1  0  0  0  0
  4  5  1  0  0  0  0
  4  6  1  0  0  0  0
  4  7  1  0  0  0  0
  7  8  1  0  0  0  0
  7  9  1  0  0  0  0
  7 10  1  0  0  0  0
 10 11  1  0  0  0  0
  1 12  1  0  0  0  0
 10 12  1  0  0  0  0
 12 13  1  0  0  0  0
 12 14  1  0  0  0  0
 10 15  1  0  0  0  0
 15 16  1  0  0  0  0
M  END
> <VConfSearch Rank>
297

> <Conf_Id>
20

> <Delta U+W>
-0.483

> <U+W>
2.527

> <U>
4.508

> <W>
-1.981

> <W(PB)>
-3.712

> <W(SA)>
1.732

> <Valence>
14.705

> <Coulomb>
-10.687

> <VdW>
0.490

> <VdW6>
-3.745

> <VdW12>
4.235

> <Bond>
0.068

> <Angle>
3.901

> <Pdih>
10.737

> <Idih>
0.000

> <Tether>
0.000

$$$$
VeraChem MOL file


 16 16  0  0  0  0  0  0  0  0999 V2000     
   18.6150   19.4245   21.4176 C   0  0  0  0  0  0  0  0  0  0  0  0
   18.5278   20.3789   21.9554 H   0  0  0  0  0  0  0  0  0  0  0  0
   18.1618   19.5466   20.4244 H   0  0  0  0  0  0  0  0  0  0  0  0
   17.9456   18.3108   22.2345 C   0  0  0  0  0  0  0  0  0  0  0  0
   17.0146   18.6449   22.7123 H   0  0  0  0  0  0  0  0  0  0  0  0
   17.7094   17.4618   21.5780 H   0  0  0  0  0  0  0  0  0  0  0  0
   19.0143   17.8938   23.2614 C   0  0  0  0  0  0  0  0  0  0  0  0
   18.9068   16.8392   23.5464 H   0  0  0  0  0  0  0  0  0  0  0  0
   18.9025   18.5019   24.1694 H   0  0  0  0  0  0  0  0  0  0  0  0
   20.3821   18.1661   22.6005 C   0  0  0  0  0  0  0  0  0  0  0  0
   20.8521   17.2172   22.3034 H   0  0  0  0  0  0  0  0  0  0  0  0
   20.0958   19.0093   21.3408 C   0  0  0  0  0  0  0  0  0  0  0  0
   20.7571   19.8827   21.2647 H   0  0  0  0  0  0  0  0  0  0  0  0
   20.2587   18.3887   20.4500 H   0  0  0  0  0  0  0  0  0  0  0  0
   21.2235   18.8871   23.4927 O   0  0  0  0  0  0  0  0  0  0  0  0
   21.3623   18.3121   24.2748 H   0  0  0  0  0  0  0  0  0  0  0  0
  1  2  1  0  0  0  0
  1  3  1  0  0  0  0
  1  4  1  0  0  0  0
  4  5  1  0  0  0  0
  4  6  1  0  0  0  0
  4  7  1  0  0  0  0
  7  8  1  0  0  0  0
  7  9  1  0  0  0  0
  7 10  1  0  0  0  0
 10 11  1  0  0  0  0
  1 12  1  0  0  0  0
 10 12  1  0  0  0  0
 12 13  1  0  0  0  0
 12 14  1  0  0  0  0
 10 15  1  0  0  0  0
 15 16  1  0  0  0  0
M  END
> <VConfSearch Rank>
298

> <Conf_Id>
59

> <Delta U+W>
0.000

> <U+W>
3.010

> <U>
5.843

> <W>
-2.833

> <W(PB)>
-4.568

> <W(SA)>
1.735

> <Valence>
13.789

> <Coulomb>
-8.574

> <VdW>
0.628

> <VdW6>
-3.284

> <VdW12>
3.912

> <Bond>
0.054

> <Angle>
4.034

> <Pdih>
9.702

> <Idih>
0.000

> <Tether>
0.000

$$$$
VeraChem MOL file


 16 16  0  0  0  0  0  0  0  0999 V2000     
   20.1469   17.6563   21.4776 C   0  0  0  0  0  0  0  0  0  0  0  0
   20.4574   17.5222   20.4325 H   0  0  0  0  0  0  0  0  0  0  0  0
   20.6086   16.8600   22.0780 H   0  0  0  0  0  0  0  0  0  0  0  0
   18.6219   17.6102   21.6443 C   0  0  0  0  0  0  0  0  0  0  0  0
   18.1438   18.1363   20.8062 H   0  0  0  0  0  0  0  0  0  0  0  0
   18.2337   16.5830   21.6720 H   0  0  0  0  0  0  0  0  0  0  0  0
   18.3541   18.3752   22.9535 C   0  0  0  0  0  0  0  0  0  0  0  0
   18.3730   17.6757   23.7994 H   0  0  0  0  0  0  0  0  0  0  0  0
   17.3691   18.8607   22.9439 H   0  0  0  0  0  0  0  0  0  0  0  0
   19.5053   19.3894   23.1136 C   0  0  0  0  0  0  0  0  0  0  0  0
   19.9452   19.2845   24.1161 H   0  0  0  0  0  0  0  0  0  0  0  0
   20.5521   19.0322   22.0374 C   0  0  0  0  0  0  0  0  0  0  0  0
   20.5335   19.7738   21.2272 H   0  0  0  0  0  0  0  0  0  0  0  0
   21.5678   19.0127   22.4533 H   0  0  0  0  0  0  0  0  0  0  0  0
   19.0248   20.7130   22.9108 O   0  0  0  0  0  0  0  0  0  0  0  0
   19.7954   21.3107   23.0125 H   0  0  0  0  0  0  0  0  0  0  0  0
  1  2  1  0  0  0  0
  1  3  1  0  0  0  0
  1  4  1  0  0  0  0
  4  5  1  0  0  0  0
  4  6  1  0  0  0  0
  4  7  1  0  0  0  0
  7  8  1  0  0  0  0
  7  9  1  0  0  0  0
  7 10  1  0  0  0  0
 10 11  1  0  0  0  0
  1 12  1  0  0  0  0
 10 12  1  0  0  0  0
 12 13  1  0  0  0  0
 12 14  1  0  0  0  0
 10 15  1  0  0  0  0
 15 16  1  0  0  0  0
M  END
> <VConfSearch Rank>
299

> <Conf_Id>
33

> <Delta U+W>
0.015

> <U+W>
3.025

> <U>
5.843

> <W>
-2.819

> <W(PB)>
-4.568

> <W(SA)>
1.750

> <Valence>
13.789

> <Coulomb>
-8.574

> <VdW>
0.628

> <VdW6>
-3.284

> <VdW12>
3.913

> <Bond>
0.054

> <Angle>
4.033

> <Pdih>
9.702

> <Idih>
0.000

> <Tether>
0.000

$$$$
VeraChem MOL file


 16 16  0  0  0  0  0  0  0  0999 V2000     
   19.0545   19.8374   22.6756 C   0  0  0  0  0  0  0  0  0  0  0  0
   18.0354   20.1510   22.4105 H   0  0  0  0  0  0  0  0  0  0  0  0
   19.5177   20.6554   23.2442 H   0  0  0  0  0  0  0  0  0  0  0  0
   19.8539   19.5123   21.3949 C   0  0  0  0  0  0  0  0  0  0  0  0
   19.2220   19.6696   20.5099 H   0  0  0  0  0  0  0  0  0  0  0  0
   20.7358   20.1597   21.2940 H   0  0  0  0  0  0  0  0  0  0  0  0
   20.2643   18.0281   21.5000 C   0  0  0  0  0  0  0  0  0  0  0  0
   21.2937   17.9578   21.8755 H   0  0  0  0  0  0  0  0  0  0  0  0
   20.2272   17.5162   20.5291 H   0  0  0  0  0  0  0  0  0  0  0  0
   19.3150   17.3962   22.5269 C   0  0  0  0  0  0  0  0  0  0  0  0
   19.7806   16.5394   23.0348 H   0  0  0  0  0  0  0  0  0  0  0  0
   19.0129   18.5377   23.5071 C   0  0  0  0  0  0  0  0  0  0  0  0
   18.0513   18.4021   24.0198 H   0  0  0  0  0  0  0  0  0  0  0  0
   19.7988   18.5670   24.2733 H   0  0  0  0  0  0  0  0  0  0  0  0
   18.1137   17.0080   21.8765 O   0  0  0  0  0  0  0  0  0  0  0  0
   17.7750   17.8260   21.4577 H   0  0  0  0  0  0  0  0  0  0  0  0
  1  2  1  0  0  0  0
  1  3  1  0  0  0  0
  1  4  1  0  0  0  0
  4  5  1  0  0  0  0
  4  6  1  0  0  0  0
  4  7  1  0  0  0  0
  7  8  1  0  0  0  0
  7  9  1  0  0  0  0
  7 10  1  0  0  0  0
 10 11  1  0  0  0  0
  1 12  1  0  0  0  0
 10 12  1  0  0  0  0
 12 13  1  0  0  0  0
 12 14  1  0  0  0  0
 10 15  1  0  0  0  0
 15 16  1  0  0  0  0
M  END
> <VConfSearch Rank>
300

> <Conf_Id>
20

> <Delta U+W>
-0.483

> <U+W>
2.527

> <U>
4.508

> <W>
-1.981

> <W(PB)>
-3.712

> <W(SA)>
1.732

> <Valence>
14.705

> <Coulomb>
-10.687

> <VdW>
0.490

> <VdW6>
-3.745

> <VdW12>
4.235

> <Bond>
0.068

> <Angle>
3.901

> <Pdih>
10.737

> <Idih>
0.000

> <Tether>
0.000

$$$$
VeraChem MOL file


 16 16  0  0  0  0  0  0  0  0999 V2000     
   20.3510   19.0841   21.3939 C   0  0  0  0  0  0  0  0  0  0  0  0
   20.2764   18.4502   20.4992 H   0  0  0  0  0  0  0  0  0  0  0  0
   21.0910   19.8717   21.1968 H   0  0  0  0  0  0  0  0  0  0  0  0
   20.7232   18.2202   22.6067 C   0  0  0  0  0  0  0  0  0  0  0  0
   21.4634   17.4475   22.3581 H   0  0  0  0  0  0  0  0  0  0  0  0
   21.1430   18.8561   23.3986 H   0  0  0  0  0  0  0  0  0  0  0  0
   19.3848   17.6204   23.0750 C   0  0  0  0  0  0  0  0  0  0  0  0
   19.3884   17.4262   24.1553 H   0  0  0  0  0  0  0  0  0  0  0  0
   19.2155   16.6644   22.5609 H   0  0  0  0  0  0  0  0  0  0  0  0
   18.2920   18.6380   22.6851 C   0  0  0  0  0  0  0  0  0  0  0  0
   17.9281   19.1613   23.5814 H   0  0  0  0  0  0  0  0  0  0  0  0
   18.9630   19.6548   21.7387 C   0  0  0  0  0  0  0  0  0  0  0  0
   18.3664   19.8402   20.8355 H   0  0  0  0  0  0  0  0  0  0  0  0
   19.0783   20.6114   22.2647 H   0  0  0  0  0  0  0  0  0  0  0  0
   17.2225   17.9785   22.0181 O   0  0  0  0  0  0  0  0  0  0  0  0
   16.8424   17.3405   22.6584 H   0  0  0  0  0  0  0  0  0  0  0  0
  1  2  1  0  0  0  0
  1  3  1  0  0  0  0
  1  4  1  0  0  0  0
  4  5  1  0  0  0  0
  4  6  1  0  0  0  0
  4  7  1  0  0  0  0
  7  8  1  0  0  0  0
  7  9  1  0  0  0  0
  7 10  1  0  0  0  0
 10 11  1  0  0  0  0
  1 12  1  0  0  0  0
 10 12  1  0  0  0  0
 12 13  1  0  0  0  0
 12 14  1  0  0  0  0
 10 15  1  0  0  0  0
 15 16  1  0  0  0  0
M  END
> <VConfSearch Rank>
301

> <Conf_Id>
59

> <Delta U+W>
0.000

> <U+W>
3.010

> <U>
5.843

> <W>
-2.833

> <W(PB)>
-4.568

> <W(SA)>
1.735

> <Valence>
13.789

> <Coulomb>
-8.574

> <VdW>
0.628

> <VdW6>
-3.284

> <VdW12>
3.912

> <Bond>
0.054

> <Angle>
4.034

> <Pdih>
9.702

> <Idih>
0.000

> <Tether>
0.000

$$$$
VeraChem MOL file


 16 16  0  0  0  0  0  0  0  0999 V2000     
   19.5696   18.3349   20.8889 C   0  0  0  0  0  0  0  0  0  0  0  0
   18.9889   17.8704   20.0803 H   0  0  0  0  0  0  0  0  0  0  0  0
   20.4523   18.8162   20.4453 H   0  0  0  0  0  0  0  0  0  0  0  0
   20.0142   17.3166   21.9478 C   0  0  0  0  0  0  0  0  0  0  0  0
   19.2035   16.5976   22.1306 H   0  0  0  0  0  0  0  0  0  0  0  0
   20.9084   16.7567   21.6419 H   0  0  0  0  0  0  0  0  0  0  0  0
   20.2527   18.1580   23.2151 C   0  0  0  0  0  0  0  0  0  0  0  0
   21.2961   18.4984   23.2405 H   0  0  0  0  0  0  0  0  0  0  0  0
   20.0694   17.5753   24.1277 H   0  0  0  0  0  0  0  0  0  0  0  0
   19.3255   19.3863   23.1086 C   0  0  0  0  0  0  0  0  0  0  0  0
   19.9143   20.3011   23.2697 H   0  0  0  0  0  0  0  0  0  0  0  0
   18.7504   19.3738   21.6765 C   0  0  0  0  0  0  0  0  0  0  0  0
   17.6954   19.0680   21.6926 H   0  0  0  0  0  0  0  0  0  0  0  0
   18.8067   20.3659   21.2104 H   0  0  0  0  0  0  0  0  0  0  0  0
   18.2731   19.2906   24.0610 O   0  0  0  0  0  0  0  0  0  0  0  0
   17.7123   20.0860   23.9415 H   0  0  0  0  0  0  0  0  0  0  0  0
  1  2  1  0  0  0  0
  1  3  1  0  0  0  0
  1  4  1  0  0  0  0
  4  5  1  0  0  0  0
  4  6  1  0  0  0  0
  4  7  1  0  0  0  0
  7  8  1  0  0  0  0
  7  9  1  0  0  0  0
  7 10  1  0  0  0  0
 10 11  1  0  0  0  0
  1 12  1  0  0  0  0
 10 12  1  0  0  0  0
 12 13  1  0  0  0  0
 12 14  1  0  0  0  0
 10 15  1  0  0  0  0
 15 16  1  0  0  0  0
M  END
> <VConfSearch Rank>
302

> <Conf_Id>
33

> <Delta U+W>
0.015

> <U+W>
3.025

> <U>
5.843

> <W>
-2.819

> <W(PB)>
-4.568

> <W(SA)>
1.750

> <Valence>
13.789

> <Coulomb>
-8.574

> <VdW>
0.628

> <VdW6>
-3.284

> <VdW12>
3.913

> <Bond>
0.054

> <Angle>
4.033

> <Pdih>
9.702

> <Idih>
0.000

> <Tether>
0.000

$$$$
VeraChem MOL file


 16 16  0  0  0  0  0  0  0  0999 V2000     
   19.1682   17.9291   23.3881 C   0  0  0  0  0  0  0  0  0  0  0  0
   18.5918   18.4774   24.1460 H   0  0  0  0  0  0  0  0  0  0  0  0
   19.3953   16.9350   23.7969 H   0  0  0  0  0  0  0  0  0  0  0  0
   20.4557   18.7085   23.0421 C   0  0  0  0  0  0  0  0  0  0  0  0
   20.5030   19.6335   23.6332 H   0  0  0  0  0  0  0  0  0  0  0  0
   21.3564   18.1216   23.2688 H   0  0  0  0  0  0  0  0  0  0  0  0
   20.3747   19.0412   21.5370 C   0  0  0  0  0  0  0  0  0  0  0  0
   20.9521   18.3020   20.9663 H   0  0  0  0  0  0  0  0  0  0  0  0
   20.7839   20.0342   21.3076 H   0  0  0  0  0  0  0  0  0  0  0  0
   18.8936   18.9203   21.1540 C   0  0  0  0  0  0  0  0  0  0  0  0
   18.7702   18.6541   20.0943 H   0  0  0  0  0  0  0  0  0  0  0  0
   18.3581   17.8191   22.0789 C   0  0  0  0  0  0  0  0  0  0  0  0
   17.2769   17.9086   22.2496 H   0  0  0  0  0  0  0  0  0  0  0  0
   18.5431   16.8417   21.6141 H   0  0  0  0  0  0  0  0  0  0  0  0
   18.2327   20.1419   21.4498 O   0  0  0  0  0  0  0  0  0  0  0  0
   18.3959   20.2955   22.4032 H   0  0  0  0  0  0  0  0  0  0  0  0
  1  2  1  0  0  0  0
  1  3  1  0  0  0  0
  1  4  1  0  0  0  0
  4  5  1  0  0  0  0
  4  6  1  0  0  0  0
  4  7  1  0  0  0  0
  7  8  1  0  0  0  0
  7  9  1  0  0  0  0
  7 10  1  0  0  0  0
 10 11  1  0  0  0  0
  1 12  1  0  0  0  0
 10 12  1  0  0  0  0
 12 13  1  0  0  0  0
 12 14  1  0  0  0  0
 10 15  1  0  0  0  0
 15 16  1  0  0  0  0
M  END
> <VConfSearch Rank>
303

> <Conf_Id>
20

> <Delta U+W>
-0.483

> <U+W>
2.527

> <U>
4.508

> <W>
-1.981

> <W(PB)>
-3.712

> <W(SA)>
1.732

> <Valence>
14.705

> <Coulomb>
-10.687

> <VdW>
0.490

> <VdW6>
-3.745

> <VdW12>
4.235

> <Bond>
0.068

> <Angle>
3.901

> <Pdih>
10.737

> <Idih>
0.000

> <Tether>
0.000

$$$$
VeraChem MOL file


 16 16  0  0  0  0  0  0  0  0999 V2000     
   18.6374   17.4695   21.6677 C   0  0  0  0  0  0  0  0  0  0  0  0
   17.6215   17.5151   22.0843 H   0  0  0  0  0  0  0  0  0  0  0  0
   18.6634   16.6743   20.9103 H   0  0  0  0  0  0  0  0  0  0  0  0
   19.6473   17.2344   22.7993 C   0  0  0  0  0  0  0  0  0  0  0  0
   19.2763   16.5228   23.5494 H   0  0  0  0  0  0  0  0  0  0  0  0
   20.5836   16.8375   22.3827 H   0  0  0  0  0  0  0  0  0  0  0  0
   19.8927   18.6345   23.3908 C   0  0  0  0  0  0  0  0  0  0  0  0
   20.9012   18.7194   23.8156 H   0  0  0  0  0  0  0  0  0  0  0  0
   19.1701   18.8199   24.1973 H   0  0  0  0  0  0  0  0  0  0  0  0
   19.6764   19.6376   22.2381 C   0  0  0  0  0  0  0  0  0  0  0  0
   20.6440   20.0351   21.8985 H   0  0  0  0  0  0  0  0  0  0  0  0
   19.0198   18.8444   21.0894 C   0  0  0  0  0  0  0  0  0  0  0  0
   18.1476   19.3633   20.6698 H   0  0  0  0  0  0  0  0  0  0  0  0
   19.7510   18.7138   20.2811 H   0  0  0  0  0  0  0  0  0  0  0  0
   18.8189   20.6918   22.6591 O   0  0  0  0  0  0  0  0  0  0  0  0
   19.2784   21.1521   23.3930 H   0  0  0  0  0  0  0  0  0  0  0  0
  1  2  1  0  0  0  0
  1  3  1  0  0  0  0
  1  4  1  0  0  0  0
  4  5  1  0  0  0  0
  4  6  1  0  0  0  0
  4  7  1  0  0  0  0
  7  8  1  0  0  0  0
  7  9  1  0  0  0  0
  7 10  1  0  0  0  0
 10 11  1  0  0  0  0
  1 12  1  0  0  0  0
 10 12  1  0  0  0  0
 12 13  1  0  0  0  0
 12 14  1  0  0  0  0
 10 15  1  0  0  0  0
 15 16  1  0  0  0  0
M  END
> <VConfSearch Rank>
304

> <Conf_Id>
59

> <Delta U+W>
0.000

> <U+W>
3.010

> <U>
5.843

> <W>
-2.833

> <W(PB)>
-4.568

> <W(SA)>
1.735

> <Valence>
13.789

> <Coulomb>
-8.574

> <VdW>
0.628

> <VdW6>
-3.284

> <VdW12>
3.912

> <Bond>
0.054

> <Angle>
4.034

> <Pdih>
9.702

> <Idih>
0.000

> <Tether>
0.000

$$$$
VeraChem MOL file


 16 16  0  0  0  0  0  0  0  0999 V2000     
   19.0943   17.2407   22.0657 C   0  0  0  0  0  0  0  0  0  0  0  0
   19.2277   16.2567   22.5355 H   0  0  0  0  0  0  0  0  0  0  0  0
   18.3841   17.1311   21.2343 H   0  0  0  0  0  0  0  0  0  0  0  0
   20.4152   17.8221   21.5431 C   0  0  0  0  0  0  0  0  0  0  0  0
   21.2214   17.6049   22.2576 H   0  0  0  0  0  0  0  0  0  0  0  0
   20.6993   17.4065   20.5668 H   0  0  0  0  0  0  0  0  0  0  0  0
   20.1717   19.3415   21.4867 C   0  0  0  0  0  0  0  0  0  0  0  0
   19.7711   19.6141   20.5016 H   0  0  0  0  0  0  0  0  0  0  0  0
   21.1017   19.9058   21.6367 H   0  0  0  0  0  0  0  0  0  0  0  0
   19.1145   19.6578   22.5647 C   0  0  0  0  0  0  0  0  0  0  0  0
   18.3003   20.2441   22.1141 H   0  0  0  0  0  0  0  0  0  0  0  0
   18.5761   18.2981   23.0576 C   0  0  0  0  0  0  0  0  0  0  0  0
   18.9642   18.0761   24.0610 H   0  0  0  0  0  0  0  0  0  0  0  0
   17.4797   18.2939   23.1117 H   0  0  0  0  0  0  0  0  0  0  0  0
   19.7107   20.3697   23.6425 O   0  0  0  0  0  0  0  0  0  0  0  0
   19.0005   20.5330   24.2986 H   0  0  0  0  0  0  0  0  0  0  0  0
  1  2  1  0  0  0  0
  1  3  1  0  0  0  0
  1  4  1  0  0  0  0
  4  5  1  0  0  0  0
  4  6  1  0  0  0  0
  4  7  1  0  0  0  0
  7  8  1  0  0  0  0
  7  9  1  0  0  0  0
  7 10  1  0  0  0  0
 10 11  1  0  0  0  0
  1 12  1  0  0  0  0
 10 12  1  0  0  0  0
 12 13  1  0  0  0  0
 12 14  1  0  0  0  0
 10 15  1  0  0  0  0
 15 16  1  0  0  0  0
M  END
> <VConfSearch Rank>
305

> <Conf_Id>
33

> <Delta U+W>
0.015

> <U+W>
3.025

> <U>
5.843

> <W>
-2.819

> <W(PB)>
-4.568

> <W(SA)>
1.750

> <Valence>
13.789

> <Coulomb>
-8.574

> <VdW>
0.628

> <VdW6>
-3.284

> <VdW12>
3.913

> <Bond>
0.054

> <Angle>
4.033

> <Pdih>
9.702

> <Idih>
0.000

> <Tether>
0.000

$$$$
VeraChem MOL file


 16 16  0  0  0  0  0  0  0  0999 V2000     
   20.2829   17.6390   22.4105 C   0  0  0  0  0  0  0  0  0  0  0  0
   19.8726   16.6227   22.3333 H   0  0  0  0  0  0  0  0  0  0  0  0
   21.3646   17.5497   22.5807 H   0  0  0  0  0  0  0  0  0  0  0  0
   19.5880   18.3999   23.5608 C   0  0  0  0  0  0  0  0  0  0  0  0
   18.8421   17.7515   24.0409 H   0  0  0  0  0  0  0  0  0  0  0  0
   20.3064   18.7095   24.3322 H   0  0  0  0  0  0  0  0  0  0  0  0
   18.8981   19.6240   22.9219 C   0  0  0  0  0  0  0  0  0  0  0  0
   19.5376   20.5087   23.0401 H   0  0  0  0  0  0  0  0  0  0  0  0
   17.9296   19.8469   23.3892 H   0  0  0  0  0  0  0  0  0  0  0  0
   18.7623   19.3034   21.4273 C   0  0  0  0  0  0  0  0  0  0  0  0
   18.7522   20.2177   20.8167 H   0  0  0  0  0  0  0  0  0  0  0  0
   19.9879   18.4325   21.1199 C   0  0  0  0  0  0  0  0  0  0  0  0
   19.8249   17.7753   20.2553 H   0  0  0  0  0  0  0  0  0  0  0  0
   20.8398   19.0851   20.8877 H   0  0  0  0  0  0  0  0  0  0  0  0
   17.5825   18.5412   21.2178 O   0  0  0  0  0  0  0  0  0  0  0  0
   17.6801   17.7565   21.7956 H   0  0  0  0  0  0  0  0  0  0  0  0
  1  2  1  0  0  0  0
  1  3  1  0  0  0  0
  1  4  1  0  0  0  0
  4  5  1  0  0  0  0
  4  6  1  0  0  0  0
  4  7  1  0  0  0  0
  7  8  1  0  0  0  0
  7  9  1  0  0  0  0
  7 10  1  0  0  0  0
 10 11  1  0  0  0  0
  1 12  1  0  0  0  0
 10 12  1  0  0  0  0
 12 13  1  0  0  0  0
 12 14  1  0  0  0  0
 10 15  1  0  0  0  0
 15 16  1  0  0  0  0
M  END
> <VConfSearch Rank>
306

> <Conf_Id>
20

> <Delta U+W>
-0.483

> <U+W>
2.527

> <U>
4.508

> <W>
-1.981

> <W(PB)>
-3.712

> <W(SA)>
1.732

> <Valence>
14.705

> <Coulomb>
-10.687

> <VdW>
0.490

> <VdW6>
-3.745

> <VdW12>
4.235

> <Bond>
0.068

> <Angle>
3.901

> <Pdih>
10.737

> <Idih>
0.000

> <Tether>
0.000

$$$$
VeraChem MOL file


 16 16  0  0  0  0  0  0  0  0999 V2000     
   19.4941   17.1070   22.3481 C   0  0  0  0  0  0  0  0  0  0  0  0
   19.1624   16.8138   23.3539 H   0  0  0  0  0  0  0  0  0  0  0  0
   19.7300   16.1945   21.7839 H   0  0  0  0  0  0  0  0  0  0  0  0
   20.6962   18.0549   22.4588 C   0  0  0  0  0  0  0  0  0  0  0  0
   21.3923   17.7560   23.2544 H   0  0  0  0  0  0  0  0  0  0  0  0
   21.2463   18.0670   21.5076 H   0  0  0  0  0  0  0  0  0  0  0  0
   20.0709   19.4381   22.7166 C   0  0  0  0  0  0  0  0  0  0  0  0
   20.7026   20.2439   22.3210 H   0  0  0  0  0  0  0  0  0  0  0  0
   19.9650   19.5928   23.7990 H   0  0  0  0  0  0  0  0  0  0  0  0
   18.6836   19.4210   22.0407 C   0  0  0  0  0  0  0  0  0  0  0  0
   18.7037   20.0294   21.1247 H   0  0  0  0  0  0  0  0  0  0  0  0
   18.3992   17.9508   21.6696 C   0  0  0  0  0  0  0  0  0  0  0  0
   17.3943   17.6306   21.9756 H   0  0  0  0  0  0  0  0  0  0  0  0
   18.4684   17.8369   20.5800 H   0  0  0  0  0  0  0  0  0  0  0  0
   17.6925   19.9001   22.9418 O   0  0  0  0  0  0  0  0  0  0  0  0
   17.9278   20.8288   23.1508 H   0  0  0  0  0  0  0  0  0  0  0  0
  1  2  1  0  0  0  0
  1  3  1  0  0  0  0
  1  4  1  0  0  0  0
  4  5  1  0  0  0  0
  4  6  1  0  0  0  0
  4  7  1  0  0  0  0
  7  8  1  0  0  0  0
  7  9  1  0  0  0  0
  7 10  1  0  0  0  0
 10 11  1  0  0  0  0
  1 12  1  0  0  0  0
 10 12  1  0  0  0  0
 12 13  1  0  0  0  0
 12 14  1  0  0  0  0
 10 15  1  0  0  0  0
 15 16  1  0  0  0  0
M  END
> <VConfSearch Rank>
307

> <Conf_Id>
59

> <Delta U+W>
0.000

> <U+W>
3.010

> <U>
5.843

> <W>
-2.833

> <W(PB)>
-4.568

> <W(SA)>
1.735

> <Valence>
13.789

> <Coulomb>
-8.574

> <VdW>
0.628

> <VdW6>
-3.284

> <VdW12>
3.912

> <Bond>
0.054

> <Angle>
4.034

> <Pdih>
9.702

> <Idih>
0.000

> <Tether>
0.000

$$$$
VeraChem MOL file


 16 16  0  0  0  0  0  0  0  0999 V2000     
   19.1414   19.5493   23.3345 C   0  0  0  0  0  0  0  0  0  0  0  0
   19.5282   19.8652   24.3129 H   0  0  0  0  0  0  0  0  0  0  0  0
   18.3417   20.2435   23.0408 H   0  0  0  0  0  0  0  0  0  0  0  0
   18.5968   18.1145   23.3574 C   0  0  0  0  0  0  0  0  0  0  0  0
   19.2505   17.4823   23.9744 H   0  0  0  0  0  0  0  0  0  0  0  0
   17.5786   18.0586   23.7659 H   0  0  0  0  0  0  0  0  0  0  0  0
   18.6676   17.6521   21.8903 C   0  0  0  0  0  0  0  0  0  0  0  0
   17.7278   17.9001   21.3801 H   0  0  0  0  0  0  0  0  0  0  0  0
   18.8117   16.5660   21.8152 H   0  0  0  0  0  0  0  0  0  0  0  0
   19.8193   18.4422   21.2353 C   0  0  0  0  0  0  0  0  0  0  0  0
   19.4567   18.9129   20.3098 H   0  0  0  0  0  0  0  0  0  0  0  0
   20.2355   19.5267   22.2514 C   0  0  0  0  0  0  0  0  0  0  0  0
   21.1980   19.2668   22.7127 H   0  0  0  0  0  0  0  0  0  0  0  0
   20.3454   20.5079   21.7719 H   0  0  0  0  0  0  0  0  0  0  0  0
   20.9156   17.5771   20.9640 O   0  0  0  0  0  0  0  0  0  0  0  0
   21.6179   18.1307   20.5617 H   0  0  0  0  0  0  0  0  0  0  0  0
  1  2  1  0  0  0  0
  1  3  1  0  0  0  0
  1  4  1  0  0  0  0
  4  5  1  0  0  0  0
  4  6  1  0  0  0  0
  4  7  1  0  0  0  0
  7  8  1  0  0  0  0
  7  9  1  0  0  0  0
  7 10  1  0  0  0  0
 10 11  1  0  0  0  0
  1 12  1  0  0  0  0
 10 12  1  0  0  0  0
 12 13  1  0  0  0  0
 12 14  1  0  0  0  0
 10 15  1  0  0  0  0
 15 16  1  0  0  0  0
M  END
> <VConfSearch Rank>
308

> <Conf_Id>
33

> <Delta U+W>
0.015

> <U+W>
3.025

> <U>
5.843

> <W>
-2.819

> <W(PB)>
-4.568

> <W(SA)>
1.750

> <Valence>
13.789

> <Coulomb>
-8.574

> <VdW>
0.628

> <VdW6>
-3.284

> <VdW12>
3.913

> <Bond>
0.054

> <Angle>
4.033

> <Pdih>
9.702

> <Idih>
0.000

> <Tether>
0.000

$$$$
VeraChem MOL file


 16 16  0  0  0  0  0  0  0  0999 V2000     
   18.2505   19.3243   22.2003 C   0  0  0  0  0  0  0  0  0  0  0  0
   18.3440   20.2738   21.6554 H   0  0  0  0  0  0  0  0  0  0  0  0
   17.2081   19.2334   22.5351 H   0  0  0  0  0  0  0  0  0  0  0  0
   19.2334   19.3032   23.3913 C   0  0  0  0  0  0  0  0  0  0  0  0
   19.8018   20.2429   23.4234 H   0  0  0  0  0  0  0  0  0  0  0  0
   18.7052   19.2003   24.3491 H   0  0  0  0  0  0  0  0  0  0  0  0
   20.1855   18.1121   23.1520 C   0  0  0  0  0  0  0  0  0  0  0  0
   19.8394   17.2442   23.7286 H   0  0  0  0  0  0  0  0  0  0  0  0
   21.2147   18.3325   23.4653 H   0  0  0  0  0  0  0  0  0  0  0  0
   20.0907   17.7861   21.6554 C   0  0  0  0  0  0  0  0  0  0  0  0
   20.3080   16.7266   21.4576 H   0  0  0  0  0  0  0  0  0  0  0  0
   18.6448   18.1444   21.2867 C   0  0  0  0  0  0  0  0  0  0  0  0
   18.5353   18.3881   20.2215 H   0  0  0  0  0  0  0  0  0  0  0  0
   17.9984   17.2829   21.5004 H   0  0  0  0  0  0  0  0  0  0  0  0
   20.9793   18.6285   20.9360 O   0  0  0  0  0  0  0  0  0  0  0  0
   20.7126   19.5408   21.1720 H   0  0  0  0  0  0  0  0  0  0  0  0
  1  2  1  0  0  0  0
  1  3  1  0  0  0  0
  1  4  1  0  0  0  0
  4  5  1  0  0  0  0
  4  6  1  0  0  0  0
  4  7  1  0  0  0  0
  7  8  1  0  0  0  0
  7  9  1  0  0  0  0
  7 10  1  0  0  0  0
 10 11  1  0  0  0  0
  1 12  1  0  0  0  0
 10 12  1  0  0  0  0
 12 13  1  0  0  0  0
 12 14  1  0  0  0  0
 10 15  1  0  0  0  0
 15 16  1  0  0  0  0
M  END
> <VConfSearch Rank>
309

> <Conf_Id>
20

> <Delta U+W>
-0.483

> <U+W>
2.527

> <U>
4.508

> <W>
-1.981

> <W(PB)>
-3.712

> <W(SA)>
1.732

> <Valence>
14.705

> <Coulomb>
-10.687

> <VdW>
0.490

> <VdW6>
-3.745

> <VdW12>
4.235

> <Bond>
0.068

> <Angle>
3.901

> <Pdih>
10.737

> <Idih>
0.000

> <Tether>
0.000

$$$$
VeraChem MOL file


 16 16  0  0  0  0  0  0  0  0999 V2000     
   19.9276   17.2957   22.7679 C   0  0  0  0  0  0  0  0  0  0  0  0
   19.2039   16.9019   23.4950 H   0  0  0  0  0  0  0  0  0  0  0  0
   20.7333   16.5584   22.6504 H   0  0  0  0  0  0  0  0  0  0  0  0
   20.4459   18.6594   23.2449 C   0  0  0  0  0  0  0  0  0  0  0  0
   20.6140   18.6863   24.3301 H   0  0  0  0  0  0  0  0  0  0  0  0
   21.3967   18.8892   22.7441 H   0  0  0  0  0  0  0  0  0  0  0  0
   19.3650   19.6590   22.7944 C   0  0  0  0  0  0  0  0  0  0  0  0
   19.7927   20.6503   22.5967 H   0  0  0  0  0  0  0  0  0  0  0  0
   18.6159   19.7673   23.5906 H   0  0  0  0  0  0  0  0  0  0  0  0
   18.7172   19.0581   21.5291 C   0  0  0  0  0  0  0  0  0  0  0  0
   19.0501   19.6096   20.6377 H   0  0  0  0  0  0  0  0  0  0  0  0
   19.2106   17.5992   21.4394 C   0  0  0  0  0  0  0  0  0  0  0  0
   18.3909   16.8928   21.2518 H   0  0  0  0  0  0  0  0  0  0  0  0
   19.9225   17.5126   20.6083 H   0  0  0  0  0  0  0  0  0  0  0  0
   17.2993   19.0905   21.6408 O   0  0  0  0  0  0  0  0  0  0  0  0
   17.0438   20.0350   21.7053 H   0  0  0  0  0  0  0  0  0  0  0  0
  1  2  1  0  0  0  0
  1  3  1  0  0  0  0
  1  4  1  0  0  0  0
  4  5  1  0  0  0  0
  4  6  1  0  0  0  0
  4  7  1  0  0  0  0
  7  8  1  0  0  0  0
  7  9  1  0  0  0  0
  7 10  1  0  0  0  0
 10 11  1  0  0  0  0
  1 12  1  0  0  0  0
 10 12  1  0  0  0  0
 12 13  1  0  0  0  0
 12 14  1  0  0  0  0
 10 15  1  0  0  0  0
 15 16  1  0  0  0  0
M  END
> <VConfSearch Rank>
310

> <Conf_Id>
59

> <Delta U+W>
0.000

> <U+W>
3.010

> <U>
5.843

> <W>
-2.833

> <W(PB)>
-4.568

> <W(SA)>
1.735

> <Valence>
13.789

> <Coulomb>
-8.574

> <VdW>
0.628

> <VdW6>
-3.284

> <VdW12>
3.912

> <Bond>
0.054

> <Angle>
4.034

> <Pdih>
9.702

> <Idih>
0.000

> <Tether>
0.000

$$$$
VeraChem MOL file


 16 16  0  0  0  0  0  0  0  0999 V2000     
   20.0522   17.9400   23.4097 C   0  0  0  0  0  0  0  0  0  0  0  0
   20.7809   17.1423   23.6083 H   0  0  0  0  0  0  0  0  0  0  0  0
   19.8021   18.4225   24.3649 H   0  0  0  0  0  0  0  0  0  0  0  0
   18.7725   17.4106   22.7481 C   0  0  0  0  0  0  0  0  0  0  0  0
   19.0319   16.6400   22.0088 H   0  0  0  0  0  0  0  0  0  0  0  0
   18.0761   16.9700   23.4744 H   0  0  0  0  0  0  0  0  0  0  0  0
   18.1757   18.6346   22.0294 C   0  0  0  0  0  0  0  0  0  0  0  0
   17.4935   19.1636   22.7075 H   0  0  0  0  0  0  0  0  0  0  0  0
   17.6016   18.3413   21.1403 H   0  0  0  0  0  0  0  0  0  0  0  0
   19.3591   19.5614   21.6827 C   0  0  0  0  0  0  0  0  0  0  0  0
   19.1423   20.5777   22.0429 H   0  0  0  0  0  0  0  0  0  0  0  0
   20.5887   18.9906   22.4203 C   0  0  0  0  0  0  0  0  0  0  0  0
   21.2685   18.5044   21.7073 H   0  0  0  0  0  0  0  0  0  0  0  0
   21.1505   19.7789   22.9378 H   0  0  0  0  0  0  0  0  0  0  0  0
   19.5861   19.5628   20.2783 O   0  0  0  0  0  0  0  0  0  0  0  0
   20.3508   20.1551   20.1176 H   0  0  0  0  0  0  0  0  0  0  0  0
  1  2  1  0  0  0  0
  1  3  1  0  0  0  0
  1  4  1  0  0  0  0
  4  5  1  0  0  0  0
  4  6  1  0  0  0  0
  4  7  1  0  0  0  0
  7  8  1  0  0  0  0
  7  9  1  0  0  0  0
  7 10  1  0  0  0  0
 10 11  1  0  0  0  0
  1 12  1  0  0  0  0
 10 12  1  0  0  0  0
 12 13  1  0  0  0  0
 12 14  1  0  0  0  0
 10 15  1  0  0  0  0
 15 16  1  0  0  0  0
M  END
> <VConfSearch Rank>
311

> <Conf_Id>
33

> <Delta U+W>
0.015

> <U+W>
3.025

> <U>
5.843

> <W>
-2.819

> <W(PB)>
-4.568

> <W(SA)>
1.750

> <Valence>
13.789

> <Coulomb>
-8.574

> <VdW>
0.628

> <VdW6>
-3.284

> <VdW12>
3.913

> <Bond>
0.054

> <Angle>
4.033

> <Pdih>
9.702

> <Idih>
0.000

> <Tether>
0.000

$$$$
VeraChem MOL file


 16 16  0  0  0  0  0  0  0  0999 V2000     
   18.6464   18.2512   21.1996 C   0  0  0  0  0  0  0  0  0  0  0  0
   17.9930   17.3853   21.3744 H   0  0  0  0  0  0  0  0  0  0  0  0
   18.4834   18.5887   20.1669 H   0  0  0  0  0  0  0  0  0  0  0  0
   20.1193   17.8552   21.4420 C   0  0  0  0  0  0  0  0  0  0  0  0
   20.1788   16.7974   21.7330 H   0  0  0  0  0  0  0  0  0  0  0  0
   20.7271   17.9865   20.5363 H   0  0  0  0  0  0  0  0  0  0  0  0
   20.6309   18.7532   22.5884 C   0  0  0  0  0  0  0  0  0  0  0  0
   21.1775   19.6081   22.1687 H   0  0  0  0  0  0  0  0  0  0  0  0
   21.3133   18.2189   23.2628 H   0  0  0  0  0  0  0  0  0  0  0  0
   19.3813   19.2687   23.3147 C   0  0  0  0  0  0  0  0  0  0  0  0
   19.5641   20.2413   23.7939 H   0  0  0  0  0  0  0  0  0  0  0  0
   18.3237   19.3745   22.2078 C   0  0  0  0  0  0  0  0  0  0  0  0
   17.3010   19.2998   22.6011 H   0  0  0  0  0  0  0  0  0  0  0  0
   18.4211   20.3502   21.7137 H   0  0  0  0  0  0  0  0  0  0  0  0
   18.9640   18.3039   24.2697 O   0  0  0  0  0  0  0  0  0  0  0  0
   18.8269   17.4808   23.7570 H   0  0  0  0  0  0  0  0  0  0  0  0
  1  2  1  0  0  0  0
  1  3  1  0  0  0  0
  1  4  1  0  0  0  0
  4  5  1  0  0  0  0
  4  6  1  0  0  0  0
  4  7  1  0  0  0  0
  7  8  1  0  0  0  0
  7  9  1  0  0  0  0
  7 10  1  0  0  0  0
 10 11  1  0  0  0  0
  1 12  1  0  0  0  0
 10 12  1  0  0  0  0
 12 13  1  0  0  0  0
 12 14  1  0  0  0  0
 10 15  1  0  0  0  0
 15 16  1  0  0  0  0
M  END
> <VConfSearch Rank>
312

> <Conf_Id>
20

> <Delta U+W>
-0.483

> <U+W>
2.527

> <U>
4.508

> <W>
-1.981

> <W(PB)>
-3.712

> <W(SA)>
1.732

> <Valence>
14.705

> <Coulomb>
-10.687

> <VdW>
0.490

> <VdW6>
-3.745

> <VdW12>
4.235

> <Bond>
0.068

> <Angle>
3.901

> <Pdih>
10.737

> <Idih>
0.000

> <Tether>
0.000

$$$$
VeraChem MOL file


 16 16  0  0  0  0  0  0  0  0999 V2000     
   19.4899   17.1081   22.2399 C   0  0  0  0  0  0  0  0  0  0  0  0
   19.1562   16.7415   23.2206 H   0  0  0  0  0  0  0  0  0  0  0  0
   19.7239   16.2397   21.6092 H   0  0  0  0  0  0  0  0  0  0  0  0
   20.6946   18.0415   22.4224 C   0  0  0  0  0  0  0  0  0  0  0  0
   21.3888   17.6819   23.1941 H   0  0  0  0  0  0  0  0  0  0  0  0
   21.2459   18.1231   21.4753 H   0  0  0  0  0  0  0  0  0  0  0  0
   20.0729   19.4034   22.7823 C   0  0  0  0  0  0  0  0  0  0  0  0
   20.7074   20.2346   22.4487 H   0  0  0  0  0  0  0  0  0  0  0  0
   19.9662   19.4771   23.8732 H   0  0  0  0  0  0  0  0  0  0  0  0
   18.6865   19.4410   22.1056 C   0  0  0  0  0  0  0  0  0  0  0  0
   18.7094   20.1162   21.2378 H   0  0  0  0  0  0  0  0  0  0  0  0
   18.3983   18.0036   21.6253 C   0  0  0  0  0  0  0  0  0  0  0  0
   17.3921   17.6643   21.9055 H   0  0  0  0  0  0  0  0  0  0  0  0
   18.4685   17.9712   20.5303 H   0  0  0  0  0  0  0  0  0  0  0  0
   17.6956   19.8543   23.0391 O   0  0  0  0  0  0  0  0  0  0  0  0
   17.9334   20.7641   23.3172 H   0  0  0  0  0  0  0  0  0  0  0  0
  1  2  1  0  0  0  0
  1  3  1  0  0  0  0
  1  4  1  0  0  0  0
  4  5  1  0  0  0  0
  4  6  1  0  0  0  0
  4  7  1  0  0  0  0
  7  8  1  0  0  0  0
  7  9  1  0  0  0  0
  7 10  1  0  0  0  0
 10 11  1  0  0  0  0
  1 12  1  0  0  0  0
 10 12  1  0  0  0  0
 12 13  1  0  0  0  0
 12 14  1  0  0  0  0
 10 15  1  0  0  0  0
 15 16  1  0  0  0  0
M  END
> <VConfSearch Rank>
313

> <Conf_Id>
59

> <Delta U+W>
0.000

> <U+W>
3.010

> <U>
5.843

> <W>
-2.833

> <W(PB)>
-4.568

> <W(SA)>
1.735

> <Valence>
13.789

> <Coulomb>
-8.574

> <VdW>
0.628

> <VdW6>
-3.284

> <VdW12>
3.912

> <Bond>
0.054

> <Angle>
4.034

> <Pdih>
9.702

> <Idih>
0.000

> <Tether>
0.000

$$$$
VeraChem MOL file


 16 16  0  0  0  0  0  0  0  0999 V2000     
   18.6268   17.4589   22.0701 C   0  0  0  0  0  0  0  0  0  0  0  0
   18.5277   16.4246   22.4267 H   0  0  0  0  0  0  0  0  0  0  0  0
   17.7611   17.6872   21.4329 H   0  0  0  0  0  0  0  0  0  0  0  0
   19.9231   17.6822   21.2792 C   0  0  0  0  0  0  0  0  0  0  0  0
   20.7459   17.1334   21.7581 H   0  0  0  0  0  0  0  0  0  0  0  0
   19.8429   17.3424   20.2377 H   0  0  0  0  0  0  0  0  0  0  0  0
   20.1829   19.1963   21.3849 C   0  0  0  0  0  0  0  0  0  0  0  0
   19.6947   19.7132   20.5484 H   0  0  0  0  0  0  0  0  0  0  0  0
   21.2557   19.4266   21.3392 H   0  0  0  0  0  0  0  0  0  0  0  0
   19.5399   19.6616   22.7077 C   0  0  0  0  0  0  0  0  0  0  0  0
   18.8860   20.5236   22.5104 H   0  0  0  0  0  0  0  0  0  0  0  0
   18.7041   18.4724   23.2266 C   0  0  0  0  0  0  0  0  0  0  0  0
   19.2013   18.0044   24.0871 H   0  0  0  0  0  0  0  0  0  0  0  0
   17.7042   18.7917   23.5475 H   0  0  0  0  0  0  0  0  0  0  0  0
   20.5493   20.0008   23.6511 O   0  0  0  0  0  0  0  0  0  0  0  0
   20.0870   20.2765   24.4707 H   0  0  0  0  0  0  0  0  0  0  0  0
  1  2  1  0  0  0  0
  1  3  1  0  0  0  0
  1  4  1  0  0  0  0
  4  5  1  0  0  0  0
  4  6  1  0  0  0  0
  4  7  1  0  0  0  0
  7  8  1  0  0  0  0
  7  9  1  0  0  0  0
  7 10  1  0  0  0  0
 10 11  1  0  0  0  0
  1 12  1  0  0  0  0
 10 12  1  0  0  0  0
 12 13  1  0  0  0  0
 12 14  1  0  0  0  0
 10 15  1  0  0  0  0
 15 16  1  0  0  0  0
M  END
> <VConfSearch Rank>
314

> <Conf_Id>
33

> <Delta U+W>
0.015

> <U+W>
3.025

> <U>
5.843

> <W>
-2.819

> <W(PB)>
-4.568

> <W(SA)>
1.750

> <Valence>
13.789

> <Coulomb>
-8.574

> <VdW>
0.628

> <VdW6>
-3.284

> <VdW12>
3.913

> <Bond>
0.054

> <Angle>
4.033

> <Pdih>
9.702

> <Idih>
0.000

> <Tether>
0.000

$$$$
VeraChem MOL file


 16 16  0  0  0  0  0  0  0  0999 V2000     
   18.2088   17.9643   22.2434 C   0  0  0  0  0  0  0  0  0  0  0  0
   17.3289   18.6223   22.2367 H   0  0  0  0  0  0  0  0  0  0  0  0
   17.8492   16.9265   22.2178 H   0  0  0  0  0  0  0  0  0  0  0  0
   19.0607   18.2392   23.5018 C   0  0  0  0  0  0  0  0  0  0  0  0
   18.5926   19.0295   24.1047 H   0  0  0  0  0  0  0  0  0  0  0  0
   19.1476   17.3449   24.1340 H   0  0  0  0  0  0  0  0  0  0  0  0
   20.4457   18.7008   23.0005 C   0  0  0  0  0  0  0  0  0  0  0  0
   21.1401   17.8503   23.0061 H   0  0  0  0  0  0  0  0  0  0  0  0
   20.8764   19.4880   23.6337 H   0  0  0  0  0  0  0  0  0  0  0  0
   20.2402   19.1668   21.5529 C   0  0  0  0  0  0  0  0  0  0  0  0
   21.1573   19.0530   20.9571 H   0  0  0  0  0  0  0  0  0  0  0  0
   19.1114   18.2689   21.0289 C   0  0  0  0  0  0  0  0  0  0  0  0
   18.5564   18.7367   20.2047 H   0  0  0  0  0  0  0  0  0  0  0  0
   19.5457   17.3340   20.6509 H   0  0  0  0  0  0  0  0  0  0  0  0
   19.8012   20.5174   21.5541 O   0  0  0  0  0  0  0  0  0  0  0  0
   18.9897   20.5210   22.1025 H   0  0  0  0  0  0  0  0  0  0  0  0
  1  2  1  0  0  0  0
  1  3  1  0  0  0  0
  1  4  1  0  0  0  0
  4  5  1  0  0  0  0
  4  6  1  0  0  0  0
  4  7  1  0  0  0  0
  7  8  1  0  0  0  0
  7  9  1  0  0  0  0
  7 10  1  0  0  0  0
 10 11  1  0  0  0  0
  1 12  1  0  0  0  0
 10 12  1  0  0  0  0
 12 13  1  0  0  0  0
 12 14  1  0  0  0  0
 10 15  1  0  0  0  0
 15 16  1  0  0  0  0
M  END
> <VConfSearch Rank>
315

> <Conf_Id>
20

> <Delta U+W>
-0.483

> <U+W>
2.527

> <U>
4.508

> <W>
-1.981

> <W(PB)>
-3.712

> <W(SA)>
1.732

> <Valence>
14.705

> <Coulomb>
-10.687

> <VdW>
0.490

> <VdW6>
-3.745

> <VdW12>
4.235

> <Bond>
0.068

> <Angle>
3.901

> <Pdih>
10.737

> <Idih>
0.000

> <Tether>
0.000

$$$$
VeraChem MOL file


 16 16  0  0  0  0  0  0  0  0999 V2000     
   19.3205   18.0513   23.6778 C   0  0  0  0  0  0  0  0  0  0  0  0
   20.3058   18.2965   24.0984 H   0  0  0  0  0  0  0  0  0  0  0  0
   18.7141   17.5893   24.4686 H   0  0  0  0  0  0  0  0  0  0  0  0
   19.4950   17.1327   22.4607 C   0  0  0  0  0  0  0  0  0  0  0  0
   20.2836   16.3831   22.6125 H   0  0  0  0  0  0  0  0  0  0  0  0
   18.5530   16.6043   22.2583 H   0  0  0  0  0  0  0  0  0  0  0  0
   19.8142   18.0919   21.2994 C   0  0  0  0  0  0  0  0  0  0  0  0
   19.4682   17.6881   20.3391 H   0  0  0  0  0  0  0  0  0  0  0  0
   20.9015   18.2337   21.2337 H   0  0  0  0  0  0  0  0  0  0  0  0
   19.1199   19.4284   21.6360 C   0  0  0  0  0  0  0  0  0  0  0  0
   18.2363   19.5653   20.9956 H   0  0  0  0  0  0  0  0  0  0  0  0
   18.6712   19.3262   23.1084 C   0  0  0  0  0  0  0  0  0  0  0  0
   18.9473   20.2153   23.6909 H   0  0  0  0  0  0  0  0  0  0  0  0
   17.5782   19.2303   23.1437 H   0  0  0  0  0  0  0  0  0  0  0  0
   20.0309   20.5091   21.4746 O   0  0  0  0  0  0  0  0  0  0  0  0
   20.2898   20.5199   20.5288 H   0  0  0  0  0  0  0  0  0  0  0  0
  1  2  1  0  0  0  0
  1  3  1  0  0  0  0
  1  4  1  0  0  0  0
  4  5  1  0  0  0  0
  4  6  1  0  0  0  0
  4  7  1  0  0  0  0
  7  8  1  0  0  0  0
  7  9  1  0  0  0  0
  7 10  1  0  0  0  0
 10 11  1  0  0  0  0
  1 12  1  0  0  0  0
 10 12  1  0  0  0  0
 12 13  1  0  0  0  0
 12 14  1  0  0  0  0
 10 15  1  0  0  0  0
 15 16  1  0  0  0  0
M  END
> <VConfSearch Rank>
316

> <Conf_Id>
59

> <Delta U+W>
0.000

> <U+W>
3.010

> <U>
5.843

> <W>
-2.833

> <W(PB)>
-4.568

> <W(SA)>
1.735

> <Valence>
13.789

> <Coulomb>
-8.574

> <VdW>
0.628

> <VdW6>
-3.284

> <VdW12>
3.912

> <Bond>
0.054

> <Angle>
4.034

> <Pdih>
9.702

> <Idih>
0.000

> <Tether>
0.000

$$$$
VeraChem MOL file


 16 16  0  0  0  0  0  0  0  0999 V2000     
   18.0850   18.9669   22.5491 C   0  0  0  0  0  0  0  0  0  0  0  0
   17.2996   19.6121   22.1323 H   0  0  0  0  0  0  0  0  0  0  0  0
   17.6344   18.3373   23.3290 H   0  0  0  0  0  0  0  0  0  0  0  0
   19.2480   19.7726   23.1440 C   0  0  0  0  0  0  0  0  0  0  0  0
   19.4634   20.6378   22.5015 H   0  0  0  0  0  0  0  0  0  0  0  0
   19.0291   20.1411   24.1554 H   0  0  0  0  0  0  0  0  0  0  0  0
   20.4425   18.8012   23.1183 C   0  0  0  0  0  0  0  0  0  0  0  0
   20.4776   18.2355   24.0583 H   0  0  0  0  0  0  0  0  0  0  0  0
   21.3962   19.3358   23.0146 H   0  0  0  0  0  0  0  0  0  0  0  0
   20.1894   17.8237   21.9520 C   0  0  0  0  0  0  0  0  0  0  0  0
   20.2901   16.7906   22.3155 H   0  0  0  0  0  0  0  0  0  0  0  0
   18.7430   18.0782   21.4778 C   0  0  0  0  0  0  0  0  0  0  0  0
   18.7456   18.6097   20.5164 H   0  0  0  0  0  0  0  0  0  0  0  0
   18.1917   17.1388   21.3421 H   0  0  0  0  0  0  0  0  0  0  0  0
   21.1049   18.0762   20.8928 O   0  0  0  0  0  0  0  0  0  0  0  0
   20.8922   17.4383   20.1791 H   0  0  0  0  0  0  0  0  0  0  0  0
  1  2  1  0  0  0  0
  1  3  1  0  0  0  0
  1  4  1  0  0  0  0
  4  5  1  0  0  0  0
  4  6  1  0  0  0  0
  4  7  1  0  0  0  0
  7  8  1  0  0  0  0
  7  9  1  0  0  0  0
  7 10  1  0  0  0  0
 10 11  1  0  0  0  0
  1 12  1  0  0  0  0
 10 12  1  0  0  0  0
 12 13  1  0  0  0  0
 12 14  1  0  0  0  0
 10 15  1  0  0  0  0
 15 16  1  0  0  0  0
M  END
> <VConfSearch Rank>
317

> <Conf_Id>
33

> <Delta U+W>
0.015

> <U+W>
3.025

> <U>
5.843

> <W>
-2.819

> <W(PB)>
-4.568

> <W(SA)>
1.750

> <Valence>
13.789

> <Coulomb>
-8.574

> <VdW>
0.628

> <VdW6>
-3.284

> <VdW12>
3.913

> <Bond>
0.054

> <Angle>
4.033

> <Pdih>
9.702

> <Idih>
0.000

> <Tether>
0.000

$$$$
VeraChem MOL file


 16 16  0  0  0  0  0  0  0  0999 V2000     
   20.0860   19.6972   22.5784 C   0  0  0  0  0  0  0  0  0  0  0  0
   19.4824   20.5361   22.9514 H   0  0  0  0  0  0  0  0  0  0  0  0
   21.1390   20.0101   22.5966 H   0  0  0  0  0  0  0  0  0  0  0  0
   19.6314   19.3163   21.1524 C   0  0  0  0  0  0  0  0  0  0  0  0
   18.8086   19.9715   20.8350 H   0  0  0  0  0  0  0  0  0  0  0  0
   20.4469   19.4291   20.4249 H   0  0  0  0  0  0  0  0  0  0  0  0
   19.1497   17.8516   21.2232 C   0  0  0  0  0  0  0  0  0  0  0  0
   19.9549   17.1840   20.8890 H   0  0  0  0  0  0  0  0  0  0  0  0
   18.2768   17.6691   20.5824 H   0  0  0  0  0  0  0  0  0  0  0  0
   18.8531   17.5727   22.7028 C   0  0  0  0  0  0  0  0  0  0  0  0
   18.9787   16.5080   22.9469 H   0  0  0  0  0  0  0  0  0  0  0  0
   19.8631   18.4479   23.4570 C   0  0  0  0  0  0  0  0  0  0  0  0
   19.5176   18.7057   24.4670 H   0  0  0  0  0  0  0  0  0  0  0  0
   20.8074   17.8968   23.5574 H   0  0  0  0  0  0  0  0  0  0  0  0
   17.5366   18.0102   23.0064 O   0  0  0  0  0  0  0  0  0  0  0  0
   17.5195   18.9576   22.7590 H   0  0  0  0  0  0  0  0  0  0  0  0
  1  2  1  0  0  0  0
  1  3  1  0  0  0  0
  1  4  1  0  0  0  0
  4  5  1  0  0  0  0
  4  6  1  0  0  0  0
  4  7  1  0  0  0  0
  7  8  1  0  0  0  0
  7  9  1  0  0  0  0
  7 10  1  0  0  0  0
 10 11  1  0  0  0  0
  1 12  1  0  0  0  0
 10 12  1  0  0  0  0
 12 13  1  0  0  0  0
 12 14  1  0  0  0  0
 10 15  1  0  0  0  0
 15 16  1  0  0  0  0
M  END
> <VConfSearch Rank>
318

> <Conf_Id>
20

> <Delta U+W>
-0.483

> <U+W>
2.527

> <U>
4.508

> <W>
-1.981

> <W(PB)>
-3.712

> <W(SA)>
1.732

> <Valence>
14.705

> <Coulomb>
-10.687

> <VdW>
0.490

> <VdW6>
-3.745

> <VdW12>
4.235

> <Bond>
0.068

> <Angle>
3.901

> <Pdih>
10.737

> <Idih>
0.000

> <Tether>
0.000

$$$$
VeraChem MOL file


 16 16  0  0  0  0  0  0  0  0999 V2000     
   20.5168   18.7607   23.1677 C   0  0  0  0  0  0  0  0  0  0  0  0
   20.3800   19.7640   23.5948 H   0  0  0  0  0  0  0  0  0  0  0  0
   21.4256   18.3227   23.6023 H   0  0  0  0  0  0  0  0  0  0  0  0
   20.5871   18.8583   21.6375 C   0  0  0  0  0  0  0  0  0  0  0  0
   21.1575   19.7344   21.3004 H   0  0  0  0  0  0  0  0  0  0  0  0
   21.0684   17.9577   21.2314 H   0  0  0  0  0  0  0  0  0  0  0  0
   19.1151   18.9094   21.1889 C   0  0  0  0  0  0  0  0  0  0  0  0
   18.9853   18.4766   20.1886 H   0  0  0  0  0  0  0  0  0  0  0  0
   18.7836   19.9560   21.1494 H   0  0  0  0  0  0  0  0  0  0  0  0
   18.3093   18.1331   22.2518 C   0  0  0  0  0  0  0  0  0  0  0  0
   17.9954   17.1591   21.8489 H   0  0  0  0  0  0  0  0  0  0  0  0
   19.2642   17.9082   23.4423 C   0  0  0  0  0  0  0  0  0  0  0  0
   18.8008   18.1685   24.4033 H   0  0  0  0  0  0  0  0  0  0  0  0
   19.5423   16.8470   23.4826 H   0  0  0  0  0  0  0  0  0  0  0  0
   17.1807   18.8943   22.6651 O   0  0  0  0  0  0  0  0  0  0  0  0
   16.6175   19.0156   21.8716 H   0  0  0  0  0  0  0  0  0  0  0  0
  1  2  1  0  0  0  0
  1  3  1  0  0  0  0
  1  4  1  0  0  0  0
  4  5  1  0  0  0  0
  4  6  1  0  0  0  0
  4  7  1  0  0  0  0
  7  8  1  0  0  0  0
  7  9  1  0  0  0  0
  7 10  1  0  0  0  0
 10 11  1  0  0  0  0
  1 12  1  0  0  0  0
 10 12  1  0  0  0  0
 12 13  1  0  0  0  0
 12 14  1  0  0  0  0
 10 15  1  0  0  0  0
 15 16  1  0  0  0  0
M  END
> <VConfSearch Rank>
319

> <Conf_Id>
59

> <Delta U+W>
0.000

> <U+W>
3.010

> <U>
5.843

> <W>
-2.833

> <W(PB)>
-4.568

> <W(SA)>
1.735

> <Valence>
13.789

> <Coulomb>
-8.574

> <VdW>
0.628

> <VdW6>
-3.284

> <VdW12>
3.912

> <Bond>
0.054

> <Angle>
4.034

> <Pdih>
9.702

> <Idih>
0.000

> <Tether>
0.000

$$$$
VeraChem MOL file


 16 16  0  0  0  0  0  0  0  0999 V2000     
   20.3537   19.5928   21.7576 C   0  0  0  0  0  0  0  0  0  0  0  0
   20.8608   19.8301   20.8124 H   0  0  0  0  0  0  0  0  0  0  0  0
   20.5175   20.4268   22.4542 H   0  0  0  0  0  0  0  0  0  0  0  0
   20.8664   18.2887   22.3839 C   0  0  0  0  0  0  0  0  0  0  0  0
   21.0389   17.5439   21.5944 H   0  0  0  0  0  0  0  0  0  0  0  0
   21.8057   18.4292   22.9357 H   0  0  0  0  0  0  0  0  0  0  0  0
   19.7155   17.8194   23.2928 C   0  0  0  0  0  0  0  0  0  0  0  0
   19.8439   18.2419   24.2978 H   0  0  0  0  0  0  0  0  0  0  0  0
   19.6975   16.7257   23.3903 H   0  0  0  0  0  0  0  0  0  0  0  0
   18.4144   18.3737   22.6766 C   0  0  0  0  0  0  0  0  0  0  0  0
   17.8423   18.9038   23.4520 H   0  0  0  0  0  0  0  0  0  0  0  0
   18.8434   19.3599   21.5697 C   0  0  0  0  0  0  0  0  0  0  0  0
   18.6639   18.9212   20.5787 H   0  0  0  0  0  0  0  0  0  0  0  0
   18.2820   20.3013   21.6284 H   0  0  0  0  0  0  0  0  0  0  0  0
   17.6454   17.3145   22.1193 O   0  0  0  0  0  0  0  0  0  0  0  0
   16.8413   17.7230   21.7345 H   0  0  0  0  0  0  0  0  0  0  0  0
  1  2  1  0  0  0  0
  1  3  1  0  0  0  0
  1  4  1  0  0  0  0
  4  5  1  0  0  0  0
  4  6  1  0  0  0  0
  4  7  1  0  0  0  0
  7  8  1  0  0  0  0
  7  9  1  0  0  0  0
  7 10  1  0  0  0  0
 10 11  1  0  0  0  0
  1 12  1  0  0  0  0
 10 12  1  0  0  0  0
 12 13  1  0  0  0  0
 12 14  1  0  0  0  0
 10 15  1  0  0  0  0
 15 16  1  0  0  0  0
M  END
> <VConfSearch Rank>
320

> <Conf_Id>
33

> <Delta U+W>
0.015

> <U+W>
3.025

> <U>
5.843

> <W>
-2.819

> <W(PB)>
-4.568

> <W(SA)>
1.750

> <Valence>
13.789

> <Coulomb>
-8.574

> <VdW>
0.628

> <VdW6>
-3.284

> <VdW12>
3.913

> <Bond>
0.054

> <Angle>
4.033

> <Pdih>
9.702

> <Idih>
0.000

> <Tether>
0.000

$$$$
VeraChem MOL file


 16 16  0  0  0  0  0  0  0  0999 V2000     
   19.2010   19.5398   21.3150 C   0  0  0  0  0  0  0  0  0  0  0  0
   20.1182   19.8209   20.7792 H   0  0  0  0  0  0  0  0  0  0  0  0
   18.3729   20.1199   20.8852 H   0  0  0  0  0  0  0  0  0  0  0  0
   19.3676   19.8203   22.8245 C   0  0  0  0  0  0  0  0  0  0  0  0
   20.3649   20.2382   23.0192 H   0  0  0  0  0  0  0  0  0  0  0  0
   18.6259   20.5464   23.1846 H   0  0  0  0  0  0  0  0  0  0  0  0
   19.2089   18.4630   23.5420 C   0  0  0  0  0  0  0  0  0  0  0  0
   18.1811   18.3635   23.9156 H   0  0  0  0  0  0  0  0  0  0  0  0
   19.8872   18.3639   24.3999 H   0  0  0  0  0  0  0  0  0  0  0  0
   19.4582   17.3871   22.4765 C   0  0  0  0  0  0  0  0  0  0  0  0
   18.9223   16.4556   22.7090 H   0  0  0  0  0  0  0  0  0  0  0  0
   18.9467   18.0236   21.1772 C   0  0  0  0  0  0  0  0  0  0  0  0
   19.4310   17.5995   20.2875 H   0  0  0  0  0  0  0  0  0  0  0  0
   17.8678   17.8390   21.0903 H   0  0  0  0  0  0  0  0  0  0  0  0
   20.8546   17.1540   22.3650 O   0  0  0  0  0  0  0  0  0  0  0  0
   21.2434   18.0290   22.1594 H   0  0  0  0  0  0  0  0  0  0  0  0
  1  2  1  0  0  0  0
  1  3  1  0  0  0  0
  1  4  1  0  0  0  0
  4  5  1  0  0  0  0
  4  6  1  0  0  0  0
  4  7  1  0  0  0  0
  7  8  1  0  0  0  0
  7  9  1  0  0  0  0
  7 10  1  0  0  0  0
 10 11  1  0  0  0  0
  1 12  1  0  0  0  0
 10 12  1  0  0  0  0
 12 13  1  0  0  0  0
 12 14  1  0  0  0  0
 10 15  1  0  0  0  0
 15 16  1  0  0  0  0
M  END
> <VConfSearch Rank>
321

> <Conf_Id>
20

> <Delta U+W>
-0.483

> <U+W>
2.527

> <U>
4.508

> <W>
-1.981

> <W(PB)>
-3.712

> <W(SA)>
1.732

> <Valence>
14.705

> <Coulomb>
-10.687

> <VdW>
0.490

> <VdW6>
-3.745

> <VdW12>
4.235

> <Bond>
0.068

> <Angle>
3.901

> <Pdih>
10.737

> <Idih>
0.000

> <Tether>
0.000

$$$$
VeraChem MOL file


 16 16  0  0  0  0  0  0  0  0999 V2000     
   19.9905   17.5275   23.1265 C   0  0  0  0  0  0  0  0  0  0  0  0
   20.7372   17.0633   22.4673 H   0  0  0  0  0  0  0  0  0  0  0  0
   20.0749   17.0669   24.1202 H   0  0  0  0  0  0  0  0  0  0  0  0
   18.5914   17.3579   22.5187 C   0  0  0  0  0  0  0  0  0  0  0  0
   18.4519   16.3693   22.0603 H   0  0  0  0  0  0  0  0  0  0  0  0
   17.8305   17.4841   23.3014 H   0  0  0  0  0  0  0  0  0  0  0  0
   18.4782   18.5005   21.4930 C   0  0  0  0  0  0  0  0  0  0  0  0
   17.4369   18.8237   21.3658 H   0  0  0  0  0  0  0  0  0  0  0  0
   18.8445   18.1511   20.5180 H   0  0  0  0  0  0  0  0  0  0  0  0
   19.3677   19.6468   22.0189 C   0  0  0  0  0  0  0  0  0  0  0  0
   18.7403   20.4587   22.4147 H   0  0  0  0  0  0  0  0  0  0  0  0
   20.2121   19.0509   23.1642 C   0  0  0  0  0  0  0  0  0  0  0  0
   21.2762   19.3070   23.0743 H   0  0  0  0  0  0  0  0  0  0  0  0
   19.8520   19.4521   24.1205 H   0  0  0  0  0  0  0  0  0  0  0  0
   20.2157   20.1255   20.9819 O   0  0  0  0  0  0  0  0  0  0  0  0
   19.6295   20.4803   20.2805 H   0  0  0  0  0  0  0  0  0  0  0  0
  1  2  1  0  0  0  0
  1  3  1  0  0  0  0
  1  4  1  0  0  0  0
  4  5  1  0  0  0  0
  4  6  1  0  0  0  0
  4  7  1  0  0  0  0
  7  8  1  0  0  0  0
  7  9  1  0  0  0  0
  7 10  1  0  0  0  0
 10 11  1  0  0  0  0
  1 12  1  0  0  0  0
 10 12  1  0  0  0  0
 12 13  1  0  0  0  0
 12 14  1  0  0  0  0
 10 15  1  0  0  0  0
 15 16  1  0  0  0  0
M  END
> <VConfSearch Rank>
322

> <Conf_Id>
59

> <Delta U+W>
0.000

> <U+W>
3.010

> <U>
5.843

> <W>
-2.833

> <W(PB)>
-4.568

> <W(SA)>
1.735

> <Valence>
13.789

> <Coulomb>
-8.574

> <VdW>
0.628

> <VdW6>
-3.284

> <VdW12>
3.912

> <Bond>
0.054

> <Angle>
4.034

> <Pdih>
9.702

> <Idih>
0.000

> <Tether>
0.000

$$$$
VeraChem MOL file


 16 16  0  0  0  0  0  0  0  0999 V2000     
   19.2712   19.6648   21.3332 C   0  0  0  0  0  0  0  0  0  0  0  0
   18.9355   20.7101   21.2973 H   0  0  0  0  0  0  0  0  0  0  0  0
   19.6862   19.4032   20.3499 H   0  0  0  0  0  0  0  0  0  0  0  0
   18.1331   18.6978   21.6871 C   0  0  0  0  0  0  0  0  0  0  0  0
   17.4945   19.1477   22.4601 H   0  0  0  0  0  0  0  0  0  0  0  0
   17.5042   18.4547   20.8199 H   0  0  0  0  0  0  0  0  0  0  0  0
   18.8446   17.4594   22.2626 C   0  0  0  0  0  0  0  0  0  0  0  0
   19.0667   16.7525   21.4527 H   0  0  0  0  0  0  0  0  0  0  0  0
   18.2175   16.9381   22.9981 H   0  0  0  0  0  0  0  0  0  0  0  0
   20.1709   17.9581   22.8727 C   0  0  0  0  0  0  0  0  0  0  0  0
   21.0014   17.3531   22.4805 H   0  0  0  0  0  0  0  0  0  0  0  0
   20.3299   19.4266   22.4255 C   0  0  0  0  0  0  0  0  0  0  0  0
   20.1402   20.1041   23.2691 H   0  0  0  0  0  0  0  0  0  0  0  0
   21.3427   19.6274   22.0530 H   0  0  0  0  0  0  0  0  0  0  0  0
   20.1178   17.8803   24.2922 O   0  0  0  0  0  0  0  0  0  0  0  0
   20.9762   18.2180   24.6247 H   0  0  0  0  0  0  0  0  0  0  0  0
  1  2  1  0  0  0  0
  1  3  1  0  0  0  0
  1  4  1  0  0  0  0
  4  5  1  0  0  0  0
  4  6  1  0  0  0  0
  4  7  1  0  0  0  0
  7  8  1  0  0  0  0
  7  9  1  0  0  0  0
  7 10  1  0  0  0  0
 10 11  1  0  0  0  0
  1 12  1  0  0  0  0
 10 12  1  0  0  0  0
 12 13  1  0  0  0  0
 12 14  1  0  0  0  0
 10 15  1  0  0  0  0
 15 16  1  0  0  0  0
M  END
> <VConfSearch Rank>
323

> <Conf_Id>
33

> <Delta U+W>
0.015

> <U+W>
3.025

> <U>
5.843

> <W>
-2.819

> <W(PB)>
-4.568

> <W(SA)>
1.750

> <Valence>
13.789

> <Coulomb>
-8.574

> <VdW>
0.628

> <VdW6>
-3.284

> <VdW12>
3.913

> <Bond>
0.054

> <Angle>
4.033

> <Pdih>
9.702

> <Idih>
0.000

> <Tether>
0.000

$$$$
VeraChem MOL file


 16 16  0  0  0  0  0  0  0  0999 V2000     
   18.1383   18.1252   22.3687 C   0  0  0  0  0  0  0  0  0  0  0  0
   17.9584   17.5490   23.2868 H   0  0  0  0  0  0  0  0  0  0  0  0
   17.1993   18.1457   21.7986 H   0  0  0  0  0  0  0  0  0  0  0  0
   19.2812   17.4768   21.5572 C   0  0  0  0  0  0  0  0  0  0  0  0
   19.6537   16.5863   22.0821 H   0  0  0  0  0  0  0  0  0  0  0  0
   18.9404   17.1591   20.5623 H   0  0  0  0  0  0  0  0  0  0  0  0
   20.3973   18.5376   21.4487 C   0  0  0  0  0  0  0  0  0  0  0  0
   20.3216   19.0520   20.4817 H   0  0  0  0  0  0  0  0  0  0  0  0
   21.4001   18.0948   21.5141 H   0  0  0  0  0  0  0  0  0  0  0  0
   20.1337   19.5485   22.5729 C   0  0  0  0  0  0  0  0  0  0  0  0
   20.5193   20.5462   22.3183 H   0  0  0  0  0  0  0  0  0  0  0  0
   18.6061   19.5537   22.7190 C   0  0  0  0  0  0  0  0  0  0  0  0
   18.2853   19.8624   23.7229 H   0  0  0  0  0  0  0  0  0  0  0  0
   18.1815   20.2657   21.9989 H   0  0  0  0  0  0  0  0  0  0  0  0
   20.7171   19.0718   23.7767 O   0  0  0  0  0  0  0  0  0  0  0  0
   20.3184   18.1889   23.9209 H   0  0  0  0  0  0  0  0  0  0  0  0
  1  2  1  0  0  0  0
  1  3  1  0  0  0  0
  1  4  1  0  0  0  0
  4  5  1  0  0  0  0
  4  6  1  0  0  0  0
  4  7  1  0  0  0  0
  7  8  1  0  0  0  0
  7  9  1  0  0  0  0
  7 10  1  0  0  0  0
 10 11  1  0  0  0  0
  1 12  1  0  0  0  0
 10 12  1  0  0  0  0
 12 13  1  0  0  0  0
 12 14  1  0  0  0  0
 10 15  1  0  0  0  0
 15 16  1  0  0  0  0
M  END
> <VConfSearch Rank>
324

> <Conf_Id>
20

> <Delta U+W>
-0.483

> <U+W>
2.527

> <U>
4.508

> <W>
-1.981

> <W(PB)>
-3.712

> <W(SA)>
1.732

> <Valence>
14.705

> <Coulomb>
-10.687

> <VdW>
0.490

> <VdW6>
-3.745

> <VdW12>
4.235

> <Bond>
0.068

> <Angle>
3.901

> <Pdih>
10.737

> <Idih>
0.000

> <Tether>
0.000

$$$$
VeraChem MOL file


 16 16  0  0  0  0  0  0  0  0999 V2000     
   19.8164   17.4448   21.4937 C   0  0  0  0  0  0  0  0  0  0  0  0
   18.9214   16.8316   21.3190 H   0  0  0  0  0  0  0  0  0  0  0  0
   20.6525   16.9995   20.9375 H   0  0  0  0  0  0  0  0  0  0  0  0
   20.0947   17.5310   23.0007 C   0  0  0  0  0  0  0  0  0  0  0  0
   19.9141   16.5769   23.5143 H   0  0  0  0  0  0  0  0  0  0  0  0
   21.1423   17.8180   23.1673 H   0  0  0  0  0  0  0  0  0  0  0  0
   19.1624   18.6504   23.4990 C   0  0  0  0  0  0  0  0  0  0  0  0
   19.5830   19.1631   24.3736 H   0  0  0  0  0  0  0  0  0  0  0  0
   18.1980   18.2152   23.7945 H   0  0  0  0  0  0  0  0  0  0  0  0
   18.9712   19.6178   22.3119 C   0  0  0  0  0  0  0  0  0  0  0  0
   19.5392   20.5434   22.4855 H   0  0  0  0  0  0  0  0  0  0  0  0
   19.5364   18.8984   21.0698 C   0  0  0  0  0  0  0  0  0  0  0  0
   18.8507   18.9448   20.2132 H   0  0  0  0  0  0  0  0  0  0  0  0
   20.4755   19.3828   20.7720 H   0  0  0  0  0  0  0  0  0  0  0  0
   17.5894   19.9020   22.1278 O   0  0  0  0  0  0  0  0  0  0  0  0
   17.2822   20.3459   22.9464 H   0  0  0  0  0  0  0  0  0  0  0  0
  1  2  1  0  0  0  0
  1  3  1  0  0  0  0
  1  4  1  0  0  0  0
  4  5  1  0  0  0  0
  4  6  1  0  0  0  0
  4  7  1  0  0  0  0
  7  8  1  0  0  0  0
  7  9  1  0  0  0  0
  7 10  1  0  0  0  0
 10 11  1  0  0  0  0
  1 12  1  0  0  0  0
 10 12  1  0  0  0  0
 12 13  1  0  0  0  0
 12 14  1  0  0  0  0
 10 15  1  0  0  0  0
 15 16  1  0  0  0  0
M  END
> <VConfSearch Rank>
325

> <Conf_Id>
59

> <Delta U+W>
0.000

> <U+W>
3.010

> <U>
5.843

> <W>
-2.833

> <W(PB)>
-4.568

> <W(SA)>
1.735

> <Valence>
13.789

> <Coulomb>
-8.574

> <VdW>
0.628

> <VdW6>
-3.284

> <VdW12>
3.912

> <Bond>
0.054

> <Angle>
4.034

> <Pdih>
9.702

> <Idih>
0.000

> <Tether>
0.000

$$$$
VeraChem MOL file


 16 16  0  0  0  0  0  0  0  0999 V2000     
   18.2684   19.3287   21.9100 C   0  0  0  0  0  0  0  0  0  0  0  0
   17.9232   20.3651   21.7942 H   0  0  0  0  0  0  0  0  0  0  0  0
   17.4942   18.6615   21.5062 H   0  0  0  0  0  0  0  0  0  0  0  0
   18.5489   18.9669   23.3750 C   0  0  0  0  0  0  0  0  0  0  0  0
   19.0296   19.8171   23.8788 H   0  0  0  0  0  0  0  0  0  0  0  0
   17.6339   18.7124   23.9268 H   0  0  0  0  0  0  0  0  0  0  0  0
   19.5361   17.7877   23.2983 C   0  0  0  0  0  0  0  0  0  0  0  0
   18.9792   16.8421   23.2699 H   0  0  0  0  0  0  0  0  0  0  0  0
   20.1995   17.7582   24.1730 H   0  0  0  0  0  0  0  0  0  0  0  0
   20.3159   17.9521   21.9774 C   0  0  0  0  0  0  0  0  0  0  0  0
   20.2752   17.0097   21.4119 H   0  0  0  0  0  0  0  0  0  0  0  0
   19.6046   19.0722   21.1893 C   0  0  0  0  0  0  0  0  0  0  0  0
   20.2077   19.9903   21.2046 H   0  0  0  0  0  0  0  0  0  0  0  0
   19.4469   18.7899   20.1404 H   0  0  0  0  0  0  0  0  0  0  0  0
   21.6635   18.3204   22.2459 O   0  0  0  0  0  0  0  0  0  0  0  0
   22.1059   18.4216   21.3767 H   0  0  0  0  0  0  0  0  0  0  0  0
  1  2  1  0  0  0  0
  1  3  1  0  0  0  0
  1  4  1  0  0  0  0
  4  5  1  0  0  0  0
  4  6  1  0  0  0  0
  4  7  1  0  0  0  0
  7  8  1  0  0  0  0
  7  9  1  0  0  0  0
  7 10  1  0  0  0  0
 10 11  1  0  0  0  0
  1 12  1  0  0  0  0
 10 12  1  0  0  0  0
 12 13  1  0  0  0  0
 12 14  1  0  0  0  0
 10 15  1  0  0  0  0
 15 16  1  0  0  0  0
M  END
> <VConfSearch Rank>
326

> <Conf_Id>
33

> <Delta U+W>
0.015

> <U+W>
3.025

> <U>
5.843

> <W>
-2.819

> <W(PB)>
-4.568

> <W(SA)>
1.750

> <Valence>
13.789

> <Coulomb>
-8.574

> <VdW>
0.628

> <VdW6>
-3.284

> <VdW12>
3.913

> <Bond>
0.054

> <Angle>
4.033

> <Pdih>
9.702

> <Idih>
0.000

> <Tether>
0.000

$$$$
VeraChem MOL file


 16 16  0  0  0  0  0  0  0  0999 V2000     
   18.0875   18.3823   22.5171 C   0  0  0  0  0  0  0  0  0  0  0  0
   17.7801   18.6360   23.5409 H   0  0  0  0  0  0  0  0  0  0  0  0
   17.1995   18.0167   21.9834 H   0  0  0  0  0  0  0  0  0  0  0  0
   19.2065   17.3184   22.5530 C   0  0  0  0  0  0  0  0  0  0  0  0
   19.4398   17.0565   23.5943 H   0  0  0  0  0  0  0  0  0  0  0  0
   18.9042   16.3967   22.0373 H   0  0  0  0  0  0  0  0  0  0  0  0
   20.4379   17.9554   21.8746 C   0  0  0  0  0  0  0  0  0  0  0  0
   20.4887   17.6305   20.8270 H   0  0  0  0  0  0  0  0  0  0  0  0
   21.3784   17.6637   22.3609 H   0  0  0  0  0  0  0  0  0  0  0  0
   20.2086   19.4722   21.9153 C   0  0  0  0  0  0  0  0  0  0  0  0
   20.7194   19.9811   21.0852 H   0  0  0  0  0  0  0  0  0  0  0  0
   18.6845   19.6217   21.8172 C   0  0  0  0  0  0  0  0  0  0  0  0
   18.3292   20.5615   22.2605 H   0  0  0  0  0  0  0  0  0  0  0  0
   18.3936   19.6208   20.7584 H   0  0  0  0  0  0  0  0  0  0  0  0
   20.6485   19.9783   23.1672 O   0  0  0  0  0  0  0  0  0  0  0  0
   20.1454   19.4720   23.8377 H   0  0  0  0  0  0  0  0  0  0  0  0
  1  2  1  0  0  0  0
  1  3  1  0  0  0  0
  1  4  1  0  0  0  0
  4  5  1  0  0  0  0
  4  6  1  0  0  0  0
  4  7  1  0  0  0  0
  7  8  1  0  0  0  0
  7  9  1  0  0  0  0
  7 10  1  0  0  0  0
 10 11  1  0  0  0  0
  1 12  1  0  0  0  0
 10 12  1  0  0  0  0
 12 13  1  0  0  0  0
 12 14  1  0  0  0  0
 10 15  1  0  0  0  0
 15 16  1  0  0  0  0
M  END
> <VConfSearch Rank>
327

> <Conf_Id>
20

> <Delta U+W>
-0.483

> <U+W>
2.527

> <U>
4.508

> <W>
-1.981

> <W(PB)>
-3.712

> <W(SA)>
1.732

> <Valence>
14.705

> <Coulomb>
-10.687

> <VdW>
0.490

> <VdW6>
-3.745

> <VdW12>
4.235

> <Bond>
0.068

> <Angle>
3.901

> <Pdih>
10.737

> <Idih>
0.000

> <Tether>
0.000

$$$$
VeraChem MOL file


 16 16  0  0  0  0  0  0  0  0999 V2000     
   19.1874   18.0481   23.6664 C   0  0  0  0  0  0  0  0  0  0  0  0
   18.6123   18.8246   24.1899 H   0  0  0  0  0  0  0  0  0  0  0  0
   19.3385   17.2074   24.3570 H   0  0  0  0  0  0  0  0  0  0  0  0
   20.5117   18.6396   23.1642 C   0  0  0  0  0  0  0  0  0  0  0  0
   20.9625   19.3305   23.8895 H   0  0  0  0  0  0  0  0  0  0  0  0
   21.2283   17.8294   22.9701 H   0  0  0  0  0  0  0  0  0  0  0  0
   20.1429   19.3368   21.8419 C   0  0  0  0  0  0  0  0  0  0  0  0
   20.9904   19.3481   21.1445 H   0  0  0  0  0  0  0  0  0  0  0  0
   19.8606   20.3784   22.0469 H   0  0  0  0  0  0  0  0  0  0  0  0
   18.9412   18.5614   21.2619 C   0  0  0  0  0  0  0  0  0  0  0  0
   19.2639   17.9544   20.4034 H   0  0  0  0  0  0  0  0  0  0  0  0
   18.4419   17.6298   22.3856 C   0  0  0  0  0  0  0  0  0  0  0  0
   17.3528   17.6814   22.5166 H   0  0  0  0  0  0  0  0  0  0  0  0
   18.6987   16.5932   22.1317 H   0  0  0  0  0  0  0  0  0  0  0  0
   17.9114   19.4657   20.8803 O   0  0  0  0  0  0  0  0  0  0  0  0
   18.2851   20.0367   20.1763 H   0  0  0  0  0  0  0  0  0  0  0  0
  1  2  1  0  0  0  0
  1  3  1  0  0  0  0
  1  4  1  0  0  0  0
  4  5  1  0  0  0  0
  4  6  1  0  0  0  0
  4  7  1  0  0  0  0
  7  8  1  0  0  0  0
  7  9  1  0  0  0  0
  7 10  1  0  0  0  0
 10 11  1  0  0  0  0
  1 12  1  0  0  0  0
 10 12  1  0  0  0  0
 12 13  1  0  0  0  0
 12 14  1  0  0  0  0
 10 15  1  0  0  0  0
 15 16  1  0  0  0  0
M  END
> <VConfSearch Rank>
328

> <Conf_Id>
59

> <Delta U+W>
0.000

> <U+W>
3.010

> <U>
5.843

> <W>
-2.833

> <W(PB)>
-4.568

> <W(SA)>
1.735

> <Valence>
13.789

> <Coulomb>
-8.574

> <VdW>
0.628

> <VdW6>
-3.284

> <VdW12>
3.912

> <Bond>
0.054

> <Angle>
4.034

> <Pdih>
9.702

> <Idih>
0.000

> <Tether>
0.000

$$$$
VeraChem MOL file


 16 16  0  0  0  0  0  0  0  0999 V2000     
   18.7962   17.3909   21.9198 C   0  0  0  0  0  0  0  0  0  0  0  0
   18.0380   17.0363   21.2084 H   0  0  0  0  0  0  0  0  0  0  0  0
   19.2472   16.5149   22.4064 H   0  0  0  0  0  0  0  0  0  0  0  0
   18.2060   18.3259   22.9844 C   0  0  0  0  0  0  0  0  0  0  0  0
   17.4642   18.9907   22.5203 H   0  0  0  0  0  0  0  0  0  0  0  0
   17.7142   17.7769   23.7989 H   0  0  0  0  0  0  0  0  0  0  0  0
   19.4061   19.1560   23.4761 C   0  0  0  0  0  0  0  0  0  0  0  0
   19.8838   18.6470   24.3233 H   0  0  0  0  0  0  0  0  0  0  0  0
   19.0958   20.1527   23.8172 H   0  0  0  0  0  0  0  0  0  0  0  0
   20.4046   19.2236   22.3021 C   0  0  0  0  0  0  0  0  0  0  0  0
   21.4006   18.9177   22.6542 H   0  0  0  0  0  0  0  0  0  0  0  0
   19.8923   18.2301   21.2380 C   0  0  0  0  0  0  0  0  0  0  0  0
   19.4579   18.7734   20.3878 H   0  0  0  0  0  0  0  0  0  0  0  0
   20.7024   17.5963   20.8547 H   0  0  0  0  0  0  0  0  0  0  0  0
   20.4429   20.5407   21.7658 O   0  0  0  0  0  0  0  0  0  0  0  0
   21.0804   20.5228   21.0210 H   0  0  0  0  0  0  0  0  0  0  0  0
  1  2  1  0  0  0  0
  1  3  1  0  0  0  0
  1  4  1  0  0  0  0
  4  5  1  0  0  0  0
  4  6  1  0  0  0  0
  4  7  1  0  0  0  0
  7  8  1  0  0  0  0
  7  9  1  0  0  0  0
  7 10  1  0  0  0  0
 10 11  1  0  0  0  0
  1 12  1  0  0  0  0
 10 12  1  0  0  0  0
 12 13  1  0  0  0  0
 12 14  1  0  0  0  0
 10 15  1  0  0  0  0
 15 16  1  0  0  0  0
M  END
> <VConfSearch Rank>
329

> <Conf_Id>
33

> <Delta U+W>
0.015

> <U+W>
3.025

> <U>
5.843

> <W>
-2.819

> <W(PB)>
-4.568

> <W(SA)>
1.750

> <Valence>
13.789

> <Coulomb>
-8.574

> <VdW>
0.628

> <VdW6>
-3.284

> <VdW12>
3.913

> <Bond>
0.054

> <Angle>
4.033

> <Pdih>
9.702

> <Idih>
0.000

> <Tether>
0.000

$$$$
VeraChem MOL file


 16 16  0  0  0  0  0  0  0  0999 V2000     
   18.4606   17.8688   22.8852 C   0  0  0  0  0  0  0  0  0  0  0  0
   17.5267   18.4016   23.1118 H   0  0  0  0  0  0  0  0  0  0  0  0
   18.3501   16.8358   23.2424 H   0  0  0  0  0  0  0  0  0  0  0  0
   19.6499   18.5810   23.5660 C   0  0  0  0  0  0  0  0  0  0  0  0
   19.2915   19.4577   24.1229 H   0  0  0  0  0  0  0  0  0  0  0  0
   20.1622   17.9201   24.2786 H   0  0  0  0  0  0  0  0  0  0  0  0
   20.6025   19.0212   22.4341 C   0  0  0  0  0  0  0  0  0  0  0  0
   21.4106   18.2854   22.3278 H   0  0  0  0  0  0  0  0  0  0  0  0
   21.0638   19.9975   22.6344 H   0  0  0  0  0  0  0  0  0  0  0  0
   19.7625   19.0277   21.1499 C   0  0  0  0  0  0  0  0  0  0  0  0
   20.3820   18.8440   20.2602 H   0  0  0  0  0  0  0  0  0  0  0  0
   18.7398   17.9044   21.3676 C   0  0  0  0  0  0  0  0  0  0  0  0
   17.8248   18.0551   20.7794 H   0  0  0  0  0  0  0  0  0  0  0  0
   19.1853   16.9510   21.0541 H   0  0  0  0  0  0  0  0  0  0  0  0
   19.0793   20.2682   21.0442 O   0  0  0  0  0  0  0  0  0  0  0  0
   18.5601   20.3444   21.8712 H   0  0  0  0  0  0  0  0  0  0  0  0
  1  2  1  0  0  0  0
  1  3  1  0  0  0  0
  1  4  1  0  0  0  0
  4  5  1  0  0  0  0
  4  6  1  0  0  0  0
  4  7  1  0  0  0  0
  7  8  1  0  0  0  0
  7  9  1  0  0  0  0
  7 10  1  0  0  0  0
 10 11  1  0  0  0  0
  1 12  1  0  0  0  0
 10 12  1  0  0  0  0
 12 13  1  0  0  0  0
 12 14  1  0  0  0  0
 10 15  1  0  0  0  0
 15 16  1  0  0  0  0
M  END
> <VConfSearch Rank>
330

> <Conf_Id>
20

> <Delta U+W>
-0.483

> <U+W>
2.527

> <U>
4.508

> <W>
-1.981

> <W(PB)>
-3.712

> <W(SA)>
1.732

> <Valence>
14.705

> <Coulomb>
-10.687

> <VdW>
0.490

> <VdW6>
-3.745

> <VdW12>
4.235

> <Bond>
0.068

> <Angle>
3.901

> <Pdih>
10.737

> <Idih>
0.000

> <Tether>
0.000

$$$$
VeraChem MOL file


 16 16  0  0  0  0  0  0  0  0999 V2000     
   18.7113   17.2969   22.6531 C   0  0  0  0  0  0  0  0  0  0  0  0
   18.7151   17.2624   23.7515 H   0  0  0  0  0  0  0  0  0  0  0  0
   18.1791   16.4102   22.2827 H   0  0  0  0  0  0  0  0  0  0  0  0
   20.1544   17.3731   22.1359 C   0  0  0  0  0  0  0  0  0  0  0  0
   20.8389   16.7352   22.7116 H   0  0  0  0  0  0  0  0  0  0  0  0
   20.1879   17.0526   21.0853 H   0  0  0  0  0  0  0  0  0  0  0  0
   20.5194   18.8654   22.2373 C   0  0  0  0  0  0  0  0  0  0  0  0
   21.2565   19.1507   21.4756 H   0  0  0  0  0  0  0  0  0  0  0  0
   20.9590   19.0656   23.2239 H   0  0  0  0  0  0  0  0  0  0  0  0
   19.1998   19.6482   22.0710 C   0  0  0  0  0  0  0  0  0  0  0  0
   19.1654   20.1213   21.0787 H   0  0  0  0  0  0  0  0  0  0  0  0
   18.0628   18.6113   22.1808 C   0  0  0  0  0  0  0  0  0  0  0  0
   17.2662   18.9370   22.8629 H   0  0  0  0  0  0  0  0  0  0  0  0
   17.6144   18.4655   21.1895 H   0  0  0  0  0  0  0  0  0  0  0  0
   19.0750   20.6239   23.0987 O   0  0  0  0  0  0  0  0  0  0  0  0
   19.8246   21.2463   22.9881 H   0  0  0  0  0  0  0  0  0  0  0  0
  1  2  1  0  0  0  0
  1  3  1  0  0  0  0
  1  4  1  0  0  0  0
  4  5  1  0  0  0  0
  4  6  1  0  0  0  0
  4  7  1  0  0  0  0
  7  8  1  0  0  0  0
  7  9  1  0  0  0  0
  7 10  1  0  0  0  0
 10 11  1  0  0  0  0
  1 12  1  0  0  0  0
 10 12  1  0  0  0  0
 12 13  1  0  0  0  0
 12 14  1  0  0  0  0
 10 15  1  0  0  0  0
 15 16  1  0  0  0  0
M  END
> <VConfSearch Rank>
331

> <Conf_Id>
59

> <Delta U+W>
0.000

> <U+W>
3.010

> <U>
5.843

> <W>
-2.833

> <W(PB)>
-4.568

> <W(SA)>
1.735

> <Valence>
13.789

> <Coulomb>
-8.574

> <VdW>
0.628

> <VdW6>
-3.284

> <VdW12>
3.912

> <Bond>
0.054

> <Angle>
4.034

> <Pdih>
9.702

> <Idih>
0.000

> <Tether>
0.000

$$$$
VeraChem MOL file


 16 16  0  0  0  0  0  0  0  0999 V2000     
   20.1403   19.2023   21.1794 C   0  0  0  0  0  0  0  0  0  0  0  0
   21.1556   19.5135   20.8982 H   0  0  0  0  0  0  0  0  0  0  0  0
   19.4991   19.2775   20.2901 H   0  0  0  0  0  0  0  0  0  0  0  0
   19.5581   20.0620   22.3098 C   0  0  0  0  0  0  0  0  0  0  0  0
   20.3426   20.2805   23.0477 H   0  0  0  0  0  0  0  0  0  0  0  0
   19.1531   21.0159   21.9454 H   0  0  0  0  0  0  0  0  0  0  0  0
   18.4783   19.1726   22.9532 C   0  0  0  0  0  0  0  0  0  0  0  0
   17.5152   19.3435   22.4548 H   0  0  0  0  0  0  0  0  0  0  0  0
   18.3478   19.4021   24.0192 H   0  0  0  0  0  0  0  0  0  0  0  0
   18.9142   17.7116   22.7178 C   0  0  0  0  0  0  0  0  0  0  0  0
   18.0794   17.1506   22.2731 H   0  0  0  0  0  0  0  0  0  0  0  0
   20.0996   17.7654   21.7310 C   0  0  0  0  0  0  0  0  0  0  0  0
   21.0410   17.5505   22.2548 H   0  0  0  0  0  0  0  0  0  0  0  0
   19.9869   17.0293   20.9246 H   0  0  0  0  0  0  0  0  0  0  0  0
   19.3231   17.1181   23.9443 O   0  0  0  0  0  0  0  0  0  0  0  0
   19.5983   16.2005   23.7348 H   0  0  0  0  0  0  0  0  0  0  0  0
  1  2  1  0  0  0  0
  1  3  1  0  0  0  0
  1  4  1  0  0  0  0
  4  5  1  0  0  0  0
  4  6  1  0  0  0  0
  4  7  1  0  0  0  0
  7  8  1  0  0  0  0
  7  9  1  0  0  0  0
  7 10  1  0  0  0  0
 10 11  1  0  0  0  0
  1 12  1  0  0  0  0
 10 12  1  0  0  0  0
 12 13  1  0  0  0  0
 12 14  1  0  0  0  0
 10 15  1  0  0  0  0
 15 16  1  0  0  0  0
M  END
> <VConfSearch Rank>
332

> <Conf_Id>
33

> <Delta U+W>
0.015

> <U+W>
3.025

> <U>
5.843

> <W>
-2.819

> <W(PB)>
-4.568

> <W(SA)>
1.750

> <Valence>
13.789

> <Coulomb>
-8.574

> <VdW>
0.628

> <VdW6>
-3.284

> <VdW12>
3.913

> <Bond>
0.054

> <Angle>
4.033

> <Pdih>
9.702

> <Idih>
0.000

> <Tether>
0.000

$$$$
VeraChem MOL file


 16 16  0  0  0  0  0  0  0  0999 V2000     
   18.8357   17.4317   21.9394 C   0  0  0  0  0  0  0  0  0  0  0  0
   17.7470   17.3824   22.0794 H   0  0  0  0  0  0  0  0  0  0  0  0
   19.1655   16.4603   21.5461 H   0  0  0  0  0  0  0  0  0  0  0  0
   19.5234   17.7639   23.2817 C   0  0  0  0  0  0  0  0  0  0  0  0
   18.7676   17.8743   24.0716 H   0  0  0  0  0  0  0  0  0  0  0  0
   20.2136   16.9667   23.5901 H   0  0  0  0  0  0  0  0  0  0  0  0
   20.2733   19.0964   23.0713 C   0  0  0  0  0  0  0  0  0  0  0  0
   21.3297   18.8922   22.8524 H   0  0  0  0  0  0  0  0  0  0  0  0
   20.2347   19.7406   23.9598 H   0  0  0  0  0  0  0  0  0  0  0  0
   19.6292   19.7577   21.8454 C   0  0  0  0  0  0  0  0  0  0  0  0
   20.3384   20.4135   21.3200 H   0  0  0  0  0  0  0  0  0  0  0  0
   19.1970   18.5753   20.9679 C   0  0  0  0  0  0  0  0  0  0  0  0
   18.3633   18.8346   20.3017 H   0  0  0  0  0  0  0  0  0  0  0  0
   20.0439   18.2692   20.3397 H   0  0  0  0  0  0  0  0  0  0  0  0
   18.4781   20.4814   22.2552 O   0  0  0  0  0  0  0  0  0  0  0  0
   17.9114   19.8235   22.7081 H   0  0  0  0  0  0  0  0  0  0  0  0
  1  2  1  0  0  0  0
  1  3  1  0  0  0  0
  1  4  1  0  0  0  0
  4  5  1  0  0  0  0
  4  6  1  0  0  0  0
  4  7  1  0  0  0  0
  7  8  1  0  0  0  0
  7  9  1  0  0  0  0
  7 10  1  0  0  0  0
 10 11  1  0  0  0  0
  1 12  1  0  0  0  0
 10 12  1  0  0  0  0
 12 13  1  0  0  0  0
 12 14  1  0  0  0  0
 10 15  1  0  0  0  0
 15 16  1  0  0  0  0
M  END
> <VConfSearch Rank>
333

> <Conf_Id>
20

> <Delta U+W>
-0.483

> <U+W>
2.527

> <U>
4.508

> <W>
-1.981

> <W(PB)>
-3.712

> <W(SA)>
1.732

> <Valence>
14.705

> <Coulomb>
-10.687

> <VdW>
0.490

> <VdW6>
-3.745

> <VdW12>
4.235

> <Bond>
0.068

> <Angle>
3.901

> <Pdih>
10.737

> <Idih>
0.000

> <Tether>
0.000

$$$$
VeraChem MOL file


 16 16  0  0  0  0  0  0  0  0999 V2000     
   18.2499   19.3715   21.8479 C   0  0  0  0  0  0  0  0  0  0  0  0
   17.4631   18.6546   21.5748 H   0  0  0  0  0  0  0  0  0  0  0  0
   17.8535   20.3866   21.7097 H   0  0  0  0  0  0  0  0  0  0  0  0
   19.5013   19.1101   20.9985 C   0  0  0  0  0  0  0  0  0  0  0  0
   19.2551   18.8606   19.9574 H   0  0  0  0  0  0  0  0  0  0  0  0
   20.1396   20.0047   20.9957 H   0  0  0  0  0  0  0  0  0  0  0  0
   20.2219   17.9582   21.7225 C   0  0  0  0  0  0  0  0  0  0  0  0
   21.3075   18.0031   21.5664 H   0  0  0  0  0  0  0  0  0  0  0  0
   19.8633   16.9987   21.3253 H   0  0  0  0  0  0  0  0  0  0  0  0
   19.8578   18.0881   23.2165 C   0  0  0  0  0  0  0  0  0  0  0  0
   20.7206   18.4687   23.7824 H   0  0  0  0  0  0  0  0  0  0  0  0
   18.7053   19.1105   23.2955 C   0  0  0  0  0  0  0  0  0  0  0  0
   17.8762   18.7564   23.9225 H   0  0  0  0  0  0  0  0  0  0  0  0
   19.0830   20.0422   23.7366 H   0  0  0  0  0  0  0  0  0  0  0  0
   19.4342   16.8307   23.7297 O   0  0  0  0  0  0  0  0  0  0  0  0
   20.1973   16.2208   23.6451 H   0  0  0  0  0  0  0  0  0  0  0  0
  1  2  1  0  0  0  0
  1  3  1  0  0  0  0
  1  4  1  0  0  0  0
  4  5  1  0  0  0  0
  4  6  1  0  0  0  0
  4  7  1  0  0  0  0
  7  8  1  0  0  0  0
  7  9  1  0  0  0  0
  7 10  1  0  0  0  0
 10 11  1  0  0  0  0
  1 12  1  0  0  0  0
 10 12  1  0  0  0  0
 12 13  1  0  0  0  0
 12 14  1  0  0  0  0
 10 15  1  0  0  0  0
 15 16  1  0  0  0  0
M  END
> <VConfSearch Rank>
334

> <Conf_Id>
59

> <Delta U+W>
0.000

> <U+W>
3.010

> <U>
5.843

> <W>
-2.833

> <W(PB)>
-4.568

> <W(SA)>
1.735

> <Valence>
13.789

> <Coulomb>
-8.574

> <VdW>
0.628

> <VdW6>
-3.284

> <VdW12>
3.912

> <Bond>
0.054

> <Angle>
4.034

> <Pdih>
9.702

> <Idih>
0.000

> <Tether>
0.000

$$$$
VeraChem MOL file


 16 16  0  0  0  0  0  0  0  0999 V2000     
   20.2384   19.7915   22.5196 C   0  0  0  0  0  0  0  0  0  0  0  0
   21.2317   20.0701   22.8971 H   0  0  0  0  0  0  0  0  0  0  0  0
   19.7662   20.6901   22.0988 H   0  0  0  0  0  0  0  0  0  0  0  0
   19.3410   19.2022   23.6164 C   0  0  0  0  0  0  0  0  0  0  0  0
   19.9374   18.5495   24.2691 H   0  0  0  0  0  0  0  0  0  0  0  0
   18.8748   19.9780   24.2389 H   0  0  0  0  0  0  0  0  0  0  0  0
   18.3031   18.3588   22.8532 C   0  0  0  0  0  0  0  0  0  0  0  0
   17.4326   18.9806   22.6065 H   0  0  0  0  0  0  0  0  0  0  0  0
   17.9484   17.5119   23.4556 H   0  0  0  0  0  0  0  0  0  0  0  0
   18.9826   17.9032   21.5453 C   0  0  0  0  0  0  0  0  0  0  0  0
   18.3335   18.1518   20.6930 H   0  0  0  0  0  0  0  0  0  0  0  0
   20.3074   18.6887   21.4473 C   0  0  0  0  0  0  0  0  0  0  0  0
   21.1585   18.0276   21.6603 H   0  0  0  0  0  0  0  0  0  0  0  0
   20.4520   19.1122   20.4451 H   0  0  0  0  0  0  0  0  0  0  0  0
   19.2428   16.5052   21.5890 O   0  0  0  0  0  0  0  0  0  0  0  0
   19.6822   16.2744   20.7433 H   0  0  0  0  0  0  0  0  0  0  0  0
  1  2  1  0  0  0  0
  1  3  1  0  0  0  0
  1  4  1  0  0  0  0
  4  5  1  0  0  0  0
  4  6  1  0  0  0  0
  4  7  1  0  0  0  0
  7  8  1  0  0  0  0
  7  9  1  0  0  0  0
  7 10  1  0  0  0  0
 10 11  1  0  0  0  0
  1 12  1  0  0  0  0
 10 12  1  0  0  0  0
 12 13  1  0  0  0  0
 12 14  1  0  0  0  0
 10 15  1  0  0  0  0
 15 16  1  0  0  0  0
M  END
> <VConfSearch Rank>
335

> <Conf_Id>
33

> <Delta U+W>
0.015

> <U+W>
3.025

> <U>
5.843

> <W>
-2.819

> <W(PB)>
-4.568

> <W(SA)>
1.750

> <Valence>
13.789

> <Coulomb>
-8.574

> <VdW>
0.628

> <VdW6>
-3.284

> <VdW12>
3.913

> <Bond>
0.054

> <Angle>
4.033

> <Pdih>
9.702

> <Idih>
0.000

> <Tether>
0.000

$$$$
VeraChem MOL file


 16 16  0  0  0  0  0  0  0  0999 V2000     
   18.9613   18.1075   23.4236 C   0  0  0  0  0  0  0  0  0  0  0  0
   19.4162   17.1431   23.6886 H   0  0  0  0  0  0  0  0  0  0  0  0
   18.2824   18.3912   24.2395 H   0  0  0  0  0  0  0  0  0  0  0  0
   18.2122   17.9830   22.0789 C   0  0  0  0  0  0  0  0  0  0  0  0
   18.3037   16.9581   21.6936 H   0  0  0  0  0  0  0  0  0  0  0  0
   17.1416   18.2025   22.1911 H   0  0  0  0  0  0  0  0  0  0  0  0
   18.8842   18.9788   21.1097 C   0  0  0  0  0  0  0  0  0  0  0  0
   18.3014   19.9088   21.0770 H   0  0  0  0  0  0  0  0  0  0  0  0
   18.9450   18.5865   20.0858 H   0  0  0  0  0  0  0  0  0  0  0  0
   20.2683   19.2787   21.7005 C   0  0  0  0  0  0  0  0  0  0  0  0
   20.6249   20.2772   21.4092 H   0  0  0  0  0  0  0  0  0  0  0  0
   20.0570   19.1748   23.2169 C   0  0  0  0  0  0  0  0  0  0  0  0
   20.9846   18.9277   23.7503 H   0  0  0  0  0  0  0  0  0  0  0  0
   19.7021   20.1428   23.5946 H   0  0  0  0  0  0  0  0  0  0  0  0
   21.1817   18.2735   21.2856 O   0  0  0  0  0  0  0  0  0  0  0  0
   20.7851   17.4296   21.5849 H   0  0  0  0  0  0  0  0  0  0  0  0
  1  2  1  0  0  0  0
  1  3  1  0  0  0  0
  1  4  1  0  0  0  0
  4  5  1  0  0  0  0
  4  6  1  0  0  0  0
  4  7  1  0  0  0  0
  7  8  1  0  0  0  0
  7  9  1  0  0  0  0
  7 10  1  0  0  0  0
 10 11  1  0  0  0  0
  1 12  1  0  0  0  0
 10 12  1  0  0  0  0
 12 13  1  0  0  0  0
 12 14  1  0  0  0  0
 10 15  1  0  0  0  0
 15 16  1  0  0  0  0
M  END
> <VConfSearch Rank>
336

> <Conf_Id>
20

> <Delta U+W>
-0.483

> <U+W>
2.527

> <U>
4.508

> <W>
-1.981

> <W(PB)>
-3.712

> <W(SA)>
1.732

> <Valence>
14.705

> <Coulomb>
-10.687

> <VdW>
0.490

> <VdW6>
-3.745

> <VdW12>
4.235

> <Bond>
0.068

> <Angle>
3.901

> <Pdih>
10.737

> <Idih>
0.000

> <Tether>
0.000

$$$$
VeraChem MOL file


 16 16  0  0  0  0  0  0  0  0999 V2000     
   20.7632   18.7946   22.0286 C   0  0  0  0  0  0  0  0  0  0  0  0
   21.2053   17.7949   21.9148 H   0  0  0  0  0  0  0  0  0  0  0  0
   21.5433   19.5409   21.8258 H   0  0  0  0  0  0  0  0  0  0  0  0
   20.1678   18.9365   23.4361 C   0  0  0  0  0  0  0  0  0  0  0  0
   20.7984   18.4706   24.2056 H   0  0  0  0  0  0  0  0  0  0  0  0
   20.0538   20.0011   23.6836 H   0  0  0  0  0  0  0  0  0  0  0  0
   18.7817   18.2740   23.3343 C   0  0  0  0  0  0  0  0  0  0  0  0
   18.0698   18.7230   24.0389 H   0  0  0  0  0  0  0  0  0  0  0  0
   18.8705   17.2066   23.5785 H   0  0  0  0  0  0  0  0  0  0  0  0
   18.3212   18.4515   21.8721 C   0  0  0  0  0  0  0  0  0  0  0  0
   17.5322   19.2156   21.8162 H   0  0  0  0  0  0  0  0  0  0  0  0
   19.5557   18.9349   21.0834 C   0  0  0  0  0  0  0  0  0  0  0  0
   19.7030   18.3707   20.1528 H   0  0  0  0  0  0  0  0  0  0  0  0
   19.4183   19.9906   20.8154 H   0  0  0  0  0  0  0  0  0  0  0  0
   17.8594   17.2117   21.3490 O   0  0  0  0  0  0  0  0  0  0  0  0
   17.0861   16.9482   21.8913 H   0  0  0  0  0  0  0  0  0  0  0  0
  1  2  1  0  0  0  0
  1  3  1  0  0  0  0
  1  4  1  0  0  0  0
  4  5  1  0  0  0  0
  4  6  1  0  0  0  0
  4  7  1  0  0  0  0
  7  8  1  0  0  0  0
  7  9  1  0  0  0  0
  7 10  1  0  0  0  0
 10 11  1  0  0  0  0
  1 12  1  0  0  0  0
 10 12  1  0  0  0  0
 12 13  1  0  0  0  0
 12 14  1  0  0  0  0
 10 15  1  0  0  0  0
 15 16  1  0  0  0  0
M  END
> <VConfSearch Rank>
337

> <Conf_Id>
59

> <Delta U+W>
0.000

> <U+W>
3.010

> <U>
5.843

> <W>
-2.833

> <W(PB)>
-4.568

> <W(SA)>
1.735

> <Valence>
13.789

> <Coulomb>
-8.574

> <VdW>
0.628

> <VdW6>
-3.284

> <VdW12>
3.912

> <Bond>
0.054

> <Angle>
4.034

> <Pdih>
9.702

> <Idih>
0.000

> <Tether>
0.000

$$$$
VeraChem MOL file


 16 16  0  0  0  0  0  0  0  0999 V2000     
   18.1582   19.2058   22.1074 C   0  0  0  0  0  0  0  0  0  0  0  0
   17.6324   20.1437   22.3321 H   0  0  0  0  0  0  0  0  0  0  0  0
   17.5153   18.5995   21.4541 H   0  0  0  0  0  0  0  0  0  0  0  0
   18.5024   18.4111   23.3746 C   0  0  0  0  0  0  0  0  0  0  0  0
   18.8238   19.1019   24.1665 H   0  0  0  0  0  0  0  0  0  0  0  0
   17.6491   17.8301   23.7501 H   0  0  0  0  0  0  0  0  0  0  0  0
   19.6850   17.5168   22.9591 C   0  0  0  0  0  0  0  0  0  0  0  0
   19.3067   16.5602   22.5758 H   0  0  0  0  0  0  0  0  0  0  0  0
   20.3448   17.2982   23.8093 H   0  0  0  0  0  0  0  0  0  0  0  0
   20.4196   18.2585   21.8234 C   0  0  0  0  0  0  0  0  0  0  0  0
   20.5474   17.5786   20.9685 H   0  0  0  0  0  0  0  0  0  0  0  0
   19.5171   19.4451   21.4242 C   0  0  0  0  0  0  0  0  0  0  0  0
   19.9456   20.3887   21.7885 H   0  0  0  0  0  0  0  0  0  0  0  0
   19.4102   19.5219   20.3345 H   0  0  0  0  0  0  0  0  0  0  0  0
   21.6799   18.7330   22.2821 O   0  0  0  0  0  0  0  0  0  0  0  0
   22.0950   19.2028   21.5281 H   0  0  0  0  0  0  0  0  0  0  0  0
  1  2  1  0  0  0  0
  1  3  1  0  0  0  0
  1  4  1  0  0  0  0
  4  5  1  0  0  0  0
  4  6  1  0  0  0  0
  4  7  1  0  0  0  0
  7  8  1  0  0  0  0
  7  9  1  0  0  0  0
  7 10  1  0  0  0  0
 10 11  1  0  0  0  0
  1 12  1  0  0  0  0
 10 12  1  0  0  0  0
 12 13  1  0  0  0  0
 12 14  1  0  0  0  0
 10 15  1  0  0  0  0
 15 16  1  0  0  0  0
M  END
> <VConfSearch Rank>
338

> <Conf_Id>
33

> <Delta U+W>
0.015

> <U+W>
3.025

> <U>
5.843

> <W>
-2.819

> <W(PB)>
-4.568

> <W(SA)>
1.750

> <Valence>
13.789

> <Coulomb>
-8.574

> <VdW>
0.628

> <VdW6>
-3.284

> <VdW12>
3.913

> <Bond>
0.054

> <Angle>
4.033

> <Pdih>
9.702

> <Idih>
0.000

> <Tether>
0.000

$$$$
VeraChem MOL file


 16 16  0  0  0  0  0  0  0  0999 V2000     
   18.6274   17.8218   23.0324 C   0  0  0  0  0  0  0  0  0  0  0  0
   18.9510   17.7776   24.0814 H   0  0  0  0  0  0  0  0  0  0  0  0
   17.7340   17.1902   22.9323 H   0  0  0  0  0  0  0  0  0  0  0  0
   19.7688   17.3411   22.1099 C   0  0  0  0  0  0  0  0  0  0  0  0
   20.6446   17.0633   22.7125 H   0  0  0  0  0  0  0  0  0  0  0  0
   19.4722   16.4587   21.5264 H   0  0  0  0  0  0  0  0  0  0  0  0
   20.1130   18.5278   21.1847 C   0  0  0  0  0  0  0  0  0  0  0  0
   19.6012   18.4024   20.2214 H   0  0  0  0  0  0  0  0  0  0  0  0
   21.1902   18.6002   20.9839 H   0  0  0  0  0  0  0  0  0  0  0  0
   19.5658   19.7816   21.8802 C   0  0  0  0  0  0  0  0  0  0  0  0
   19.3112   20.5679   21.1550 H   0  0  0  0  0  0  0  0  0  0  0  0
   18.3238   19.2804   22.6293 C   0  0  0  0  0  0  0  0  0  0  0  0
   18.0785   19.9093   23.4955 H   0  0  0  0  0  0  0  0  0  0  0  0
   17.4636   19.3011   21.9472 H   0  0  0  0  0  0  0  0  0  0  0  0
   20.5218   20.2497   22.8203 O   0  0  0  0  0  0  0  0  0  0  0  0
   20.6847   19.4908   23.4175 H   0  0  0  0  0  0  0  0  0  0  0  0
  1  2  1  0  0  0  0
  1  3  1  0  0  0  0
  1  4  1  0  0  0  0
  4  5  1  0  0  0  0
  4  6  1  0  0  0  0
  4  7  1  0  0  0  0
  7  8  1  0  0  0  0
  7  9  1  0  0  0  0
  7 10  1  0  0  0  0
 10 11  1  0  0  0  0
  1 12  1  0  0  0  0
 10 12  1  0  0  0  0
 12 13  1  0  0  0  0
 12 14  1  0  0  0  0
 10 15  1  0  0  0  0
 15 16  1  0  0  0  0
M  END
> <VConfSearch Rank>
339

> <Conf_Id>
20

> <Delta U+W>
-0.483

> <U+W>
2.527

> <U>
4.508

> <W>
-1.981

> <W(PB)>
-3.712

> <W(SA)>
1.732

> <Valence>
14.705

> <Coulomb>
-10.687

> <VdW>
0.490

> <VdW6>
-3.745

> <VdW12>
4.235

> <Bond>
0.068

> <Angle>
3.901

> <Pdih>
10.737

> <Idih>
0.000

> <Tether>
0.000

$$$$
VeraChem MOL file


 16 16  0  0  0  0  0  0  0  0999 V2000     
   20.1800   19.2520   23.2893 C   0  0  0  0  0  0  0  0  0  0  0  0
   19.8166   18.9061   24.2671 H   0  0  0  0  0  0  0  0  0  0  0  0
   21.0332   19.9233   23.4572 H   0  0  0  0  0  0  0  0  0  0  0  0
   19.0364   19.9366   22.5283 C   0  0  0  0  0  0  0  0  0  0  0  0
   18.4079   20.5536   23.1848 H   0  0  0  0  0  0  0  0  0  0  0  0
   19.4506   20.5832   21.7421 H   0  0  0  0  0  0  0  0  0  0  0  0
   18.2529   18.7757   21.8888 C   0  0  0  0  0  0  0  0  0  0  0  0
   17.7667   19.0862   20.9549 H   0  0  0  0  0  0  0  0  0  0  0  0
   17.4693   18.4409   22.5821 H   0  0  0  0  0  0  0  0  0  0  0  0
   19.2732   17.6431   21.6478 C   0  0  0  0  0  0  0  0  0  0  0  0
   19.5046   17.5669   20.5753 H   0  0  0  0  0  0  0  0  0  0  0  0
   20.5503   18.0377   22.4178 C   0  0  0  0  0  0  0  0  0  0  0  0
   20.9442   17.2106   23.0234 H   0  0  0  0  0  0  0  0  0  0  0  0
   21.3281   18.3242   21.6981 H   0  0  0  0  0  0  0  0  0  0  0  0
   18.7637   16.4101   22.1418 O   0  0  0  0  0  0  0  0  0  0  0  0
   17.9518   16.2151   21.6276 H   0  0  0  0  0  0  0  0  0  0  0  0
  1  2  1  0  0  0  0
  1  3  1  0  0  0  0
  1  4  1  0  0  0  0
  4  5  1  0  0  0  0
  4  6  1  0  0  0  0
  4  7  1  0  0  0  0
  7  8  1  0  0  0  0
  7  9  1  0  0  0  0
  7 10  1  0  0  0  0
 10 11  1  0  0  0  0
  1 12  1  0  0  0  0
 10 12  1  0  0  0  0
 12 13  1  0  0  0  0
 12 14  1  0  0  0  0
 10 15  1  0  0  0  0
 15 16  1  0  0  0  0
M  END
> <VConfSearch Rank>
340

> <Conf_Id>
59

> <Delta U+W>
0.000

> <U+W>
3.010

> <U>
5.843

> <W>
-2.833

> <W(PB)>
-4.568

> <W(SA)>
1.735

> <Valence>
13.789

> <Coulomb>
-8.574

> <VdW>
0.628

> <VdW6>
-3.284

> <VdW12>
3.912

> <Bond>
0.054

> <Angle>
4.034

> <Pdih>
9.702

> <Idih>
0.000

> <Tether>
0.000

$$$$
VeraChem MOL file


 16 16  0  0  0  0  0  0  0  0999 V2000     
   20.0996   19.8893   22.1907 C   0  0  0  0  0  0  0  0  0  0  0  0
   19.9084   20.8896   21.7788 H   0  0  0  0  0  0  0  0  0  0  0  0
   21.0200   19.9345   22.7894 H   0  0  0  0  0  0  0  0  0  0  0  0
   20.2482   18.8250   21.0948 C   0  0  0  0  0  0  0  0  0  0  0  0
   19.5163   19.0133   20.2970 H   0  0  0  0  0  0  0  0  0  0  0  0
   21.2515   18.8207   20.6475 H   0  0  0  0  0  0  0  0  0  0  0  0
   19.9132   17.4974   21.7992 C   0  0  0  0  0  0  0  0  0  0  0  0
   20.8296   17.0602   22.2165 H   0  0  0  0  0  0  0  0  0  0  0  0
   19.4826   16.7669   21.1013 H   0  0  0  0  0  0  0  0  0  0  0  0
   18.9499   17.8428   22.9535 C   0  0  0  0  0  0  0  0  0  0  0  0
   19.3294   17.4031   23.8874 H   0  0  0  0  0  0  0  0  0  0  0  0
   18.9358   19.3822   23.0620 C   0  0  0  0  0  0  0  0  0  0  0  0
   17.9896   19.7826   22.6732 H   0  0  0  0  0  0  0  0  0  0  0  0
   19.0400   19.7142   24.1030 H   0  0  0  0  0  0  0  0  0  0  0  0
   17.6437   17.3592   22.6637 O   0  0  0  0  0  0  0  0  0  0  0  0
   17.0748   17.6149   23.4204 H   0  0  0  0  0  0  0  0  0  0  0  0
  1  2  1  0  0  0  0
  1  3  1  0  0  0  0
  1  4  1  0  0  0  0
  4  5  1  0  0  0  0
  4  6  1  0  0  0  0
  4  7  1  0  0  0  0
  7  8  1  0  0  0  0
  7  9  1  0  0  0  0
  7 10  1  0  0  0  0
 10 11  1  0  0  0  0
  1 12  1  0  0  0  0
 10 12  1  0  0  0  0
 12 13  1  0  0  0  0
 12 14  1  0  0  0  0
 10 15  1  0  0  0  0
 15 16  1  0  0  0  0
M  END
> <VConfSearch Rank>
341

> <Conf_Id>
33

> <Delta U+W>
0.015

> <U+W>
3.025

> <U>
5.843

> <W>
-2.819

> <W(PB)>
-4.568

> <W(SA)>
1.750

> <Valence>
13.789

> <Coulomb>
-8.574

> <VdW>
0.628

> <VdW6>
-3.284

> <VdW12>
3.913

> <Bond>
0.054

> <Angle>
4.033

> <Pdih>
9.702

> <Idih>
0.000

> <Tether>
0.000

$$$$
VeraChem MOL file


 16 16  0  0  0  0  0  0  0  0999 V2000     
   18.8988   17.9898   23.3399 C   0  0  0  0  0  0  0  0  0  0  0  0
   19.4464   18.2092   24.2668 H   0  0  0  0  0  0  0  0  0  0  0  0
   18.0743   17.3093   23.5930 H   0  0  0  0  0  0  0  0  0  0  0  0
   19.8544   17.3626   22.3013 C   0  0  0  0  0  0  0  0  0  0  0  0
   20.8641   17.2775   22.7260 H   0  0  0  0  0  0  0  0  0  0  0  0
   19.5291   16.3543   22.0104 H   0  0  0  0  0  0  0  0  0  0  0  0
   19.8655   18.3142   21.0861 C   0  0  0  0  0  0  0  0  0  0  0  0
   19.1713   17.9410   20.3215 H   0  0  0  0  0  0  0  0  0  0  0  0
   20.8598   18.3902   20.6260 H   0  0  0  0  0  0  0  0  0  0  0  0
   19.3584   19.6678   21.6014 C   0  0  0  0  0  0  0  0  0  0  0  0
   18.8728   20.2482   20.8038 H   0  0  0  0  0  0  0  0  0  0  0  0
   18.3675   19.2962   22.7127 C   0  0  0  0  0  0  0  0  0  0  0  0
   18.2544   20.0981   23.4544 H   0  0  0  0  0  0  0  0  0  0  0  0
   17.3817   19.1138   22.2650 H   0  0  0  0  0  0  0  0  0  0  0  0
   20.4437   20.3901   22.1648 O   0  0  0  0  0  0  0  0  0  0  0  0
   20.8094   19.8016   22.8569 H   0  0  0  0  0  0  0  0  0  0  0  0
  1  2  1  0  0  0  0
  1  3  1  0  0  0  0
  1  4  1  0  0  0  0
  4  5  1  0  0  0  0
  4  6  1  0  0  0  0
  4  7  1  0  0  0  0
  7  8  1  0  0  0  0
  7  9  1  0  0  0  0
  7 10  1  0  0  0  0
 10 11  1  0  0  0  0
  1 12  1  0  0  0  0
 10 12  1  0  0  0  0
 12 13  1  0  0  0  0
 12 14  1  0  0  0  0
 10 15  1  0  0  0  0
 15 16  1  0  0  0  0
M  END
> <VConfSearch Rank>
342

> <Conf_Id>
20

> <Delta U+W>
-0.483

> <U+W>
2.527

> <U>
4.508

> <W>
-1.981

> <W(PB)>
-3.712

> <W(SA)>
1.732

> <Valence>
14.705

> <Coulomb>
-10.687

> <VdW>
0.490

> <VdW6>
-3.745

> <VdW12>
4.235

> <Bond>
0.068

> <Angle>
3.901

> <Pdih>
10.737

> <Idih>
0.000

> <Tether>
0.000

$$$$
VeraChem MOL file


 16 16  0  0  0  0  0  0  0  0999 V2000     
   19.5740   19.1453   23.6247 C   0  0  0  0  0  0  0  0  0  0  0  0
   20.0443   18.3510   24.2209 H   0  0  0  0  0  0  0  0  0  0  0  0
   19.5185   20.0521   24.2422 H   0  0  0  0  0  0  0  0  0  0  0  0
   18.1932   18.6783   23.1438 C   0  0  0  0  0  0  0  0  0  0  0  0
   17.6535   18.1087   23.9126 H   0  0  0  0  0  0  0  0  0  0  0  0
   17.5828   19.5501   22.8702 H   0  0  0  0  0  0  0  0  0  0  0  0
   18.4892   17.8354   21.8898 C   0  0  0  0  0  0  0  0  0  0  0  0
   17.6545   17.8689   21.1778 H   0  0  0  0  0  0  0  0  0  0  0  0
   18.6403   16.7878   22.1837 H   0  0  0  0  0  0  0  0  0  0  0  0
   19.7828   18.4102   21.2749 C   0  0  0  0  0  0  0  0  0  0  0  0
   19.5460   18.9789   20.3639 H   0  0  0  0  0  0  0  0  0  0  0  0
   20.3791   19.3640   22.3305 C   0  0  0  0  0  0  0  0  0  0  0  0
   21.4523   19.1927   22.4882 H   0  0  0  0  0  0  0  0  0  0  0  0
   20.2533   20.3997   21.9889 H   0  0  0  0  0  0  0  0  0  0  0  0
   20.6991   17.3602   20.9890 O   0  0  0  0  0  0  0  0  0  0  0  0
   20.2665   16.7823   20.3254 H   0  0  0  0  0  0  0  0  0  0  0  0
  1  2  1  0  0  0  0
  1  3  1  0  0  0  0
  1  4  1  0  0  0  0
  4  5  1  0  0  0  0
  4  6  1  0  0  0  0
  4  7  1  0  0  0  0
  7  8  1  0  0  0  0
  7  9  1  0  0  0  0
  7 10  1  0  0  0  0
 10 11  1  0  0  0  0
  1 12  1  0  0  0  0
 10 12  1  0  0  0  0
 12 13  1  0  0  0  0
 12 14  1  0  0  0  0
 10 15  1  0  0  0  0
 15 16  1  0  0  0  0
M  END
> <VConfSearch Rank>
343

> <Conf_Id>
59

> <Delta U+W>
0.000

> <U+W>
3.010

> <U>
5.843

> <W>
-2.833

> <W(PB)>
-4.568

> <W(SA)>
1.735

> <Valence>
13.789

> <Coulomb>
-8.574

> <VdW>
0.628

> <VdW6>
-3.284

> <VdW12>
3.912

> <Bond>
0.054

> <Angle>
4.034

> <Pdih>
9.702

> <Idih>
0.000

> <Tether>
0.000

$$$$
VeraChem MOL file


 16 16  0  0  0  0  0  0  0  0999 V2000     
   18.3553   17.7159   22.5254 C   0  0  0  0  0  0  0  0  0  0  0  0
   18.1799   16.6542   22.7460 H   0  0  0  0  0  0  0  0  0  0  0  0
   17.3992   18.2492   22.6212 H   0  0  0  0  0  0  0  0  0  0  0  0
   18.9288   17.9330   21.1184 C   0  0  0  0  0  0  0  0  0  0  0  0
   19.6630   17.1465   20.8946 H   0  0  0  0  0  0  0  0  0  0  0  0
   18.1530   17.9108   20.3410 H   0  0  0  0  0  0  0  0  0  0  0  0
   19.6413   19.2957   21.1988 C   0  0  0  0  0  0  0  0  0  0  0  0
   18.9379   20.0955   20.9330 H   0  0  0  0  0  0  0  0  0  0  0  0
   20.4883   19.3509   20.5020 H   0  0  0  0  0  0  0  0  0  0  0  0
   20.0782   19.4776   22.6671 C   0  0  0  0  0  0  0  0  0  0  0  0
   19.7308   20.4556   23.0311 H   0  0  0  0  0  0  0  0  0  0  0  0
   19.3993   18.3451   23.4660 C   0  0  0  0  0  0  0  0  0  0  0  0
   20.1383   17.5835   23.7498 H   0  0  0  0  0  0  0  0  0  0  0  0
   18.9343   18.7229   24.3858 H   0  0  0  0  0  0  0  0  0  0  0  0
   21.4930   19.3741   22.7744 O   0  0  0  0  0  0  0  0  0  0  0  0
   21.7119   19.4854   23.7237 H   0  0  0  0  0  0  0  0  0  0  0  0
  1  2  1  0  0  0  0
  1  3  1  0  0  0  0
  1  4  1  0  0  0  0
  4  5  1  0  0  0  0
  4  6  1  0  0  0  0
  4  7  1  0  0  0  0
  7  8  1  0  0  0  0
  7  9  1  0  0  0  0
  7 10  1  0  0  0  0
 10 11  1  0  0  0  0
  1 12  1  0  0  0  0
 10 12  1  0  0  0  0
 12 13  1  0  0  0  0
 12 14  1  0  0  0  0
 10 15  1  0  0  0  0
 15 16  1  0  0  0  0
M  END
> <VConfSearch Rank>
344

> <Conf_Id>
33

> <Delta U+W>
0.015

> <U+W>
3.025

> <U>
5.843

> <W>
-2.819

> <W(PB)>
-4.568

> <W(SA)>
1.750

> <Valence>
13.789

> <Coulomb>
-8.574

> <VdW>
0.628

> <VdW6>
-3.284

> <VdW12>
3.913

> <Bond>
0.054

> <Angle>
4.033

> <Pdih>
9.702

> <Idih>
0.000

> <Tether>
0.000

$$$$
VeraChem MOL file


 16 16  0  0  0  0  0  0  0  0999 V2000     
   20.7123   18.6220   22.3293 C   0  0  0  0  0  0  0  0  0  0  0  0
   21.1184   18.2247   23.2697 H   0  0  0  0  0  0  0  0  0  0  0  0
   21.5617   18.9071   21.6935 H   0  0  0  0  0  0  0  0  0  0  0  0
   19.7923   19.8273   22.6220 C   0  0  0  0  0  0  0  0  0  0  0  0
   19.7540   20.0141   23.7041 H   0  0  0  0  0  0  0  0  0  0  0  0
   20.1599   20.7428   22.1386 H   0  0  0  0  0  0  0  0  0  0  0  0
   18.3917   19.4466   22.0968 C   0  0  0  0  0  0  0  0  0  0  0  0
   18.2442   19.8792   21.0985 H   0  0  0  0  0  0  0  0  0  0  0  0
   17.5882   19.8209   22.7451 H   0  0  0  0  0  0  0  0  0  0  0  0
   18.3818   17.9163   21.9833 C   0  0  0  0  0  0  0  0  0  0  0  0
   17.6840   17.5727   21.2060 H   0  0  0  0  0  0  0  0  0  0  0  0
   19.8334   17.5586   21.6370 C   0  0  0  0  0  0  0  0  0  0  0  0
   20.0951   16.5376   21.9451 H   0  0  0  0  0  0  0  0  0  0  0  0
   19.9669   17.6240   20.5491 H   0  0  0  0  0  0  0  0  0  0  0  0
   18.0503   17.3558   23.2453 O   0  0  0  0  0  0  0  0  0  0  0  0
   18.7175   17.7140   23.8664 H   0  0  0  0  0  0  0  0  0  0  0  0
  1  2  1  0  0  0  0
  1  3  1  0  0  0  0
  1  4  1  0  0  0  0
  4  5  1  0  0  0  0
  4  6  1  0  0  0  0
  4  7  1  0  0  0  0
  7  8  1  0  0  0  0
  7  9  1  0  0  0  0
  7 10  1  0  0  0  0
 10 11  1  0  0  0  0
  1 12  1  0  0  0  0
 10 12  1  0  0  0  0
 12 13  1  0  0  0  0
 12 14  1  0  0  0  0
 10 15  1  0  0  0  0
 15 16  1  0  0  0  0
M  END
> <VConfSearch Rank>
345

> <Conf_Id>
20

> <Delta U+W>
-0.483

> <U+W>
2.527

> <U>
4.508

> <W>
-1.981

> <W(PB)>
-3.712

> <W(SA)>
1.732

> <Valence>
14.705

> <Coulomb>
-10.687

> <VdW>
0.490

> <VdW6>
-3.745

> <VdW12>
4.235

> <Bond>
0.068

> <Angle>
3.901

> <Pdih>
10.737

> <Idih>
0.000

> <Tether>
0.000

$$$$
VeraChem MOL file


 16 16  0  0  0  0  0  0  0  0999 V2000     
   20.2406   18.2385   23.4256 C   0  0  0  0  0  0  0  0  0  0  0  0
   20.1910   17.1453   23.5264 H   0  0  0  0  0  0  0  0  0  0  0  0
   20.9667   18.6190   24.1568 H   0  0  0  0  0  0  0  0  0  0  0  0
   18.8412   18.8372   23.6231 C   0  0  0  0  0  0  0  0  0  0  0  0
   18.2812   18.3355   24.4240 H   0  0  0  0  0  0  0  0  0  0  0  0
   18.9277   19.9023   23.8794 H   0  0  0  0  0  0  0  0  0  0  0  0
   18.1623   18.6854   22.2496 C   0  0  0  0  0  0  0  0  0  0  0  0
   17.4191   19.4753   22.0800 H   0  0  0  0  0  0  0  0  0  0  0  0
   17.6428   17.7185   22.2060 H   0  0  0  0  0  0  0  0  0  0  0  0
   19.2913   18.7337   21.1986 C   0  0  0  0  0  0  0  0  0  0  0  0
   19.2723   19.6979   20.6698 H   0  0  0  0  0  0  0  0  0  0  0  0
   20.6164   18.6064   21.9783 C   0  0  0  0  0  0  0  0  0  0  0  0
   21.2914   17.8625   21.5344 H   0  0  0  0  0  0  0  0  0  0  0  0
   21.1331   19.5748   21.9666 H   0  0  0  0  0  0  0  0  0  0  0  0
   19.1556   17.6541   20.2822 O   0  0  0  0  0  0  0  0  0  0  0  0
   18.2969   17.7791   19.8256 H   0  0  0  0  0  0  0  0  0  0  0  0
  1  2  1  0  0  0  0
  1  3  1  0  0  0  0
  1  4  1  0  0  0  0
  4  5  1  0  0  0  0
  4  6  1  0  0  0  0
  4  7  1  0  0  0  0
  7  8  1  0  0  0  0
  7  9  1  0  0  0  0
  7 10  1  0  0  0  0
 10 11  1  0  0  0  0
  1 12  1  0  0  0  0
 10 12  1  0  0  0  0
 12 13  1  0  0  0  0
 12 14  1  0  0  0  0
 10 15  1  0  0  0  0
 15 16  1  0  0  0  0
M  END
> <VConfSearch Rank>
346

> <Conf_Id>
59

> <Delta U+W>
0.000

> <U+W>
3.010

> <U>
5.843

> <W>
-2.833

> <W(PB)>
-4.568

> <W(SA)>
1.735

> <Valence>
13.789

> <Coulomb>
-8.574

> <VdW>
0.628

> <VdW6>
-3.284

> <VdW12>
3.912

> <Bond>
0.054

> <Angle>
4.034

> <Pdih>
9.702

> <Idih>
0.000

> <Tether>
0.000

$$$$
VeraChem MOL file


 16 16  0  0  0  0  0  0  0  0999 V2000     
   18.0605   18.2600   22.3055 C   0  0  0  0  0  0  0  0  0  0  0  0
   17.1799   18.3210   21.6516 H   0  0  0  0  0  0  0  0  0  0  0  0
   17.7972   17.6497   23.1805 H   0  0  0  0  0  0  0  0  0  0  0  0
   18.5424   19.6425   22.7663 C   0  0  0  0  0  0  0  0  0  0  0  0
   18.4635   20.3562   21.9344 H   0  0  0  0  0  0  0  0  0  0  0  0
   17.9563   20.0313   23.6101 H   0  0  0  0  0  0  0  0  0  0  0  0
   20.0246   19.4332   23.1273 C   0  0  0  0  0  0  0  0  0  0  0  0
   20.1103   19.1548   24.1857 H   0  0  0  0  0  0  0  0  0  0  0  0
   20.6112   20.3489   22.9745 H   0  0  0  0  0  0  0  0  0  0  0  0
   20.5282   18.2631   22.2571 C   0  0  0  0  0  0  0  0  0  0  0  0
   21.0183   17.5171   22.8997 H   0  0  0  0  0  0  0  0  0  0  0  0
   19.2794   17.6479   21.5911 C   0  0  0  0  0  0  0  0  0  0  0  0
   19.2468   17.9127   20.5255 H   0  0  0  0  0  0  0  0  0  0  0  0
   19.2801   16.5528   21.6665 H   0  0  0  0  0  0  0  0  0  0  0  0
   21.4282   18.7418   21.2648 O   0  0  0  0  0  0  0  0  0  0  0  0
   21.7057   17.9630   20.7376 H   0  0  0  0  0  0  0  0  0  0  0  0
  1  2  1  0  0  0  0
  1  3  1  0  0  0  0
  1  4  1  0  0  0  0
  4  5  1  0  0  0  0
  4  6  1  0  0  0  0
  4  7  1  0  0  0  0
  7  8  1  0  0  0  0
  7  9  1  0  0  0  0
  7 10  1  0  0  0  0
 10 11  1  0  0  0  0
  1 12  1  0  0  0  0
 10 12  1  0  0  0  0
 12 13  1  0  0  0  0
 12 14  1  0  0  0  0
 10 15  1  0  0  0  0
 15 16  1  0  0  0  0
M  END
> <VConfSearch Rank>
347

> <Conf_Id>
33

> <Delta U+W>
0.015

> <U+W>
3.025

> <U>
5.843

> <W>
-2.819

> <W(PB)>
-4.568

> <W(SA)>
1.750

> <Valence>
13.789

> <Coulomb>
-8.574

> <VdW>
0.628

> <VdW6>
-3.284

> <VdW12>
3.913

> <Bond>
0.054

> <Angle>
4.033

> <Pdih>
9.702

> <Idih>
0.000

> <Tether>
0.000

$$$$
VeraChem MOL file


 16 16  0  0  0  0  0  0  0  0999 V2000     
   19.3203   18.5980   20.9234 C   0  0  0  0  0  0  0  0  0  0  0  0
   18.3860   18.1886   20.5151 H   0  0  0  0  0  0  0  0  0  0  0  0
   19.9486   18.9039   20.0757 H   0  0  0  0  0  0  0  0  0  0  0  0
   20.0224   17.5347   21.7961 C   0  0  0  0  0  0  0  0  0  0  0  0
   19.4284   16.6105   21.8093 H   0  0  0  0  0  0  0  0  0  0  0  0
   21.0185   17.2852   21.4054 H   0  0  0  0  0  0  0  0  0  0  0  0
   20.1168   18.1282   23.2178 C   0  0  0  0  0  0  0  0  0  0  0  0
   21.1128   18.5656   23.3674 H   0  0  0  0  0  0  0  0  0  0  0  0
   19.9648   17.3691   23.9967 H   0  0  0  0  0  0  0  0  0  0  0  0
   19.0670   19.2457   23.2825 C   0  0  0  0  0  0  0  0  0  0  0  0
   19.3495   20.0249   24.0050 H   0  0  0  0  0  0  0  0  0  0  0  0
   19.0179   19.7945   21.8503 C   0  0  0  0  0  0  0  0  0  0  0  0
   18.0540   20.2672   21.6188 H   0  0  0  0  0  0  0  0  0  0  0  0
   19.8001   20.5561   21.7333 H   0  0  0  0  0  0  0  0  0  0  0  0
   17.8051   18.6834   23.6115 O   0  0  0  0  0  0  0  0  0  0  0  0
   17.6395   18.0081   22.9217 H   0  0  0  0  0  0  0  0  0  0  0  0
  1  2  1  0  0  0  0
  1  3  1  0  0  0  0
  1  4  1  0  0  0  0
  4  5  1  0  0  0  0
  4  6  1  0  0  0  0
  4  7  1  0  0  0  0
  7  8  1  0  0  0  0
  7  9  1  0  0  0  0
  7 10  1  0  0  0  0
 10 11  1  0  0  0  0
  1 12  1  0  0  0  0
 10 12  1  0  0  0  0
 12 13  1  0  0  0  0
 12 14  1  0  0  0  0
 10 15  1  0  0  0  0
 15 16  1  0  0  0  0
M  END
> <VConfSearch Rank>
348

> <Conf_Id>
20

> <Delta U+W>
-0.483

> <U+W>
2.527

> <U>
4.508

> <W>
-1.981

> <W(PB)>
-3.712

> <W(SA)>
1.732

> <Valence>
14.705

> <Coulomb>
-10.687

> <VdW>
0.490

> <VdW6>
-3.745

> <VdW12>
4.235

> <Bond>
0.068

> <Angle>
3.901

> <Pdih>
10.737

> <Idih>
0.000

> <Tether>
0.000

$$$$
VeraChem MOL file


 16 16  0  0  0  0  0  0  0  0999 V2000     
   18.1065   17.9505   22.7416 C   0  0  0  0  0  0  0  0  0  0  0  0
   17.9291   18.3481   23.7506 H   0  0  0  0  0  0  0  0  0  0  0  0
   17.2501   17.3208   22.4645 H   0  0  0  0  0  0  0  0  0  0  0  0
   19.4331   17.1789   22.7188 C   0  0  0  0  0  0  0  0  0  0  0  0
   19.5876   16.5861   23.6307 H   0  0  0  0  0  0  0  0  0  0  0  0
   19.4486   16.4957   21.8582 H   0  0  0  0  0  0  0  0  0  0  0  0
   20.5066   18.2678   22.5389 C   0  0  0  0  0  0  0  0  0  0  0  0
   21.3869   17.8798   22.0104 H   0  0  0  0  0  0  0  0  0  0  0  0
   20.8343   18.6214   23.5260 H   0  0  0  0  0  0  0  0  0  0  0  0
   19.8349   19.4154   21.7557 C   0  0  0  0  0  0  0  0  0  0  0  0
   20.2008   19.4279   20.7186 H   0  0  0  0  0  0  0  0  0  0  0  0
   18.3216   19.1159   21.7585 C   0  0  0  0  0  0  0  0  0  0  0  0
   17.7234   19.9942   22.0356 H   0  0  0  0  0  0  0  0  0  0  0  0
   18.0156   18.8085   20.7501 H   0  0  0  0  0  0  0  0  0  0  0  0
   20.0898   20.6608   22.3945 O   0  0  0  0  0  0  0  0  0  0  0  0
   21.0610   20.7938   22.3739 H   0  0  0  0  0  0  0  0  0  0  0  0
  1  2  1  0  0  0  0
  1  3  1  0  0  0  0
  1  4  1  0  0  0  0
  4  5  1  0  0  0  0
  4  6  1  0  0  0  0
  4  7  1  0  0  0  0
  7  8  1  0  0  0  0
  7  9  1  0  0  0  0
  7 10  1  0  0  0  0
 10 11  1  0  0  0  0
  1 12  1  0  0  0  0
 10 12  1  0  0  0  0
 12 13  1  0  0  0  0
 12 14  1  0  0  0  0
 10 15  1  0  0  0  0
 15 16  1  0  0  0  0
M  END
> <VConfSearch Rank>
349

> <Conf_Id>
59

> <Delta U+W>
0.000

> <U+W>
3.010

> <U>
5.843

> <W>
-2.833

> <W(PB)>
-4.568

> <W(SA)>
1.735

> <Valence>
13.789

> <Coulomb>
-8.574

> <VdW>
0.628

> <VdW6>
-3.284

> <VdW12>
3.912

> <Bond>
0.054

> <Angle>
4.034

> <Pdih>
9.702

> <Idih>
0.000

> <Tether>
0.000

$$$$
VeraChem MOL file


 16 16  0  0  0  0  0  0  0  0999 V2000     
   20.4583   18.8731   23.2823 C   0  0  0  0  0  0  0  0  0  0  0  0
   21.5209   18.6631   23.4651 H   0  0  0  0  0  0  0  0  0  0  0  0
   20.1125   19.5845   24.0452 H   0  0  0  0  0  0  0  0  0  0  0  0
   19.5956   17.6046   23.3304 C   0  0  0  0  0  0  0  0  0  0  0  0
   20.1327   16.7755   22.8489 H   0  0  0  0  0  0  0  0  0  0  0  0
   19.3484   17.3040   24.3576 H   0  0  0  0  0  0  0  0  0  0  0  0
   18.3450   17.9576   22.5042 C   0  0  0  0  0  0  0  0  0  0  0  0
   17.5792   18.3896   23.1615 H   0  0  0  0  0  0  0  0  0  0  0  0
   17.9120   17.0688   22.0263 H   0  0  0  0  0  0  0  0  0  0  0  0
   18.7831   19.0207   21.4757 C   0  0  0  0  0  0  0  0  0  0  0  0
   18.0997   19.8808   21.5287 H   0  0  0  0  0  0  0  0  0  0  0  0
   20.2088   19.4532   21.8781 C   0  0  0  0  0  0  0  0  0  0  0  0
   20.9450   19.0369   21.1770 H   0  0  0  0  0  0  0  0  0  0  0  0
   20.3162   20.5456   21.8705 H   0  0  0  0  0  0  0  0  0  0  0  0
   18.7902   18.4632   20.1669 O   0  0  0  0  0  0  0  0  0  0  0  0
   19.0850   19.1746   19.5598 H   0  0  0  0  0  0  0  0  0  0  0  0
  1  2  1  0  0  0  0
  1  3  1  0  0  0  0
  1  4  1  0  0  0  0
  4  5  1  0  0  0  0
  4  6  1  0  0  0  0
  4  7  1  0  0  0  0
  7  8  1  0  0  0  0
  7  9  1  0  0  0  0
  7 10  1  0  0  0  0
 10 11  1  0  0  0  0
  1 12  1  0  0  0  0
 10 12  1  0  0  0  0
 12 13  1  0  0  0  0
 12 14  1  0  0  0  0
 10 15  1  0  0  0  0
 15 16  1  0  0  0  0
M  END
> <VConfSearch Rank>
350

> <Conf_Id>
33

> <Delta U+W>
0.015

> <U+W>
3.025

> <U>
5.843

> <W>
-2.819

> <W(PB)>
-4.568

> <W(SA)>
1.750

> <Valence>
13.789

> <Coulomb>
-8.574

> <VdW>
0.628

> <VdW6>
-3.284

> <VdW12>
3.913

> <Bond>
0.054

> <Angle>
4.033

> <Pdih>
9.702

> <Idih>
0.000

> <Tether>
0.000

$$$$
VeraChem MOL file


 16 16  0  0  0  0  0  0  0  0999 V2000     
   18.7277   19.7067   22.6575 C   0  0  0  0  0  0  0  0  0  0  0  0
   19.2829   20.3253   23.3761 H   0  0  0  0  0  0  0  0  0  0  0  0
   17.7685   20.2047   22.4604 H   0  0  0  0  0  0  0  0  0  0  0  0
   18.5234   18.2883   23.2332 C   0  0  0  0  0  0  0  0  0  0  0  0
   18.9788   18.2207   24.2309 H   0  0  0  0  0  0  0  0  0  0  0  0
   17.4572   18.0440   23.3362 H   0  0  0  0  0  0  0  0  0  0  0  0
   19.2239   17.3160   22.2604 C   0  0  0  0  0  0  0  0  0  0  0  0
   18.4825   16.8869   21.5735 H   0  0  0  0  0  0  0  0  0  0  0  0
   19.7147   16.4849   22.7841 H   0  0  0  0  0  0  0  0  0  0  0  0
   20.2179   18.1633   21.4548 C   0  0  0  0  0  0  0  0  0  0  0  0
   20.4036   17.7327   20.4603 H   0  0  0  0  0  0  0  0  0  0  0  0
   19.5430   19.5381   21.3578 C   0  0  0  0  0  0  0  0  0  0  0  0
   20.2695   20.3490   21.2140 H   0  0  0  0  0  0  0  0  0  0  0  0
   18.8634   19.5417   20.4954 H   0  0  0  0  0  0  0  0  0  0  0  0
   21.4282   18.2871   22.1873 O   0  0  0  0  0  0  0  0  0  0  0  0
   21.1666   18.6743   23.0480 H   0  0  0  0  0  0  0  0  0  0  0  0
  1  2  1  0  0  0  0
  1  3  1  0  0  0  0
  1  4  1  0  0  0  0
  4  5  1  0  0  0  0
  4  6  1  0  0  0  0
  4  7  1  0  0  0  0
  7  8  1  0  0  0  0
  7  9  1  0  0  0  0
  7 10  1  0  0  0  0
 10 11  1  0  0  0  0
  1 12  1  0  0  0  0
 10 12  1  0  0  0  0
 12 13  1  0  0  0  0
 12 14  1  0  0  0  0
 10 15  1  0  0  0  0
 15 16  1  0  0  0  0
M  END
> <VConfSearch Rank>
351

> <Conf_Id>
20

> <Delta U+W>
-0.483

> <U+W>
2.527

> <U>
4.508

> <W>
-1.981

> <W(PB)>
-3.712

> <W(SA)>
1.732

> <Valence>
14.705

> <Coulomb>
-10.687

> <VdW>
0.490

> <VdW6>
-3.745

> <VdW12>
4.235

> <Bond>
0.068

> <Angle>
3.901

> <Pdih>
10.737

> <Idih>
0.000

> <Tether>
0.000

$$$$
VeraChem MOL file


 16 16  0  0  0  0  0  0  0  0999 V2000     
   19.5247   19.9679   22.0191 C   0  0  0  0  0  0  0  0  0  0  0  0
   20.2994   20.3147   22.7171 H   0  0  0  0  0  0  0  0  0  0  0  0
   19.2490   20.8073   21.3664 H   0  0  0  0  0  0  0  0  0  0  0  0
   18.3274   19.4220   22.8092 C   0  0  0  0  0  0  0  0  0  0  0  0
   18.1034   20.0261   23.6990 H   0  0  0  0  0  0  0  0  0  0  0  0
   17.4352   19.4110   22.1678 H   0  0  0  0  0  0  0  0  0  0  0  0
   18.7299   17.9795   23.1666 C   0  0  0  0  0  0  0  0  0  0  0  0
   17.8508   17.3284   23.2570 H   0  0  0  0  0  0  0  0  0  0  0  0
   19.2524   17.9770   24.1329 H   0  0  0  0  0  0  0  0  0  0  0  0
   19.6768   17.5018   22.0455 C   0  0  0  0  0  0  0  0  0  0  0  0
   19.1568   16.7843   21.3940 H   0  0  0  0  0  0  0  0  0  0  0  0
   20.0490   18.7556   21.2275 C   0  0  0  0  0  0  0  0  0  0  0  0
   21.1295   18.8287   21.0450 H   0  0  0  0  0  0  0  0  0  0  0  0
   19.5483   18.7082   20.2518 H   0  0  0  0  0  0  0  0  0  0  0  0
   20.8461   16.9169   22.6064 O   0  0  0  0  0  0  0  0  0  0  0  0
   20.5508   16.1362   23.1211 H   0  0  0  0  0  0  0  0  0  0  0  0
  1  2  1  0  0  0  0
  1  3  1  0  0  0  0
  1  4  1  0  0  0  0
  4  5  1  0  0  0  0
  4  6  1  0  0  0  0
  4  7  1  0  0  0  0
  7  8  1  0  0  0  0
  7  9  1  0  0  0  0
  7 10  1  0  0  0  0
 10 11  1  0  0  0  0
  1 12  1  0  0  0  0
 10 12  1  0  0  0  0
 12 13  1  0  0  0  0
 12 14  1  0  0  0  0
 10 15  1  0  0  0  0
 15 16  1  0  0  0  0
M  END
> <VConfSearch Rank>
352

> <Conf_Id>
59

> <Delta U+W>
0.000

> <U+W>
3.010

> <U>
5.843

> <W>
-2.833

> <W(PB)>
-4.568

> <W(SA)>
1.735

> <Valence>
13.789

> <Coulomb>
-8.574

> <VdW>
0.628

> <VdW6>
-3.284

> <VdW12>
3.912

> <Bond>
0.054

> <Angle>
4.034

> <Pdih>
9.702

> <Idih>
0.000

> <Tether>
0.000

$$$$
VeraChem MOL file


 16 16  0  0  0  0  0  0  0  0999 V2000     
   20.6523   18.1381   22.9209 C   0  0  0  0  0  0  0  0  0  0  0  0
   21.0020   17.8136   23.9105 H   0  0  0  0  0  0  0  0  0  0  0  0
   21.4459   17.9283   22.1903 H   0  0  0  0  0  0  0  0  0  0  0  0
   20.3010   19.6318   22.8867 C   0  0  0  0  0  0  0  0  0  0  0  0
   19.7956   19.9128   23.8212 H   0  0  0  0  0  0  0  0  0  0  0  0
   21.1882   20.2690   22.7702 H   0  0  0  0  0  0  0  0  0  0  0  0
   19.3196   19.7698   21.7082 C   0  0  0  0  0  0  0  0  0  0  0  0
   19.8781   19.9766   20.7860 H   0  0  0  0  0  0  0  0  0  0  0  0
   18.6144   20.5971   21.8640 H   0  0  0  0  0  0  0  0  0  0  0  0
   18.6051   18.4096   21.5692 C   0  0  0  0  0  0  0  0  0  0  0  0
   18.6741   18.0679   20.5261 H   0  0  0  0  0  0  0  0  0  0  0  0
   19.3531   17.4290   22.4969 C   0  0  0  0  0  0  0  0  0  0  0  0
   18.7493   17.2132   23.3889 H   0  0  0  0  0  0  0  0  0  0  0  0
   19.5622   16.4767   21.9928 H   0  0  0  0  0  0  0  0  0  0  0  0
   17.2457   18.5262   21.9719 O   0  0  0  0  0  0  0  0  0  0  0  0
   16.8462   17.6361   21.8745 H   0  0  0  0  0  0  0  0  0  0  0  0
  1  2  1  0  0  0  0
  1  3  1  0  0  0  0
  1  4  1  0  0  0  0
  4  5  1  0  0  0  0
  4  6  1  0  0  0  0
  4  7  1  0  0  0  0
  7  8  1  0  0  0  0
  7  9  1  0  0  0  0
  7 10  1  0  0  0  0
 10 11  1  0  0  0  0
  1 12  1  0  0  0  0
 10 12  1  0  0  0  0
 12 13  1  0  0  0  0
 12 14  1  0  0  0  0
 10 15  1  0  0  0  0
 15 16  1  0  0  0  0
M  END
> <VConfSearch Rank>
353

> <Conf_Id>
33

> <Delta U+W>
0.015

> <U+W>
3.025

> <U>
5.843

> <W>
-2.819

> <W(PB)>
-4.568

> <W(SA)>
1.750

> <Valence>
13.789

> <Coulomb>
-8.574

> <VdW>
0.628

> <VdW6>
-3.284

> <VdW12>
3.913

> <Bond>
0.054

> <Angle>
4.033

> <Pdih>
9.702

> <Idih>
0.000

> <Tether>
0.000

$$$$
VeraChem MOL file


 16 16  0  0  0  0  0  0  0  0999 V2000     
   18.9970   19.4871   21.3250 C   0  0  0  0  0  0  0  0  0  0  0  0
   19.7960   20.1592   20.9828 H   0  0  0  0  0  0  0  0  0  0  0  0
   18.0876   19.7363   20.7612 H   0  0  0  0  0  0  0  0  0  0  0  0
   18.7858   19.6538   22.8457 C   0  0  0  0  0  0  0  0  0  0  0  0
   19.4819   20.4073   23.2394 H   0  0  0  0  0  0  0  0  0  0  0  0
   17.7656   19.9891   23.0775 H   0  0  0  0  0  0  0  0  0  0  0  0
   19.0751   18.2772   23.4812 C   0  0  0  0  0  0  0  0  0  0  0  0
   18.1297   17.7443   23.6482 H   0  0  0  0  0  0  0  0  0  0  0  0
   19.5849   18.3648   24.4500 H   0  0  0  0  0  0  0  0  0  0  0  0
   19.9096   17.5014   22.4533 C   0  0  0  0  0  0  0  0  0  0  0  0
   19.7667   16.4157   22.5526 H   0  0  0  0  0  0  0  0  0  0  0  0
   19.4047   18.0158   21.0985 C   0  0  0  0  0  0  0  0  0  0  0  0
   20.1579   17.9098   20.3064 H   0  0  0  0  0  0  0  0  0  0  0  0
   18.5232   17.4323   20.8016 H   0  0  0  0  0  0  0  0  0  0  0  0
   21.2784   17.8481   22.6046 O   0  0  0  0  0  0  0  0  0  0  0  0
   21.3075   18.8216   22.5018 H   0  0  0  0  0  0  0  0  0  0  0  0
  1  2  1  0  0  0  0
  1  3  1  0  0  0  0
  1  4  1  0  0  0  0
  4  5  1  0  0  0  0
  4  6  1  0  0  0  0
  4  7  1  0  0  0  0
  7  8  1  0  0  0  0
  7  9  1  0  0  0  0
  7 10  1  0  0  0  0
 10 11  1  0  0  0  0
  1 12  1  0  0  0  0
 10 12  1  0  0  0  0
 12 13  1  0  0  0  0
 12 14  1  0  0  0  0
 10 15  1  0  0  0  0
 15 16  1  0  0  0  0
M  END
> <VConfSearch Rank>
354

> <Conf_Id>
20

> <Delta U+W>
-0.483

> <U+W>
2.527

> <U>
4.508

> <W>
-1.981

> <W(PB)>
-3.712

> <W(SA)>
1.732

> <Valence>
14.705

> <Coulomb>
-10.687

> <VdW>
0.490

> <VdW6>
-3.745

> <VdW12>
4.235

> <Bond>
0.068

> <Angle>
3.901

> <Pdih>
10.737

> <Idih>
0.000

> <Tether>
0.000

$$$$
VeraChem MOL file


 16 16  0  0  0  0  0  0  0  0999 V2000     
   20.2272   17.5022   21.8123 C   0  0  0  0  0  0  0  0  0  0  0  0
   19.7630   17.1746   20.8716 H   0  0  0  0  0  0  0  0  0  0  0  0
   21.1653   16.9463   21.9450 H   0  0  0  0  0  0  0  0  0  0  0  0
   19.2471   17.2836   22.9730 C   0  0  0  0  0  0  0  0  0  0  0  0
   18.6898   16.3417   22.8777 H   0  0  0  0  0  0  0  0  0  0  0  0
   19.7984   17.2619   23.9233 H   0  0  0  0  0  0  0  0  0  0  0  0
   18.3254   18.5163   22.9335 C   0  0  0  0  0  0  0  0  0  0  0  0
   17.9438   18.7640   23.9324 H   0  0  0  0  0  0  0  0  0  0  0  0
   17.4636   18.3048   22.2859 H   0  0  0  0  0  0  0  0  0  0  0  0
   19.1661   19.6691   22.3453 C   0  0  0  0  0  0  0  0  0  0  0  0
   19.4386   20.3794   23.1396 H   0  0  0  0  0  0  0  0  0  0  0  0
   20.4472   19.0258   21.7755 C   0  0  0  0  0  0  0  0  0  0  0  0
   20.6738   19.3771   20.7600 H   0  0  0  0  0  0  0  0  0  0  0  0
   21.2971   19.2910   22.4177 H   0  0  0  0  0  0  0  0  0  0  0  0
   18.4438   20.3247   21.3098 O   0  0  0  0  0  0  0  0  0  0  0  0
   17.6395   20.7030   21.7239 H   0  0  0  0  0  0  0  0  0  0  0  0
  1  2  1  0  0  0  0
  1  3  1  0  0  0  0
  1  4  1  0  0  0  0
  4  5  1  0  0  0  0
  4  6  1  0  0  0  0
  4  7  1  0  0  0  0
  7  8  1  0  0  0  0
  7  9  1  0  0  0  0
  7 10  1  0  0  0  0
 10 11  1  0  0  0  0
  1 12  1  0  0  0  0
 10 12  1  0  0  0  0
 12 13  1  0  0  0  0
 12 14  1  0  0  0  0
 10 15  1  0  0  0  0
 15 16  1  0  0  0  0
M  END
> <VConfSearch Rank>
355

> <Conf_Id>
59

> <Delta U+W>
0.000

> <U+W>
3.010

> <U>
5.843

> <W>
-2.833

> <W(PB)>
-4.568

> <W(SA)>
1.735

> <Valence>
13.789

> <Coulomb>
-8.574

> <VdW>
0.628

> <VdW6>
-3.284

> <VdW12>
3.912

> <Bond>
0.054

> <Angle>
4.034

> <Pdih>
9.702

> <Idih>
0.000

> <Tether>
0.000

$$$$
VeraChem MOL file


 16 16  0  0  0  0  0  0  0  0999 V2000     
   18.7604   17.4244   21.8786 C   0  0  0  0  0  0  0  0  0  0  0  0
   17.7356   17.0320   21.8290 H   0  0  0  0  0  0  0  0  0  0  0  0
   19.4227   16.7231   21.3521 H   0  0  0  0  0  0  0  0  0  0  0  0
   19.2462   17.6077   23.3230 C   0  0  0  0  0  0  0  0  0  0  0  0
   18.4257   17.9986   23.9407 H   0  0  0  0  0  0  0  0  0  0  0  0
   19.5961   16.6676   23.7705 H   0  0  0  0  0  0  0  0  0  0  0  0
   20.3637   18.6624   23.2226 C   0  0  0  0  0  0  0  0  0  0  0  0
   21.3280   18.1633   23.0615 H   0  0  0  0  0  0  0  0  0  0  0  0
   20.4443   19.2550   24.1437 H   0  0  0  0  0  0  0  0  0  0  0  0
   20.0367   19.5339   21.9924 C   0  0  0  0  0  0  0  0  0  0  0  0
   20.9217   19.5910   21.3420 H   0  0  0  0  0  0  0  0  0  0  0  0
   18.8822   18.8257   21.2525 C   0  0  0  0  0  0  0  0  0  0  0  0
   17.9417   19.3733   21.4019 H   0  0  0  0  0  0  0  0  0  0  0  0
   19.0706   18.7676   20.1727 H   0  0  0  0  0  0  0  0  0  0  0  0
   19.6309   20.8333   22.4057 O   0  0  0  0  0  0  0  0  0  0  0  0
   19.4261   21.3369   21.5896 H   0  0  0  0  0  0  0  0  0  0  0  0
  1  2  1  0  0  0  0
  1  3  1  0  0  0  0
  1  4  1  0  0  0  0
  4  5  1  0  0  0  0
  4  6  1  0  0  0  0
  4  7  1  0  0  0  0
  7  8  1  0  0  0  0
  7  9  1  0  0  0  0
  7 10  1  0  0  0  0
 10 11  1  0  0  0  0
  1 12  1  0  0  0  0
 10 12  1  0  0  0  0
 12 13  1  0  0  0  0
 12 14  1  0  0  0  0
 10 15  1  0  0  0  0
 15 16  1  0  0  0  0
M  END
> <VConfSearch Rank>
356

> <Conf_Id>
33

> <Delta U+W>
0.015

> <U+W>
3.025

> <U>
5.843

> <W>
-2.819

> <W(PB)>
-4.568

> <W(SA)>
1.750

> <Valence>
13.789

> <Coulomb>
-8.574

> <VdW>
0.628

> <VdW6>
-3.284

> <VdW12>
3.913

> <Bond>
0.054

> <Angle>
4.033

> <Pdih>
9.702

> <Idih>
0.000

> <Tether>
0.000

$$$$
VeraChem MOL file


 16 16  0  0  0  0  0  0  0  0999 V2000     
   20.4437   17.8084   22.1763 C   0  0  0  0  0  0  0  0  0  0  0  0
   20.2075   16.7364   22.2225 H   0  0  0  0  0  0  0  0  0  0  0  0
   21.5313   17.9051   22.0543 H   0  0  0  0  0  0  0  0  0  0  0  0
   19.9517   18.5105   23.4608 C   0  0  0  0  0  0  0  0  0  0  0  0
   19.4783   17.7781   24.1291 H   0  0  0  0  0  0  0  0  0  0  0  0
   20.7818   18.9753   24.0102 H   0  0  0  0  0  0  0  0  0  0  0  0
   18.9209   19.5687   23.0137 C   0  0  0  0  0  0  0  0  0  0  0  0
   19.4081   20.5505   22.9476 H   0  0  0  0  0  0  0  0  0  0  0  0
   18.0835   19.6580   23.7186 H   0  0  0  0  0  0  0  0  0  0  0  0
   18.4586   19.1466   21.6126 C   0  0  0  0  0  0  0  0  0  0  0  0
   18.1342   20.0113   21.0159 H   0  0  0  0  0  0  0  0  0  0  0  0
   19.6926   18.4696   21.0011 C   0  0  0  0  0  0  0  0  0  0  0  0
   19.4256   17.7469   20.2184 H   0  0  0  0  0  0  0  0  0  0  0  0
   20.3304   19.2373   20.5435 H   0  0  0  0  0  0  0  0  0  0  0  0
   17.4132   18.1929   21.7326 O   0  0  0  0  0  0  0  0  0  0  0  0
   17.7902   17.4682   22.2729 H   0  0  0  0  0  0  0  0  0  0  0  0
  1  2  1  0  0  0  0
  1  3  1  0  0  0  0
  1  4  1  0  0  0  0
  4  5  1  0  0  0  0
  4  6  1  0  0  0  0
  4  7  1  0  0  0  0
  7  8  1  0  0  0  0
  7  9  1  0  0  0  0
  7 10  1  0  0  0  0
 10 11  1  0  0  0  0
  1 12  1  0  0  0  0
 10 12  1  0  0  0  0
 12 13  1  0  0  0  0
 12 14  1  0  0  0  0
 10 15  1  0  0  0  0
 15 16  1  0  0  0  0
M  END
> <VConfSearch Rank>
357

> <Conf_Id>
20

> <Delta U+W>
-0.483

> <U+W>
2.527

> <U>
4.508

> <W>
-1.981

> <W(PB)>
-3.712

> <W(SA)>
1.732

> <Valence>
14.705

> <Coulomb>
-10.687

> <VdW>
0.490

> <VdW6>
-3.745

> <VdW12>
4.235

> <Bond>
0.068

> <Angle>
3.901

> <Pdih>
10.737

> <Idih>
0.000

> <Tether>
0.000

$$$$
VeraChem MOL file


 16 16  0  0  0  0  0  0  0  0999 V2000     
   20.6534   17.9262   22.5178 C   0  0  0  0  0  0  0  0  0  0  0  0
   21.3090   18.3739   21.7579 H   0  0  0  0  0  0  0  0  0  0  0  0
   21.2567   17.2476   23.1361 H   0  0  0  0  0  0  0  0  0  0  0  0
   19.4840   17.2086   21.8299 C   0  0  0  0  0  0  0  0  0  0  0  0
   19.7966   16.6762   20.9213 H   0  0  0  0  0  0  0  0  0  0  0  0
   19.0406   16.4781   22.5208 H   0  0  0  0  0  0  0  0  0  0  0  0
   18.4690   18.3278   21.5333 C   0  0  0  0  0  0  0  0  0  0  0  0
   17.4400   17.9457   21.5307 H   0  0  0  0  0  0  0  0  0  0  0  0
   18.6744   18.7506   20.5404 H   0  0  0  0  0  0  0  0  0  0  0  0
   18.6732   19.4003   22.6240 C   0  0  0  0  0  0  0  0  0  0  0  0
   17.8426   19.3677   23.3441 H   0  0  0  0  0  0  0  0  0  0  0  0
   19.9881   19.0407   23.3462 C   0  0  0  0  0  0  0  0  0  0  0  0
   20.6508   19.9087   23.4622 H   0  0  0  0  0  0  0  0  0  0  0  0
   19.7535   18.6635   24.3501 H   0  0  0  0  0  0  0  0  0  0  0  0
   18.7756   20.6897   22.0315 O   0  0  0  0  0  0  0  0  0  0  0  0
   17.9220   20.8603   21.5801 H   0  0  0  0  0  0  0  0  0  0  0  0
  1  2  1  0  0  0  0
  1  3  1  0  0  0  0
  1  4  1  0  0  0  0
  4  5  1  0  0  0  0
  4  6  1  0  0  0  0
  4  7  1  0  0  0  0
  7  8  1  0  0  0  0
  7  9  1  0  0  0  0
  7 10  1  0  0  0  0
 10 11  1  0  0  0  0
  1 12  1  0  0  0  0
 10 12  1  0  0  0  0
 12 13  1  0  0  0  0
 12 14  1  0  0  0  0
 10 15  1  0  0  0  0
 15 16  1  0  0  0  0
M  END
> <VConfSearch Rank>
358

> <Conf_Id>
59

> <Delta U+W>
0.000

> <U+W>
3.010

> <U>
5.843

> <W>
-2.833

> <W(PB)>
-4.568

> <W(SA)>
1.735

> <Valence>
13.789

> <Coulomb>
-8.574

> <VdW>
0.628

> <VdW6>
-3.284

> <VdW12>
3.912

> <Bond>
0.054

> <Angle>
4.034

> <Pdih>
9.702

> <Idih>
0.000

> <Tether>
0.000

$$$$
VeraChem MOL file


 16 16  0  0  0  0  0  0  0  0999 V2000     
   18.4498   17.7436   22.8414 C   0  0  0  0  0  0  0  0  0  0  0  0
   18.2890   16.6738   23.0327 H   0  0  0  0  0  0  0  0  0  0  0  0
   17.6324   18.3041   23.3160 H   0  0  0  0  0  0  0  0  0  0  0  0
   18.4959   18.0682   21.3420 C   0  0  0  0  0  0  0  0  0  0  0  0
   19.0427   17.2769   20.8105 H   0  0  0  0  0  0  0  0  0  0  0  0
   17.4938   18.1509   20.8996 H   0  0  0  0  0  0  0  0  0  0  0  0
   19.2861   19.3871   21.2576 C   0  0  0  0  0  0  0  0  0  0  0  0
   18.5937   20.2364   21.3240 H   0  0  0  0  0  0  0  0  0  0  0  0
   19.8293   19.4728   20.3070 H   0  0  0  0  0  0  0  0  0  0  0  0
   20.2314   19.4123   22.4764 C   0  0  0  0  0  0  0  0  0  0  0  0
   20.1086   20.3651   23.0118 H   0  0  0  0  0  0  0  0  0  0  0  0
   19.8037   18.2384   23.3824 C   0  0  0  0  0  0  0  0  0  0  0  0
   20.5384   17.4240   23.3225 H   0  0  0  0  0  0  0  0  0  0  0  0
   19.7272   18.5468   24.4331 H   0  0  0  0  0  0  0  0  0  0  0  0
   21.5795   19.2414   22.0553 O   0  0  0  0  0  0  0  0  0  0  0  0
   22.1311   19.2540   22.8660 H   0  0  0  0  0  0  0  0  0  0  0  0
  1  2  1  0  0  0  0
  1  3  1  0  0  0  0
  1  4  1  0  0  0  0
  4  5  1  0  0  0  0
  4  6  1  0  0  0  0
  4  7  1  0  0  0  0
  7  8  1  0  0  0  0
  7  9  1  0  0  0  0
  7 10  1  0  0  0  0
 10 11  1  0  0  0  0
  1 12  1  0  0  0  0
 10 12  1  0  0  0  0
 12 13  1  0  0  0  0
 12 14  1  0  0  0  0
 10 15  1  0  0  0  0
 15 16  1  0  0  0  0
M  END
> <VConfSearch Rank>
359

> <Conf_Id>
33

> <Delta U+W>
0.015

> <U+W>
3.025

> <U>
5.843

> <W>
-2.819

> <W(PB)>
-4.568

> <W(SA)>
1.750

> <Valence>
13.789

> <Coulomb>
-8.574

> <VdW>
0.628

> <VdW6>
-3.284

> <VdW12>
3.913

> <Bond>
0.054

> <Angle>
4.033

> <Pdih>
9.702

> <Idih>
0.000

> <Tether>
0.000

$$$$
VeraChem MOL file


 16 16  0  0  0  0  0  0  0  0999 V2000     
   19.8598   19.1202   21.1210 C   0  0  0  0  0  0  0  0  0  0  0  0
   19.3521   18.7629   20.2145 H   0  0  0  0  0  0  0  0  0  0  0  0
   20.6347   19.8341   20.8096 H   0  0  0  0  0  0  0  0  0  0  0  0
   20.4646   17.9252   21.8899 C   0  0  0  0  0  0  0  0  0  0  0  0
   20.2505   16.9896   21.3549 H   0  0  0  0  0  0  0  0  0  0  0  0
   21.5558   18.0144   21.9815 H   0  0  0  0  0  0  0  0  0  0  0  0
   19.7905   17.9117   23.2783 C   0  0  0  0  0  0  0  0  0  0  0  0
   20.4442   18.4070   24.0084 H   0  0  0  0  0  0  0  0  0  0  0  0
   19.5997   16.8919   23.6385 H   0  0  0  0  0  0  0  0  0  0  0  0
   18.4991   18.7275   23.1318 C   0  0  0  0  0  0  0  0  0  0  0  0
   18.2023   19.1898   24.0843 H   0  0  0  0  0  0  0  0  0  0  0  0
   18.8438   19.7847   22.0742 C   0  0  0  0  0  0  0  0  0  0  0  0
   17.9534   20.1494   21.5449 H   0  0  0  0  0  0  0  0  0  0  0  0
   19.3137   20.6446   22.5696 H   0  0  0  0  0  0  0  0  0  0  0  0
   17.4686   17.8867   22.6340 O   0  0  0  0  0  0  0  0  0  0  0  0
   17.8189   17.5240   21.7944 H   0  0  0  0  0  0  0  0  0  0  0  0
  1  2  1  0  0  0  0
  1  3  1  0  0  0  0
  1  4  1  0  0  0  0
  4  5  1  0  0  0  0
  4  6  1  0  0  0  0
  4  7  1  0  0  0  0
  7  8  1  0  0  0  0
  7  9  1  0  0  0  0
  7 10  1  0  0  0  0
 10 11  1  0  0  0  0
  1 12  1  0  0  0  0
 10 12  1  0  0  0  0
 12 13  1  0  0  0  0
 12 14  1  0  0  0  0
 10 15  1  0  0  0  0
 15 16  1  0  0  0  0
M  END
> <VConfSearch Rank>
360

> <Conf_Id>
20

> <Delta U+W>
-0.483

> <U+W>
2.527

> <U>
4.508

> <W>
-1.981

> <W(PB)>
-3.712

> <W(SA)>
1.732

> <Valence>
14.705

> <Coulomb>
-10.687

> <VdW>
0.490

> <VdW6>
-3.745

> <VdW12>
4.235

> <Bond>
0.068

> <Angle>
3.901

> <Pdih>
10.737

> <Idih>
0.000

> <Tether>
0.000

$$$$
VeraChem MOL file


 16 16  0  0  0  0  0  0  0  0999 V2000     
   19.1855   18.7000   23.7503 C   0  0  0  0  0  0  0  0  0  0  0  0
   18.1808   18.3059   23.9574 H   0  0  0  0  0  0  0  0  0  0  0  0
   19.6490   18.9801   24.7060 H   0  0  0  0  0  0  0  0  0  0  0  0
   19.0834   19.8841   22.7791 C   0  0  0  0  0  0  0  0  0  0  0  0
   18.2211   20.5293   22.9958 H   0  0  0  0  0  0  0  0  0  0  0  0
   19.9946   20.4951   22.8440 H   0  0  0  0  0  0  0  0  0  0  0  0
   18.9918   19.2315   21.3876 C   0  0  0  0  0  0  0  0  0  0  0  0
   19.4169   19.8807   20.6113 H   0  0  0  0  0  0  0  0  0  0  0  0
   17.9368   19.0538   21.1385 H   0  0  0  0  0  0  0  0  0  0  0  0
   19.7512   17.8915   21.4849 C   0  0  0  0  0  0  0  0  0  0  0  0
   20.7150   17.9661   20.9604 H   0  0  0  0  0  0  0  0  0  0  0  0
   20.0060   17.6446   22.9863 C   0  0  0  0  0  0  0  0  0  0  0  0
   19.7377   16.6246   23.2923 H   0  0  0  0  0  0  0  0  0  0  0  0
   21.0743   17.7857   23.1960 H   0  0  0  0  0  0  0  0  0  0  0  0
   18.9624   16.8396   20.9417 O   0  0  0  0  0  0  0  0  0  0  0  0
   18.8231   17.0528   19.9947 H   0  0  0  0  0  0  0  0  0  0  0  0
  1  2  1  0  0  0  0
  1  3  1  0  0  0  0
  1  4  1  0  0  0  0
  4  5  1  0  0  0  0
  4  6  1  0  0  0  0
  4  7  1  0  0  0  0
  7  8  1  0  0  0  0
  7  9  1  0  0  0  0
  7 10  1  0  0  0  0
 10 11  1  0  0  0  0
  1 12  1  0  0  0  0
 10 12  1  0  0  0  0
 12 13  1  0  0  0  0
 12 14  1  0  0  0  0
 10 15  1  0  0  0  0
 15 16  1  0  0  0  0
M  END
> <VConfSearch Rank>
361

> <Conf_Id>
59

> <Delta U+W>
0.000

> <U+W>
3.010

> <U>
5.843

> <W>
-2.833

> <W(PB)>
-4.568

> <W(SA)>
1.735

> <Valence>
13.789

> <Coulomb>
-8.574

> <VdW>
0.628

> <VdW6>
-3.284

> <VdW12>
3.912

> <Bond>
0.054

> <Angle>
4.034

> <Pdih>
9.702

> <Idih>
0.000

> <Tether>
0.000

$$$$
VeraChem MOL file


 16 16  0  0  0  0  0  0  0  0999 V2000     
   20.0859   18.7506   21.0119 C   0  0  0  0  0  0  0  0  0  0  0  0
   19.8495   19.1056   19.9996 H   0  0  0  0  0  0  0  0  0  0  0  0
   21.1641   18.5437   21.0604 H   0  0  0  0  0  0  0  0  0  0  0  0
   19.3003   17.4861   21.3857 C   0  0  0  0  0  0  0  0  0  0  0  0
   18.2727   17.5649   21.0044 H   0  0  0  0  0  0  0  0  0  0  0  0
   19.7518   16.5741   20.9720 H   0  0  0  0  0  0  0  0  0  0  0  0
   19.2806   17.4858   22.9254 C   0  0  0  0  0  0  0  0  0  0  0  0
   20.1547   16.9409   23.3049 H   0  0  0  0  0  0  0  0  0  0  0  0
   18.3823   16.9910   23.3181 H   0  0  0  0  0  0  0  0  0  0  0  0
   19.3768   18.9609   23.3667 C   0  0  0  0  0  0  0  0  0  0  0  0
   20.1885   19.0682   24.1009 H   0  0  0  0  0  0  0  0  0  0  0  0
   19.7027   19.7743   22.0963 C   0  0  0  0  0  0  0  0  0  0  0  0
   18.8187   20.3377   21.7678 H   0  0  0  0  0  0  0  0  0  0  0  0
   20.5134   20.4926   22.2741 H   0  0  0  0  0  0  0  0  0  0  0  0
   18.1380   19.3893   23.9195 O   0  0  0  0  0  0  0  0  0  0  0  0
   18.2525   20.3303   24.1706 H   0  0  0  0  0  0  0  0  0  0  0  0
  1  2  1  0  0  0  0
  1  3  1  0  0  0  0
  1  4  1  0  0  0  0
  4  5  1  0  0  0  0
  4  6  1  0  0  0  0
  4  7  1  0  0  0  0
  7  8  1  0  0  0  0
  7  9  1  0  0  0  0
  7 10  1  0  0  0  0
 10 11  1  0  0  0  0
  1 12  1  0  0  0  0
 10 12  1  0  0  0  0
 12 13  1  0  0  0  0
 12 14  1  0  0  0  0
 10 15  1  0  0  0  0
 15 16  1  0  0  0  0
M  END
> <VConfSearch Rank>
362

> <Conf_Id>
33

> <Delta U+W>
0.015

> <U+W>
3.025

> <U>
5.843

> <W>
-2.819

> <W(PB)>
-4.568

> <W(SA)>
1.750

> <Valence>
13.789

> <Coulomb>
-8.574

> <VdW>
0.628

> <VdW6>
-3.284

> <VdW12>
3.913

> <Bond>
0.054

> <Angle>
4.033

> <Pdih>
9.702

> <Idih>
0.000

> <Tether>
0.000

$$$$
VeraChem MOL file


 16 16  0  0  0  0  0  0  0  0999 V2000     
   20.1656   18.4459   23.3249 C   0  0  0  0  0  0  0  0  0  0  0  0
   19.6304   18.1676   24.2433 H   0  0  0  0  0  0  0  0  0  0  0  0
   21.2368   18.4915   23.5643 H   0  0  0  0  0  0  0  0  0  0  0  0
   19.6421   19.8016   22.8024 C   0  0  0  0  0  0  0  0  0  0  0  0
   18.8544   20.1799   23.4684 H   0  0  0  0  0  0  0  0  0  0  0  0
   20.4399   20.5562   22.7674 H   0  0  0  0  0  0  0  0  0  0  0  0
   19.0679   19.5358   21.3945 C   0  0  0  0  0  0  0  0  0  0  0  0
   19.8166   19.8018   20.6367 H   0  0  0  0  0  0  0  0  0  0  0  0
   18.1650   20.1282   21.1946 H   0  0  0  0  0  0  0  0  0  0  0  0
   18.8005   18.0264   21.3225 C   0  0  0  0  0  0  0  0  0  0  0  0
   18.8636   17.6531   20.2902 H   0  0  0  0  0  0  0  0  0  0  0  0
   19.8890   17.4120   22.2127 C   0  0  0  0  0  0  0  0  0  0  0  0
   19.5932   16.4347   22.6170 H   0  0  0  0  0  0  0  0  0  0  0  0
   20.7979   17.2648   21.6144 H   0  0  0  0  0  0  0  0  0  0  0  0
   17.5258   17.7499   21.8841 O   0  0  0  0  0  0  0  0  0  0  0  0
   17.5631   18.1143   22.7924 H   0  0  0  0  0  0  0  0  0  0  0  0
  1  2  1  0  0  0  0
  1  3  1  0  0  0  0
  1  4  1  0  0  0  0
  4  5  1  0  0  0  0
  4  6  1  0  0  0  0
  4  7  1  0  0  0  0
  7  8  1  0  0  0  0
  7  9  1  0  0  0  0
  7 10  1  0  0  0  0
 10 11  1  0  0  0  0
  1 12  1  0  0  0  0
 10 12  1  0  0  0  0
 12 13  1  0  0  0  0
 12 14  1  0  0  0  0
 10 15  1  0  0  0  0
 15 16  1  0  0  0  0
M  END
> <VConfSearch Rank>
363

> <Conf_Id>
20

> <Delta U+W>
-0.483

> <U+W>
2.527

> <U>
4.508

> <W>
-1.981

> <W(PB)>
-3.712

> <W(SA)>
1.732

> <Valence>
14.705

> <Coulomb>
-10.687

> <VdW>
0.490

> <VdW6>
-3.745

> <VdW12>
4.235

> <Bond>
0.068

> <Angle>
3.901

> <Pdih>
10.737

> <Idih>
0.000

> <Tether>
0.000

$$$$
VeraChem MOL file


 16 16  0  0  0  0  0  0  0  0999 V2000     
   19.3864   17.4886   21.3254 C   0  0  0  0  0  0  0  0  0  0  0  0
   20.3943   17.5318   20.8897 H   0  0  0  0  0  0  0  0  0  0  0  0
   18.8545   16.6377   20.8785 H   0  0  0  0  0  0  0  0  0  0  0  0
   18.6650   18.8220   21.0860 C   0  0  0  0  0  0  0  0  0  0  0  0
   18.8676   19.2336   20.0878 H   0  0  0  0  0  0  0  0  0  0  0  0
   17.5800   18.6782   21.1845 H   0  0  0  0  0  0  0  0  0  0  0  0
   19.1732   19.7402   22.2125 C   0  0  0  0  0  0  0  0  0  0  0  0
   18.4223   20.4925   22.4864 H   0  0  0  0  0  0  0  0  0  0  0  0
   20.0729   20.2702   21.8712 H   0  0  0  0  0  0  0  0  0  0  0  0
   19.5144   18.8197   23.4033 C   0  0  0  0  0  0  0  0  0  0  0  0
   18.7521   18.9230   24.1893 H   0  0  0  0  0  0  0  0  0  0  0  0
   19.4913   17.3769   22.8576 C   0  0  0  0  0  0  0  0  0  0  0  0
   20.3765   16.8022   23.1613 H   0  0  0  0  0  0  0  0  0  0  0  0
   18.6065   16.8596   23.2508 H   0  0  0  0  0  0  0  0  0  0  0  0
   20.8063   19.1318   23.9106 O   0  0  0  0  0  0  0  0  0  0  0  0
   20.7663   20.0574   24.2316 H   0  0  0  0  0  0  0  0  0  0  0  0
  1  2  1  0  0  0  0
  1  3  1  0  0  0  0
  1  4  1  0  0  0  0
  4  5  1  0  0  0  0
  4  6  1  0  0  0  0
  4  7  1  0  0  0  0
  7  8  1  0  0  0  0
  7  9  1  0  0  0  0
  7 10  1  0  0  0  0
 10 11  1  0  0  0  0
  1 12  1  0  0  0  0
 10 12  1  0  0  0  0
 12 13  1  0  0  0  0
 12 14  1  0  0  0  0
 10 15  1  0  0  0  0
 15 16  1  0  0  0  0
M  END
> <VConfSearch Rank>
364

> <Conf_Id>
59

> <Delta U+W>
0.000

> <U+W>
3.010

> <U>
5.843

> <W>
-2.833

> <W(PB)>
-4.568

> <W(SA)>
1.735

> <Valence>
13.789

> <Coulomb>
-8.574

> <VdW>
0.628

> <VdW6>
-3.284

> <VdW12>
3.912

> <Bond>
0.054

> <Angle>
4.034

> <Pdih>
9.702

> <Idih>
0.000

> <Tether>
0.000

$$$$
VeraChem MOL file


 16 16  0  0  0  0  0  0  0  0999 V2000     
   18.0593   18.3704   22.5424 C   0  0  0  0  0  0  0  0  0  0  0  0
   17.4133   17.9647   23.3328 H   0  0  0  0  0  0  0  0  0  0  0  0
   17.4178   18.8128   21.7676 H   0  0  0  0  0  0  0  0  0  0  0  0
   18.9600   17.2971   21.9159 C   0  0  0  0  0  0  0  0  0  0  0  0
   19.3277   16.6211   22.7005 H   0  0  0  0  0  0  0  0  0  0  0  0
   18.4340   16.6956   21.1622 H   0  0  0  0  0  0  0  0  0  0  0  0
   20.1408   18.0852   21.3194 C   0  0  0  0  0  0  0  0  0  0  0  0
   19.9116   18.3636   20.2826 H   0  0  0  0  0  0  0  0  0  0  0  0
   21.0618   17.4871   21.3087 H   0  0  0  0  0  0  0  0  0  0  0  0
   20.2852   19.3677   22.1645 C   0  0  0  0  0  0  0  0  0  0  0  0
   20.3087   20.2417   21.4973 H   0  0  0  0  0  0  0  0  0  0  0  0
   19.0404   19.4311   23.0745 C   0  0  0  0  0  0  0  0  0  0  0  0
   19.3131   19.1866   24.1101 H   0  0  0  0  0  0  0  0  0  0  0  0
   18.5893   20.4318   23.0719 H   0  0  0  0  0  0  0  0  0  0  0  0
   21.4674   19.3048   22.9534 O   0  0  0  0  0  0  0  0  0  0  0  0
   21.5021   20.1346   23.4747 H   0  0  0  0  0  0  0  0  0  0  0  0
  1  2  1  0  0  0  0
  1  3  1  0  0  0  0
  1  4  1  0  0  0  0
  4  5  1  0  0  0  0
  4  6  1  0  0  0  0
  4  7  1  0  0  0  0
  7  8  1  0  0  0  0
  7  9  1  0  0  0  0
  7 10  1  0  0  0  0
 10 11  1  0  0  0  0
  1 12  1  0  0  0  0
 10 12  1  0  0  0  0
 12 13  1  0  0  0  0
 12 14  1  0  0  0  0
 10 15  1  0  0  0  0
 15 16  1  0  0  0  0
M  END
> <VConfSearch Rank>
365

> <Conf_Id>
33

> <Delta U+W>
0.015

> <U+W>
3.025

> <U>
5.843

> <W>
-2.819

> <W(PB)>
-4.568

> <W(SA)>
1.750

> <Valence>
13.789

> <Coulomb>
-8.574

> <VdW>
0.628

> <VdW6>
-3.284

> <VdW12>
3.913

> <Bond>
0.054

> <Angle>
4.033

> <Pdih>
9.702

> <Idih>
0.000

> <Tether>
0.000

$$$$
VeraChem MOL file


 16 16  0  0  0  0  0  0  0  0999 V2000     
   20.0557   18.5896   21.1068 C   0  0  0  0  0  0  0  0  0  0  0  0
   20.5679   17.6397   20.9005 H   0  0  0  0  0  0  0  0  0  0  0  0
   20.2478   19.2626   20.2599 H   0  0  0  0  0  0  0  0  0  0  0  0
   20.5707   19.1865   22.4347 C   0  0  0  0  0  0  0  0  0  0  0  0
   21.3329   18.5260   22.8707 H   0  0  0  0  0  0  0  0  0  0  0  0
   21.0313   20.1722   22.2827 H   0  0  0  0  0  0  0  0  0  0  0  0
   19.3494   19.2837   23.3736 C   0  0  0  0  0  0  0  0  0  0  0  0
   18.9458   20.3045   23.3460 H   0  0  0  0  0  0  0  0  0  0  0  0
   19.6067   19.0543   24.4163 H   0  0  0  0  0  0  0  0  0  0  0  0
   18.3001   18.3175   22.8077 C   0  0  0  0  0  0  0  0  0  0  0  0
   17.2786   18.6359   23.0609 H   0  0  0  0  0  0  0  0  0  0  0  0
   18.5423   18.3497   21.2927 C   0  0  0  0  0  0  0  0  0  0  0  0
   18.2027   17.4302   20.7975 H   0  0  0  0  0  0  0  0  0  0  0  0
   17.9820   19.1888   20.8597 H   0  0  0  0  0  0  0  0  0  0  0  0
   18.5584   17.0088   23.2949 O   0  0  0  0  0  0  0  0  0  0  0  0
   19.4794   16.8137   23.0253 H   0  0  0  0  0  0  0  0  0  0  0  0
  1  2  1  0  0  0  0
  1  3  1  0  0  0  0
  1  4  1  0  0  0  0
  4  5  1  0  0  0  0
  4  6  1  0  0  0  0
  4  7  1  0  0  0  0
  7  8  1  0  0  0  0
  7  9  1  0  0  0  0
  7 10  1  0  0  0  0
 10 11  1  0  0  0  0
  1 12  1  0  0  0  0
 10 12  1  0  0  0  0
 12 13  1  0  0  0  0
 12 14  1  0  0  0  0
 10 15  1  0  0  0  0
 15 16  1  0  0  0  0
M  END
> <VConfSearch Rank>
366

> <Conf_Id>
20

> <Delta U+W>
-0.483

> <U+W>
2.527

> <U>
4.508

> <W>
-1.981

> <W(PB)>
-3.712

> <W(SA)>
1.732

> <Valence>
14.705

> <Coulomb>
-10.687

> <VdW>
0.490

> <VdW6>
-3.745

> <VdW12>
4.235

> <Bond>
0.068

> <Angle>
3.901

> <Pdih>
10.737

> <Idih>
0.000

> <Tether>
0.000

$$$$
VeraChem MOL file


 16 16  0  0  0  0  0  0  0  0999 V2000     
   20.5582   19.0931   21.6953 C   0  0  0  0  0  0  0  0  0  0  0  0
   20.9741   18.2614   21.1097 H   0  0  0  0  0  0  0  0  0  0  0  0
   21.1819   19.9808   21.5233 H   0  0  0  0  0  0  0  0  0  0  0  0
   20.4961   18.6984   23.1772 C   0  0  0  0  0  0  0  0  0  0  0  0
   21.3786   18.1264   23.4946 H   0  0  0  0  0  0  0  0  0  0  0  0
   20.4311   19.6026   23.7982 H   0  0  0  0  0  0  0  0  0  0  0  0
   19.1946   17.8854   23.3029 C   0  0  0  0  0  0  0  0  0  0  0  0
   18.7606   17.9758   24.3070 H   0  0  0  0  0  0  0  0  0  0  0  0
   19.4108   16.8235   23.1231 H   0  0  0  0  0  0  0  0  0  0  0  0
   18.2373   18.4270   22.2203 C   0  0  0  0  0  0  0  0  0  0  0  0
   17.4474   19.0342   22.6860 H   0  0  0  0  0  0  0  0  0  0  0  0
   19.0887   19.3210   21.2953 C   0  0  0  0  0  0  0  0  0  0  0  0
   18.9202   19.1013   20.2326 H   0  0  0  0  0  0  0  0  0  0  0  0
   18.8192   20.3715   21.4656 H   0  0  0  0  0  0  0  0  0  0  0  0
   17.6743   17.3505   21.4799 O   0  0  0  0  0  0  0  0  0  0  0  0
   17.1564   16.8126   22.1154 H   0  0  0  0  0  0  0  0  0  0  0  0
  1  2  1  0  0  0  0
  1  3  1  0  0  0  0
  1  4  1  0  0  0  0
  4  5  1  0  0  0  0
  4  6  1  0  0  0  0
  4  7  1  0  0  0  0
  7  8  1  0  0  0  0
  7  9  1  0  0  0  0
  7 10  1  0  0  0  0
 10 11  1  0  0  0  0
  1 12  1  0  0  0  0
 10 12  1  0  0  0  0
 12 13  1  0  0  0  0
 12 14  1  0  0  0  0
 10 15  1  0  0  0  0
 15 16  1  0  0  0  0
M  END
> <VConfSearch Rank>
367

> <Conf_Id>
59

> <Delta U+W>
0.000

> <U+W>
3.010

> <U>
5.843

> <W>
-2.833

> <W(PB)>
-4.568

> <W(SA)>
1.735

> <Valence>
13.789

> <Coulomb>
-8.574

> <VdW>
0.628

> <VdW6>
-3.284

> <VdW12>
3.912

> <Bond>
0.054

> <Angle>
4.034

> <Pdih>
9.702

> <Idih>
0.000

> <Tether>
0.000

$$$$
VeraChem MOL file


 16 16  0  0  0  0  0  0  0  0999 V2000     
   19.9880   18.9819   21.0131 C   0  0  0  0  0  0  0  0  0  0  0  0
   20.8504   18.7507   20.3731 H   0  0  0  0  0  0  0  0  0  0  0  0
   19.2883   19.6024   20.4359 H   0  0  0  0  0  0  0  0  0  0  0  0
   20.3942   19.7194   22.2964 C   0  0  0  0  0  0  0  0  0  0  0  0
   21.3302   19.2943   22.6848 H   0  0  0  0  0  0  0  0  0  0  0  0
   20.5467   20.7947   22.1319 H   0  0  0  0  0  0  0  0  0  0  0  0
   19.2485   19.4327   23.2845 C   0  0  0  0  0  0  0  0  0  0  0  0
   18.4797   20.2109   23.1930 H   0  0  0  0  0  0  0  0  0  0  0  0
   19.6018   19.4331   24.3243 H   0  0  0  0  0  0  0  0  0  0  0  0
   18.6419   18.0755   22.8727 C   0  0  0  0  0  0  0  0  0  0  0  0
   17.5522   18.1814   22.7679 H   0  0  0  0  0  0  0  0  0  0  0  0
   19.2708   17.7136   21.5107 C   0  0  0  0  0  0  0  0  0  0  0  0
   20.0049   16.9055   21.6330 H   0  0  0  0  0  0  0  0  0  0  0  0
   18.5123   17.3742   20.7935 H   0  0  0  0  0  0  0  0  0  0  0  0
   18.9604   17.0821   23.8400 O   0  0  0  0  0  0  0  0  0  0  0  0
   18.5622   16.2436   23.5237 H   0  0  0  0  0  0  0  0  0  0  0  0
  1  2  1  0  0  0  0
  1  3  1  0  0  0  0
  1  4  1  0  0  0  0
  4  5  1  0  0  0  0
  4  6  1  0  0  0  0
  4  7  1  0  0  0  0
  7  8  1  0  0  0  0
  7  9  1  0  0  0  0
  7 10  1  0  0  0  0
 10 11  1  0  0  0  0
  1 12  1  0  0  0  0
 10 12  1  0  0  0  0
 12 13  1  0  0  0  0
 12 14  1  0  0  0  0
 10 15  1  0  0  0  0
 15 16  1  0  0  0  0
M  END
> <VConfSearch Rank>
368

> <Conf_Id>
33

> <Delta U+W>
0.015

> <U+W>
3.025

> <U>
5.843

> <W>
-2.819

> <W(PB)>
-4.568

> <W(SA)>
1.750

> <Valence>
13.789

> <Coulomb>
-8.574

> <VdW>
0.628

> <VdW6>
-3.284

> <VdW12>
3.913

> <Bond>
0.054

> <Angle>
4.033

> <Pdih>
9.702

> <Idih>
0.000

> <Tether>
0.000

$$$$
VeraChem MOL file


 16 16  0  0  0  0  0  0  0  0999 V2000     
   19.4093   19.2342   21.0772 C   0  0  0  0  0  0  0  0  0  0  0  0
   18.8643   18.7147   20.2769 H   0  0  0  0  0  0  0  0  0  0  0  0
   19.8209   20.1604   20.6533 H   0  0  0  0  0  0  0  0  0  0  0  0
   20.5230   18.3202   21.6332 C   0  0  0  0  0  0  0  0  0  0  0  0
   20.5178   17.3588   21.1013 H   0  0  0  0  0  0  0  0  0  0  0  0
   21.5172   18.7687   21.5011 H   0  0  0  0  0  0  0  0  0  0  0  0
   20.2061   18.1041   23.1283 C   0  0  0  0  0  0  0  0  0  0  0  0
   20.8021   18.7996   23.7338 H   0  0  0  0  0  0  0  0  0  0  0  0
   20.4426   17.0845   23.4607 H   0  0  0  0  0  0  0  0  0  0  0  0
   18.7191   18.4415   23.3008 C   0  0  0  0  0  0  0  0  0  0  0  0
   18.4994   18.7930   24.3192 H   0  0  0  0  0  0  0  0  0  0  0  0
   18.4619   19.5371   22.2574 C   0  0  0  0  0  0  0  0  0  0  0  0
   17.4093   19.5768   21.9467 H   0  0  0  0  0  0  0  0  0  0  0  0
   18.7186   20.5117   22.6932 H   0  0  0  0  0  0  0  0  0  0  0  0
   17.9398   17.2983   22.9803 O   0  0  0  0  0  0  0  0  0  0  0  0
   18.2004   17.0603   22.0667 H   0  0  0  0  0  0  0  0  0  0  0  0
  1  2  1  0  0  0  0
  1  3  1  0  0  0  0
  1  4  1  0  0  0  0
  4  5  1  0  0  0  0
  4  6  1  0  0  0  0
  4  7  1  0  0  0  0
  7  8  1  0  0  0  0
  7  9  1  0  0  0  0
  7 10  1  0  0  0  0
 10 11  1  0  0  0  0
  1 12  1  0  0  0  0
 10 12  1  0  0  0  0
 12 13  1  0  0  0  0
 12 14  1  0  0  0  0
 10 15  1  0  0  0  0
 15 16  1  0  0  0  0
M  END
> <VConfSearch Rank>
369

> <Conf_Id>
20

> <Delta U+W>
-0.483

> <U+W>
2.527

> <U>
4.508

> <W>
-1.981

> <W(PB)>
-3.712

> <W(SA)>
1.732

> <Valence>
14.705

> <Coulomb>
-10.687

> <VdW>
0.490

> <VdW6>
-3.745

> <VdW12>
4.235

> <Bond>
0.068

> <Angle>
3.901

> <Pdih>
10.737

> <Idih>
0.000

> <Tether>
0.000

$$$$
VeraChem MOL file


 16 16  0  0  0  0  0  0  0  0999 V2000     
   20.2302   17.6511   21.5809 C   0  0  0  0  0  0  0  0  0  0  0  0
   20.9958   17.3434   22.3068 H   0  0  0  0  0  0  0  0  0  0  0  0
   20.4107   17.1120   20.6410 H   0  0  0  0  0  0  0  0  0  0  0  0
   20.2752   19.1747   21.4007 C   0  0  0  0  0  0  0  0  0  0  0  0
   21.3024   19.5638   21.3873 H   0  0  0  0  0  0  0  0  0  0  0  0
   19.7914   19.4492   20.4529 H   0  0  0  0  0  0  0  0  0  0  0  0
   19.4556   19.7246   22.5824 C   0  0  0  0  0  0  0  0  0  0  0  0
   18.9776   20.6796   22.3290 H   0  0  0  0  0  0  0  0  0  0  0  0
   20.1227   19.8975   23.4378 H   0  0  0  0  0  0  0  0  0  0  0  0
   18.4117   18.6420   22.9287 C   0  0  0  0  0  0  0  0  0  0  0  0
   17.4142   18.9593   22.5910 H   0  0  0  0  0  0  0  0  0  0  0  0
   18.8303   17.3726   22.1586 C   0  0  0  0  0  0  0  0  0  0  0  0
   18.8266   16.4782   22.7959 H   0  0  0  0  0  0  0  0  0  0  0  0
   18.1208   17.2009   21.3387 H   0  0  0  0  0  0  0  0  0  0  0  0
   18.4125   18.3892   24.3287 O   0  0  0  0  0  0  0  0  0  0  0  0
   18.1517   19.2273   24.7659 H   0  0  0  0  0  0  0  0  0  0  0  0
  1  2  1  0  0  0  0
  1  3  1  0  0  0  0
  1  4  1  0  0  0  0
  4  5  1  0  0  0  0
  4  6  1  0  0  0  0
  4  7  1  0  0  0  0
  7  8  1  0  0  0  0
  7  9  1  0  0  0  0
  7 10  1  0  0  0  0
 10 11  1  0  0  0  0
  1 12  1  0  0  0  0
 10 12  1  0  0  0  0
 12 13  1  0  0  0  0
 12 14  1  0  0  0  0
 10 15  1  0  0  0  0
 15 16  1  0  0  0  0
M  END
> <VConfSearch Rank>
370

> <Conf_Id>
59

> <Delta U+W>
0.000

> <U+W>
3.010

> <U>
5.843

> <W>
-2.833

> <W(PB)>
-4.568

> <W(SA)>
1.735

> <Valence>
13.789

> <Coulomb>
-8.574

> <VdW>
0.628

> <VdW6>
-3.284

> <VdW12>
3.912

> <Bond>
0.054

> <Angle>
4.034

> <Pdih>
9.702

> <Idih>
0.000

> <Tether>
0.000

$$$$
VeraChem MOL file


 16 16  0  0  0  0  0  0  0  0999 V2000     
   18.4569   17.6945   22.7699 C   0  0  0  0  0  0  0  0  0  0  0  0
   18.3461   16.9056   23.5263 H   0  0  0  0  0  0  0  0  0  0  0  0
   17.4679   17.8944   22.3345 H   0  0  0  0  0  0  0  0  0  0  0  0
   19.4409   17.3040   21.6586 C   0  0  0  0  0  0  0  0  0  0  0  0
   20.2962   16.7697   22.0951 H   0  0  0  0  0  0  0  0  0  0  0  0
   18.9812   16.6561   20.8999 H   0  0  0  0  0  0  0  0  0  0  0  0
   19.9155   18.6474   21.0747 C   0  0  0  0  0  0  0  0  0  0  0  0
   19.2524   18.9467   20.2526 H   0  0  0  0  0  0  0  0  0  0  0  0
   20.9348   18.5758   20.6722 H   0  0  0  0  0  0  0  0  0  0  0  0
   19.8065   19.6842   22.2118 C   0  0  0  0  0  0  0  0  0  0  0  0
   19.2421   20.5577   21.8541 H   0  0  0  0  0  0  0  0  0  0  0  0
   19.0391   18.9928   23.3583 C   0  0  0  0  0  0  0  0  0  0  0  0
   19.7248   18.7439   24.1796 H   0  0  0  0  0  0  0  0  0  0  0  0
   18.2495   19.6392   23.7627 H   0  0  0  0  0  0  0  0  0  0  0  0
   21.1038   20.0686   22.6512 O   0  0  0  0  0  0  0  0  0  0  0  0
   20.9748   20.7154   23.3768 H   0  0  0  0  0  0  0  0  0  0  0  0
  1  2  1  0  0  0  0
  1  3  1  0  0  0  0
  1  4  1  0  0  0  0
  4  5  1  0  0  0  0
  4  6  1  0  0  0  0
  4  7  1  0  0  0  0
  7  8  1  0  0  0  0
  7  9  1  0  0  0  0
  7 10  1  0  0  0  0
 10 11  1  0  0  0  0
  1 12  1  0  0  0  0
 10 12  1  0  0  0  0
 12 13  1  0  0  0  0
 12 14  1  0  0  0  0
 10 15  1  0  0  0  0
 15 16  1  0  0  0  0
M  END
> <VConfSearch Rank>
371

> <Conf_Id>
33

> <Delta U+W>
0.015

> <U+W>
3.025

> <U>
5.843

> <W>
-2.819

> <W(PB)>
-4.568

> <W(SA)>
1.750

> <Valence>
13.789

> <Coulomb>
-8.574

> <VdW>
0.628

> <VdW6>
-3.284

> <VdW12>
3.913

> <Bond>
0.054

> <Angle>
4.033

> <Pdih>
9.702

> <Idih>
0.000

> <Tether>
0.000

$$$$
VeraChem MOL file


 16 16  0  0  0  0  0  0  0  0999 V2000     
   20.5323   17.9505   22.1245 C   0  0  0  0  0  0  0  0  0  0  0  0
   20.4667   17.0456   21.5048 H   0  0  0  0  0  0  0  0  0  0  0  0
   21.5763   18.0567   22.4498 H   0  0  0  0  0  0  0  0  0  0  0  0
   19.5716   17.8336   23.3280 C   0  0  0  0  0  0  0  0  0  0  0  0
   19.0418   16.8718   23.2913 H   0  0  0  0  0  0  0  0  0  0  0  0
   20.1129   17.8797   24.2829 H   0  0  0  0  0  0  0  0  0  0  0  0
   18.5685   19.0000   23.2021 C   0  0  0  0  0  0  0  0  0  0  0  0
   18.8903   19.8315   23.8429 H   0  0  0  0  0  0  0  0  0  0  0  0
   17.5548   18.7125   23.5119 H   0  0  0  0  0  0  0  0  0  0  0  0
   18.6224   19.4507   21.7362 C   0  0  0  0  0  0  0  0  0  0  0  0
   18.3593   20.5130   21.6296 H   0  0  0  0  0  0  0  0  0  0  0  0
   20.0744   19.1838   21.3173 C   0  0  0  0  0  0  0  0  0  0  0  0
   20.1737   19.0326   20.2341 H   0  0  0  0  0  0  0  0  0  0  0  0
   20.6897   20.0508   21.5914 H   0  0  0  0  0  0  0  0  0  0  0  0
   17.7549   18.6339   20.9635 O   0  0  0  0  0  0  0  0  0  0  0  0
   18.0621   17.7172   21.1195 H   0  0  0  0  0  0  0  0  0  0  0  0
  1  2  1  0  0  0  0
  1  3  1  0  0  0  0
  1  4  1  0  0  0  0
  4  5  1  0  0  0  0
  4  6  1  0  0  0  0
  4  7  1  0  0  0  0
  7  8  1  0  0  0  0
  7  9  1  0  0  0  0
  7 10  1  0  0  0  0
 10 11  1  0  0  0  0
  1 12  1  0  0  0  0
 10 12  1  0  0  0  0
 12 13  1  0  0  0  0
 12 14  1  0  0  0  0
 10 15  1  0  0  0  0
 15 16  1  0  0  0  0
M  END
> <VConfSearch Rank>
372

> <Conf_Id>
20

> <Delta U+W>
-0.483

> <U+W>
2.527

> <U>
4.508

> <W>
-1.981

> <W(PB)>
-3.712

> <W(SA)>
1.732

> <Valence>
14.705

> <Coulomb>
-10.687

> <VdW>
0.490

> <VdW6>
-3.745

> <VdW12>
4.235

> <Bond>
0.068

> <Angle>
3.901

> <Pdih>
10.737

> <Idih>
0.000

> <Tether>
0.000

$$$$
VeraChem MOL file


 16 16  0  0  0  0  0  0  0  0999 V2000     
   19.2908   19.2987   23.5610 C   0  0  0  0  0  0  0  0  0  0  0  0
   18.9707   18.5647   24.3136 H   0  0  0  0  0  0  0  0  0  0  0  0
   19.4766   20.2544   24.0697 H   0  0  0  0  0  0  0  0  0  0  0  0
   18.2198   19.4151   22.4678 C   0  0  0  0  0  0  0  0  0  0  0  0
   17.2005   19.3834   22.8763 H   0  0  0  0  0  0  0  0  0  0  0  0
   18.3443   20.3641   21.9279 H   0  0  0  0  0  0  0  0  0  0  0  0
   18.5087   18.2355   21.5214 C   0  0  0  0  0  0  0  0  0  0  0  0
   18.2029   18.4630   20.4920 H   0  0  0  0  0  0  0  0  0  0  0  0
   17.9425   17.3552   21.8549 H   0  0  0  0  0  0  0  0  0  0  0  0
   20.0249   17.9635   21.6157 C   0  0  0  0  0  0  0  0  0  0  0  0
   20.5280   18.3160   20.7035 H   0  0  0  0  0  0  0  0  0  0  0  0
   20.5370   18.7727   22.8251 C   0  0  0  0  0  0  0  0  0  0  0  0
   21.1748   18.1729   23.4881 H   0  0  0  0  0  0  0  0  0  0  0  0
   21.1352   19.6187   22.4624 H   0  0  0  0  0  0  0  0  0  0  0  0
   20.2630   16.5756   21.8178 O   0  0  0  0  0  0  0  0  0  0  0  0
   19.9099   16.1119   21.0292 H   0  0  0  0  0  0  0  0  0  0  0  0
  1  2  1  0  0  0  0
  1  3  1  0  0  0  0
  1  4  1  0  0  0  0
  4  5  1  0  0  0  0
  4  6  1  0  0  0  0
  4  7  1  0  0  0  0
  7  8  1  0  0  0  0
  7  9  1  0  0  0  0
  7 10  1  0  0  0  0
 10 11  1  0  0  0  0
  1 12  1  0  0  0  0
 10 12  1  0  0  0  0
 12 13  1  0  0  0  0
 12 14  1  0  0  0  0
 10 15  1  0  0  0  0
 15 16  1  0  0  0  0
M  END
> <VConfSearch Rank>
373

> <Conf_Id>
59

> <Delta U+W>
0.000

> <U+W>
3.010

> <U>
5.843

> <W>
-2.833

> <W(PB)>
-4.568

> <W(SA)>
1.735

> <Valence>
13.789

> <Coulomb>
-8.574

> <VdW>
0.628

> <VdW6>
-3.284

> <VdW12>
3.912

> <Bond>
0.054

> <Angle>
4.034

> <Pdih>
9.702

> <Idih>
0.000

> <Tether>
0.000

$$$$
VeraChem MOL file


 16 16  0  0  0  0  0  0  0  0999 V2000     
   20.4735   17.8290   21.6570 C   0  0  0  0  0  0  0  0  0  0  0  0
   20.6795   17.3596   20.6854 H   0  0  0  0  0  0  0  0  0  0  0  0
   21.3791   17.7520   22.2747 H   0  0  0  0  0  0  0  0  0  0  0  0
   19.2941   17.1701   22.3855 C   0  0  0  0  0  0  0  0  0  0  0  0
   18.5052   16.9235   21.6613 H   0  0  0  0  0  0  0  0  0  0  0  0
   19.5849   16.2471   22.9053 H   0  0  0  0  0  0  0  0  0  0  0  0
   18.7850   18.2541   23.3533 C   0  0  0  0  0  0  0  0  0  0  0  0
   19.3069   18.1641   24.3149 H   0  0  0  0  0  0  0  0  0  0  0  0
   17.7089   18.1505   23.5467 H   0  0  0  0  0  0  0  0  0  0  0  0
   19.1370   19.6138   22.7153 C   0  0  0  0  0  0  0  0  0  0  0  0
   19.6685   20.2340   23.4518 H   0  0  0  0  0  0  0  0  0  0  0  0
   20.0614   19.3060   21.5185 C   0  0  0  0  0  0  0  0  0  0  0  0
   19.5193   19.4448   20.5732 H   0  0  0  0  0  0  0  0  0  0  0  0
   20.9374   19.9672   21.5049 H   0  0  0  0  0  0  0  0  0  0  0  0
   17.9547   20.2662   22.2674 O   0  0  0  0  0  0  0  0  0  0  0  0
   18.2372   21.1139   21.8633 H   0  0  0  0  0  0  0  0  0  0  0  0
  1  2  1  0  0  0  0
  1  3  1  0  0  0  0
  1  4  1  0  0  0  0
  4  5  1  0  0  0  0
  4  6  1  0  0  0  0
  4  7  1  0  0  0  0
  7  8  1  0  0  0  0
  7  9  1  0  0  0  0
  7 10  1  0  0  0  0
 10 11  1  0  0  0  0
  1 12  1  0  0  0  0
 10 12  1  0  0  0  0
 12 13  1  0  0  0  0
 12 14  1  0  0  0  0
 10 15  1  0  0  0  0
 15 16  1  0  0  0  0
M  END
> <VConfSearch Rank>
374

> <Conf_Id>
33

> <Delta U+W>
0.015

> <U+W>
3.025

> <U>
5.843

> <W>
-2.819

> <W(PB)>
-4.568

> <W(SA)>
1.750

> <Valence>
13.789

> <Coulomb>
-8.574

> <VdW>
0.628

> <VdW6>
-3.284

> <VdW12>
3.913

> <Bond>
0.054

> <Angle>
4.033

> <Pdih>
9.702

> <Idih>
0.000

> <Tether>
0.000

$$$$
VeraChem MOL file


 16 16  0  0  0  0  0  0  0  0999 V2000     
   18.2486   19.0579   22.8136 C   0  0  0  0  0  0  0  0  0  0  0  0
   17.7811   18.3549   23.5169 H   0  0  0  0  0  0  0  0  0  0  0  0
   17.6298   19.9653   22.7886 H   0  0  0  0  0  0  0  0  0  0  0  0
   18.3599   18.4077   21.4172 C   0  0  0  0  0  0  0  0  0  0  0  0
   17.9453   17.3905   21.4444 H   0  0  0  0  0  0  0  0  0  0  0  0
   17.8001   18.9757   20.6615 H   0  0  0  0  0  0  0  0  0  0  0  0
   19.8642   18.3614   21.0746 C   0  0  0  0  0  0  0  0  0  0  0  0
   20.1215   19.2165   20.4357 H   0  0  0  0  0  0  0  0  0  0  0  0
   20.1401   17.4458   20.5345 H   0  0  0  0  0  0  0  0  0  0  0  0
   20.6086   18.4952   22.4099 C   0  0  0  0  0  0  0  0  0  0  0  0
   21.6002   18.9511   22.2764 H   0  0  0  0  0  0  0  0  0  0  0  0
   19.6898   19.3811   23.2619 C   0  0  0  0  0  0  0  0  0  0  0  0
   19.8371   19.2195   24.3380 H   0  0  0  0  0  0  0  0  0  0  0  0
   19.9127   20.4349   23.0486 H   0  0  0  0  0  0  0  0  0  0  0  0
   20.7169   17.2151   23.0153 O   0  0  0  0  0  0  0  0  0  0  0  0
   19.7959   16.8912   23.0929 H   0  0  0  0  0  0  0  0  0  0  0  0
  1  2  1  0  0  0  0
  1  3  1  0  0  0  0
  1  4  1  0  0  0  0
  4  5  1  0  0  0  0
  4  6  1  0  0  0  0
  4  7  1  0  0  0  0
  7  8  1  0  0  0  0
  7  9  1  0  0  0  0
  7 10  1  0  0  0  0
 10 11  1  0  0  0  0
  1 12  1  0  0  0  0
 10 12  1  0  0  0  0
 12 13  1  0  0  0  0
 12 14  1  0  0  0  0
 10 15  1  0  0  0  0
 15 16  1  0  0  0  0
M  END
> <VConfSearch Rank>
375

> <Conf_Id>
20

> <Delta U+W>
-0.483

> <U+W>
2.527

> <U>
4.508

> <W>
-1.981

> <W(PB)>
-3.712

> <W(SA)>
1.732

> <Valence>
14.705

> <Coulomb>
-10.687

> <VdW>
0.490

> <VdW6>
-3.745

> <VdW12>
4.235

> <Bond>
0.068

> <Angle>
3.901

> <Pdih>
10.737

> <Idih>
0.000

> <Tether>
0.000

$$$$
VeraChem MOL file


 16 16  0  0  0  0  0  0  0  0999 V2000     
   20.0364   17.5325   21.5331 C   0  0  0  0  0  0  0  0  0  0  0  0
   21.0239   17.4244   22.0030 H   0  0  0  0  0  0  0  0  0  0  0  0
   19.9589   16.7961   20.7217 H   0  0  0  0  0  0  0  0  0  0  0  0
   19.8585   18.9736   21.0358 C   0  0  0  0  0  0  0  0  0  0  0  0
   20.7785   19.3799   20.5939 H   0  0  0  0  0  0  0  0  0  0  0  0
   19.0675   19.0067   20.2736 H   0  0  0  0  0  0  0  0  0  0  0  0
   19.4124   19.7572   22.2838 C   0  0  0  0  0  0  0  0  0  0  0  0
   18.7795   20.6129   22.0151 H   0  0  0  0  0  0  0  0  0  0  0  0
   20.2982   20.1435   22.8061 H   0  0  0  0  0  0  0  0  0  0  0  0
   18.6581   18.7534   23.1810 C   0  0  0  0  0  0  0  0  0  0  0  0
   17.5773   18.9538   23.1439 H   0  0  0  0  0  0  0  0  0  0  0  0
   18.9370   17.3533   22.5963 C   0  0  0  0  0  0  0  0  0  0  0  0
   19.2349   16.6311   23.3681 H   0  0  0  0  0  0  0  0  0  0  0  0
   18.0227   16.9753   22.1208 H   0  0  0  0  0  0  0  0  0  0  0  0
   19.1391   18.8317   24.5175 O   0  0  0  0  0  0  0  0  0  0  0  0
   18.9466   19.7400   24.8329 H   0  0  0  0  0  0  0  0  0  0  0  0
  1  2  1  0  0  0  0
  1  3  1  0  0  0  0
  1  4  1  0  0  0  0
  4  5  1  0  0  0  0
  4  6  1  0  0  0  0
  4  7  1  0  0  0  0
  7  8  1  0  0  0  0
  7  9  1  0  0  0  0
  7 10  1  0  0  0  0
 10 11  1  0  0  0  0
  1 12  1  0  0  0  0
 10 12  1  0  0  0  0
 12 13  1  0  0  0  0
 12 14  1  0  0  0  0
 10 15  1  0  0  0  0
 15 16  1  0  0  0  0
M  END
> <VConfSearch Rank>
376

> <Conf_Id>
59

> <Delta U+W>
0.000

> <U+W>
3.010

> <U>
5.843

> <W>
-2.833

> <W(PB)>
-4.568

> <W(SA)>
1.735

> <Valence>
13.789

> <Coulomb>
-8.574

> <VdW>
0.628

> <VdW6>
-3.284

> <VdW12>
3.912

> <Bond>
0.054

> <Angle>
4.034

> <Pdih>
9.702

> <Idih>
0.000

> <Tether>
0.000

$$$$
VeraChem MOL file


 16 16  0  0  0  0  0  0  0  0999 V2000     
   18.8471   18.2384   21.0455 C   0  0  0  0  0  0  0  0  0  0  0  0
   19.0720   18.2622   19.9705 H   0  0  0  0  0  0  0  0  0  0  0  0
   17.9273   17.6550   21.1912 H   0  0  0  0  0  0  0  0  0  0  0  0
   18.6660   19.6437   21.6354 C   0  0  0  0  0  0  0  0  0  0  0  0
   19.4055   20.3265   21.1942 H   0  0  0  0  0  0  0  0  0  0  0  0
   17.6642   20.0524   21.4458 H   0  0  0  0  0  0  0  0  0  0  0  0
   18.9556   19.4710   23.1379 C   0  0  0  0  0  0  0  0  0  0  0  0
   18.0243   19.2314   23.6674 H   0  0  0  0  0  0  0  0  0  0  0  0
   19.3635   20.3902   23.5793 H   0  0  0  0  0  0  0  0  0  0  0  0
   19.9271   18.2794   23.2644 C   0  0  0  0  0  0  0  0  0  0  0  0
   19.5312   17.5644   24.0003 H   0  0  0  0  0  0  0  0  0  0  0  0
   19.9915   17.6212   21.8700 C   0  0  0  0  0  0  0  0  0  0  0  0
   20.9513   17.8479   21.3860 H   0  0  0  0  0  0  0  0  0  0  0  0
   19.8960   16.5296   21.9344 H   0  0  0  0  0  0  0  0  0  0  0  0
   21.2173   18.7374   23.6511 O   0  0  0  0  0  0  0  0  0  0  0  0
   21.7926   17.9451   23.7048 H   0  0  0  0  0  0  0  0  0  0  0  0
  1  2  1  0  0  0  0
  1  3  1  0  0  0  0
  1  4  1  0  0  0  0
  4  5  1  0  0  0  0
  4  6  1  0  0  0  0
  4  7  1  0  0  0  0
  7  8  1  0  0  0  0
  7  9  1  0  0  0  0
  7 10  1  0  0  0  0
 10 11  1  0  0  0  0
  1 12  1  0  0  0  0
 10 12  1  0  0  0  0
 12 13  1  0  0  0  0
 12 14  1  0  0  0  0
 10 15  1  0  0  0  0
 15 16  1  0  0  0  0
M  END
> <VConfSearch Rank>
377

> <Conf_Id>
33

> <Delta U+W>
0.015

> <U+W>
3.025

> <U>
5.843

> <W>
-2.819

> <W(PB)>
-4.568

> <W(SA)>
1.750

> <Valence>
13.789

> <Coulomb>
-8.574

> <VdW>
0.628

> <VdW6>
-3.284

> <VdW12>
3.913

> <Bond>
0.054

> <Angle>
4.033

> <Pdih>
9.702

> <Idih>
0.000

> <Tether>
0.000

$$$$
VeraChem MOL file


 16 16  0  0  0  0  0  0  0  0999 V2000     
   19.9078   18.8581   23.4594 C   0  0  0  0  0  0  0  0  0  0  0  0
   20.9020   19.3248   23.4277 H   0  0  0  0  0  0  0  0  0  0  0  0
   19.6263   18.7448   24.5153 H   0  0  0  0  0  0  0  0  0  0  0  0
   19.9435   17.4962   22.7320 C   0  0  0  0  0  0  0  0  0  0  0  0
   20.9552   17.3034   22.3492 H   0  0  0  0  0  0  0  0  0  0  0  0
   19.6797   16.6707   23.4072 H   0  0  0  0  0  0  0  0  0  0  0  0
   18.9414   17.5983   21.5625 C   0  0  0  0  0  0  0  0  0  0  0  0
   17.9851   17.1472   21.8585 H   0  0  0  0  0  0  0  0  0  0  0  0
   19.2946   17.0736   20.6647 H   0  0  0  0  0  0  0  0  0  0  0  0
   18.7294   19.0977   21.3139 C   0  0  0  0  0  0  0  0  0  0  0  0
   17.7375   19.3004   20.8851 H   0  0  0  0  0  0  0  0  0  0  0  0
   18.8845   19.7315   22.7029 C   0  0  0  0  0  0  0  0  0  0  0  0
   19.1952   20.7834   22.6478 H   0  0  0  0  0  0  0  0  0  0  0  0
   17.9172   19.6955   23.2212 H   0  0  0  0  0  0  0  0  0  0  0  0
   19.7580   19.5805   20.4620 O   0  0  0  0  0  0  0  0  0  0  0  0
   20.5942   19.3577   20.9206 H   0  0  0  0  0  0  0  0  0  0  0  0
  1  2  1  0  0  0  0
  1  3  1  0  0  0  0
  1  4  1  0  0  0  0
  4  5  1  0  0  0  0
  4  6  1  0  0  0  0
  4  7  1  0  0  0  0
  7  8  1  0  0  0  0
  7  9  1  0  0  0  0
  7 10  1  0  0  0  0
 10 11  1  0  0  0  0
  1 12  1  0  0  0  0
 10 12  1  0  0  0  0
 12 13  1  0  0  0  0
 12 14  1  0  0  0  0
 10 15  1  0  0  0  0
 15 16  1  0  0  0  0
M  END
> <VConfSearch Rank>
378

> <Conf_Id>
20

> <Delta U+W>
-0.483

> <U+W>
2.527

> <U>
4.508

> <W>
-1.981

> <W(PB)>
-3.712

> <W(SA)>
1.732

> <Valence>
14.705

> <Coulomb>
-10.687

> <VdW>
0.490

> <VdW6>
-3.745

> <VdW12>
4.235

> <Bond>
0.068

> <Angle>
3.901

> <Pdih>
10.737

> <Idih>
0.000

> <Tether>
0.000

$$$$
VeraChem MOL file


 16 16  0  0  0  0  0  0  0  0999 V2000     
   19.4888   17.1719   22.7455 C   0  0  0  0  0  0  0  0  0  0  0  0
   20.1613   16.7072   22.0110 H   0  0  0  0  0  0  0  0  0  0  0  0
   19.2491   16.4243   23.5138 H   0  0  0  0  0  0  0  0  0  0  0  0
   18.2371   17.7026   22.0333 C   0  0  0  0  0  0  0  0  0  0  0  0
   17.8842   17.0226   21.2460 H   0  0  0  0  0  0  0  0  0  0  0  0
   17.4253   17.8352   22.7621 H   0  0  0  0  0  0  0  0  0  0  0  0
   18.6654   19.0723   21.4757 C   0  0  0  0  0  0  0  0  0  0  0  0
   17.8141   19.7621   21.4087 H   0  0  0  0  0  0  0  0  0  0  0  0
   19.0739   18.9412   20.4644 H   0  0  0  0  0  0  0  0  0  0  0  0
   19.7557   19.6077   22.4276 C   0  0  0  0  0  0  0  0  0  0  0  0
   19.3486   20.4201   23.0472 H   0  0  0  0  0  0  0  0  0  0  0  0
   20.1578   18.4271   23.3355 C   0  0  0  0  0  0  0  0  0  0  0  0
   21.2472   18.3086   23.4072 H   0  0  0  0  0  0  0  0  0  0  0  0
   19.7744   18.6075   24.3482 H   0  0  0  0  0  0  0  0  0  0  0  0
   20.8803   20.0584   21.6819 O   0  0  0  0  0  0  0  0  0  0  0  0
   20.5664   20.7968   21.1182 H   0  0  0  0  0  0  0  0  0  0  0  0
  1  2  1  0  0  0  0
  1  3  1  0  0  0  0
  1  4  1  0  0  0  0
  4  5  1  0  0  0  0
  4  6  1  0  0  0  0
  4  7  1  0  0  0  0
  7  8  1  0  0  0  0
  7  9  1  0  0  0  0
  7 10  1  0  0  0  0
 10 11  1  0  0  0  0
  1 12  1  0  0  0  0
 10 12  1  0  0  0  0
 12 13  1  0  0  0  0
 12 14  1  0  0  0  0
 10 15  1  0  0  0  0
 15 16  1  0  0  0  0
M  END
> <VConfSearch Rank>
379

> <Conf_Id>
59

> <Delta U+W>
0.000

> <U+W>
3.010

> <U>
5.843

> <W>
-2.833

> <W(PB)>
-4.568

> <W(SA)>
1.735

> <Valence>
13.789

> <Coulomb>
-8.574

> <VdW>
0.628

> <VdW6>
-3.284

> <VdW12>
3.912

> <Bond>
0.054

> <Angle>
4.034

> <Pdih>
9.702

> <Idih>
0.000

> <Tether>
0.000

$$$$
VeraChem MOL file


 16 16  0  0  0  0  0  0  0  0999 V2000     
   19.8145   19.5206   23.3431 C   0  0  0  0  0  0  0  0  0  0  0  0
   20.5210   19.5846   24.1819 H   0  0  0  0  0  0  0  0  0  0  0  0
   19.3239   20.4977   23.2319 H   0  0  0  0  0  0  0  0  0  0  0  0
   18.7539   18.4316   23.5547 C   0  0  0  0  0  0  0  0  0  0  0  0
   19.2197   17.5479   24.0128 H   0  0  0  0  0  0  0  0  0  0  0  0
   17.9342   18.7650   24.2055 H   0  0  0  0  0  0  0  0  0  0  0  0
   18.2717   18.0823   22.1346 C   0  0  0  0  0  0  0  0  0  0  0  0
   17.4229   18.7243   21.8654 H   0  0  0  0  0  0  0  0  0  0  0  0
   17.9359   17.0390   22.0668 H   0  0  0  0  0  0  0  0  0  0  0  0
   19.4496   18.3813   21.1843 C   0  0  0  0  0  0  0  0  0  0  0  0
   19.0990   19.0210   20.3612 H   0  0  0  0  0  0  0  0  0  0  0  0
   20.5055   19.1314   22.0234 C   0  0  0  0  0  0  0  0  0  0  0  0
   21.3576   18.4728   22.2400 H   0  0  0  0  0  0  0  0  0  0  0  0
   20.8876   20.0144   21.4951 H   0  0  0  0  0  0  0  0  0  0  0  0
   19.9944   17.1671   20.6813 O   0  0  0  0  0  0  0  0  0  0  0  0
   20.7413   17.4151   20.0963 H   0  0  0  0  0  0  0  0  0  0  0  0
  1  2  1  0  0  0  0
  1  3  1  0  0  0  0
  1  4  1  0  0  0  0
  4  5  1  0  0  0  0
  4  6  1  0  0  0  0
  4  7  1  0  0  0  0
  7  8  1  0  0  0  0
  7  9  1  0  0  0  0
  7 10  1  0  0  0  0
 10 11  1  0  0  0  0
  1 12  1  0  0  0  0
 10 12  1  0  0  0  0
 12 13  1  0  0  0  0
 12 14  1  0  0  0  0
 10 15  1  0  0  0  0
 15 16  1  0  0  0  0
M  END
> <VConfSearch Rank>
380

> <Conf_Id>
33

> <Delta U+W>
0.015

> <U+W>
3.025

> <U>
5.843

> <W>
-2.819

> <W(PB)>
-4.568

> <W(SA)>
1.750

> <Valence>
13.789

> <Coulomb>
-8.574

> <VdW>
0.628

> <VdW6>
-3.284

> <VdW12>
3.913

> <Bond>
0.054

> <Angle>
4.033

> <Pdih>
9.702

> <Idih>
0.000

> <Tether>
0.000

$$$$
VeraChem MOL file


 16 16  0  0  0  0  0  0  0  0999 V2000     
   19.3152   18.0998   23.4912 C   0  0  0  0  0  0  0  0  0  0  0  0
   20.2849   18.0341   24.0035 H   0  0  0  0  0  0  0  0  0  0  0  0
   18.5472   17.7254   24.1819 H   0  0  0  0  0  0  0  0  0  0  0  0
   19.3543   17.2763   22.1852 C   0  0  0  0  0  0  0  0  0  0  0  0
   20.3426   16.8113   22.0661 H   0  0  0  0  0  0  0  0  0  0  0  0
   18.6061   16.4718   22.1924 H   0  0  0  0  0  0  0  0  0  0  0  0
   19.0900   18.2694   21.0336 C   0  0  0  0  0  0  0  0  0  0  0  0
   18.0303   18.2275   20.7489 H   0  0  0  0  0  0  0  0  0  0  0  0
   19.6853   18.0387   20.1401 H   0  0  0  0  0  0  0  0  0  0  0  0
   19.4004   19.6636   21.5948 C   0  0  0  0  0  0  0  0  0  0  0  0
   18.8173   20.4440   21.0850 H   0  0  0  0  0  0  0  0  0  0  0  0
   19.0274   19.5593   23.0797 C   0  0  0  0  0  0  0  0  0  0  0  0
   19.5762   20.2820   23.6982 H   0  0  0  0  0  0  0  0  0  0  0  0
   17.9555   19.7681   23.1936 H   0  0  0  0  0  0  0  0  0  0  0  0
   20.7933   19.9149   21.4789 O   0  0  0  0  0  0  0  0  0  0  0  0
   21.2258   19.1776   21.9569 H   0  0  0  0  0  0  0  0  0  0  0  0
  1  2  1  0  0  0  0
  1  3  1  0  0  0  0
  1  4  1  0  0  0  0
  4  5  1  0  0  0  0
  4  6  1  0  0  0  0
  4  7  1  0  0  0  0
  7  8  1  0  0  0  0
  7  9  1  0  0  0  0
  7 10  1  0  0  0  0
 10 11  1  0  0  0  0
  1 12  1  0  0  0  0
 10 12  1  0  0  0  0
 12 13  1  0  0  0  0
 12 14  1  0  0  0  0
 10 15  1  0  0  0  0
 15 16  1  0  0  0  0
M  END
> <VConfSearch Rank>
381

> <Conf_Id>
20

> <Delta U+W>
-0.483

> <U+W>
2.527

> <U>
4.508

> <W>
-1.981

> <W(PB)>
-3.712

> <W(SA)>
1.732

> <Valence>
14.705

> <Coulomb>
-10.687

> <VdW>
0.490

> <VdW6>
-3.745

> <VdW12>
4.235

> <Bond>
0.068

> <Angle>
3.901

> <Pdih>
10.737

> <Idih>
0.000

> <Tether>
0.000

$$$$
VeraChem MOL file


 16 16  0  0  0  0  0  0  0  0999 V2000     
   18.7443   17.4109   22.9699 C   0  0  0  0  0  0  0  0  0  0  0  0
   18.6622   17.6998   24.0270 H   0  0  0  0  0  0  0  0  0  0  0  0
   18.2842   16.4210   22.8470 H   0  0  0  0  0  0  0  0  0  0  0  0
   20.2190   17.4288   22.5448 C   0  0  0  0  0  0  0  0  0  0  0  0
   20.8838   17.0348   23.3255 H   0  0  0  0  0  0  0  0  0  0  0  0
   20.3506   16.8177   21.6409 H   0  0  0  0  0  0  0  0  0  0  0  0
   20.5064   18.9063   22.2211 C   0  0  0  0  0  0  0  0  0  0  0  0
   21.2880   19.0048   21.4568 H   0  0  0  0  0  0  0  0  0  0  0  0
   20.8566   19.4157   23.1293 H   0  0  0  0  0  0  0  0  0  0  0  0
   19.1700   19.5158   21.7477 C   0  0  0  0  0  0  0  0  0  0  0  0
   19.1931   19.6743   20.6596 H   0  0  0  0  0  0  0  0  0  0  0  0
   18.0763   18.4828   22.0890 C   0  0  0  0  0  0  0  0  0  0  0  0
   17.2139   18.9398   22.5925 H   0  0  0  0  0  0  0  0  0  0  0  0
   17.7152   18.0234   21.1597 H   0  0  0  0  0  0  0  0  0  0  0  0
   18.9195   20.7391   22.4294 O   0  0  0  0  0  0  0  0  0  0  0  0
   19.6464   21.3506   22.1862 H   0  0  0  0  0  0  0  0  0  0  0  0
  1  2  1  0  0  0  0
  1  3  1  0  0  0  0
  1  4  1  0  0  0  0
  4  5  1  0  0  0  0
  4  6  1  0  0  0  0
  4  7  1  0  0  0  0
  7  8  1  0  0  0  0
  7  9  1  0  0  0  0
  7 10  1  0  0  0  0
 10 11  1  0  0  0  0
  1 12  1  0  0  0  0
 10 12  1  0  0  0  0
 12 13  1  0  0  0  0
 12 14  1  0  0  0  0
 10 15  1  0  0  0  0
 15 16  1  0  0  0  0
M  END
> <VConfSearch Rank>
382

> <Conf_Id>
59

> <Delta U+W>
0.000

> <U+W>
3.010

> <U>
5.843

> <W>
-2.833

> <W(PB)>
-4.568

> <W(SA)>
1.735

> <Valence>
13.789

> <Coulomb>
-8.574

> <VdW>
0.628

> <VdW6>
-3.284

> <VdW12>
3.912

> <Bond>
0.054

> <Angle>
4.034

> <Pdih>
9.702

> <Idih>
0.000

> <Tether>
0.000

$$$$
VeraChem MOL file


 16 16  0  0  0  0  0  0  0  0999 V2000     
   19.0188   19.8315   22.9140 C   0  0  0  0  0  0  0  0  0  0  0  0
   19.2477   20.9056   22.8899 H   0  0  0  0  0  0  0  0  0  0  0  0
   18.1160   19.6862   23.5235 H   0  0  0  0  0  0  0  0  0  0  0  0
   20.1723   19.0014   23.4937 C   0  0  0  0  0  0  0  0  0  0  0  0
   21.1307   19.4006   23.1335 H   0  0  0  0  0  0  0  0  0  0  0  0
   20.1862   19.0120   24.5921 H   0  0  0  0  0  0  0  0  0  0  0  0
   19.9550   17.5881   22.9224 C   0  0  0  0  0  0  0  0  0  0  0  0
   19.3199   17.0084   23.6049 H   0  0  0  0  0  0  0  0  0  0  0  0
   20.9041   17.0473   22.8094 H   0  0  0  0  0  0  0  0  0  0  0  0
   19.2185   17.7654   21.5786 C   0  0  0  0  0  0  0  0  0  0  0  0
   18.3284   17.1195   21.5641 H   0  0  0  0  0  0  0  0  0  0  0  0
   18.7965   19.2481   21.5065 C   0  0  0  0  0  0  0  0  0  0  0  0
   19.4255   19.7883   20.7859 H   0  0  0  0  0  0  0  0  0  0  0  0
   17.7514   19.3551   21.1885 H   0  0  0  0  0  0  0  0  0  0  0  0
   20.0875   17.4492   20.4975 O   0  0  0  0  0  0  0  0  0  0  0  0
   19.5742   17.5894   19.6738 H   0  0  0  0  0  0  0  0  0  0  0  0
  1  2  1  0  0  0  0
  1  3  1  0  0  0  0
  1  4  1  0  0  0  0
  4  5  1  0  0  0  0
  4  6  1  0  0  0  0
  4  7  1  0  0  0  0
  7  8  1  0  0  0  0
  7  9  1  0  0  0  0
  7 10  1  0  0  0  0
 10 11  1  0  0  0  0
  1 12  1  0  0  0  0
 10 12  1  0  0  0  0
 12 13  1  0  0  0  0
 12 14  1  0  0  0  0
 10 15  1  0  0  0  0
 15 16  1  0  0  0  0
M  END
> <VConfSearch Rank>
383

> <Conf_Id>
33

> <Delta U+W>
0.015

> <U+W>
3.025

> <U>
5.843

> <W>
-2.819

> <W(PB)>
-4.568

> <W(SA)>
1.750

> <Valence>
13.789

> <Coulomb>
-8.574

> <VdW>
0.628

> <VdW6>
-3.284

> <VdW12>
3.913

> <Bond>
0.054

> <Angle>
4.033

> <Pdih>
9.702

> <Idih>
0.000

> <Tether>
0.000

$$$$
VeraChem MOL file


 16 16  0  0  0  0  0  0  0  0999 V2000     
   20.4112   18.9971   21.5043 C   0  0  0  0  0  0  0  0  0  0  0  0
   20.1604   19.1716   20.4489 H   0  0  0  0  0  0  0  0  0  0  0  0
   21.4794   19.2186   21.6340 H   0  0  0  0  0  0  0  0  0  0  0  0
   20.0833   17.5375   21.8876 C   0  0  0  0  0  0  0  0  0  0  0  0
   19.6748   17.0052   21.0175 H   0  0  0  0  0  0  0  0  0  0  0  0
   20.9798   16.9957   22.2189 H   0  0  0  0  0  0  0  0  0  0  0  0
   19.0294   17.6068   23.0132 C   0  0  0  0  0  0  0  0  0  0  0  0
   19.5254   17.5013   23.9871 H   0  0  0  0  0  0  0  0  0  0  0  0
   18.2801   16.8082   22.9316 H   0  0  0  0  0  0  0  0  0  0  0  0
   18.4018   19.0042   22.9225 C   0  0  0  0  0  0  0  0  0  0  0  0
   18.0286   19.3444   23.8992 H   0  0  0  0  0  0  0  0  0  0  0  0
   19.5441   19.8936   22.4134 C   0  0  0  0  0  0  0  0  0  0  0  0
   19.1750   20.7852   21.8890 H   0  0  0  0  0  0  0  0  0  0  0  0
   20.1406   20.2331   23.2705 H   0  0  0  0  0  0  0  0  0  0  0  0
   17.3581   18.9866   21.9596 O   0  0  0  0  0  0  0  0  0  0  0  0
   17.7798   18.6747   21.1325 H   0  0  0  0  0  0  0  0  0  0  0  0
  1  2  1  0  0  0  0
  1  3  1  0  0  0  0
  1  4  1  0  0  0  0
  4  5  1  0  0  0  0
  4  6  1  0  0  0  0
  4  7  1  0  0  0  0
  7  8  1  0  0  0  0
  7  9  1  0  0  0  0
  7 10  1  0  0  0  0
 10 11  1  0  0  0  0
  1 12  1  0  0  0  0
 10 12  1  0  0  0  0
 12 13  1  0  0  0  0
 12 14  1  0  0  0  0
 10 15  1  0  0  0  0
 15 16  1  0  0  0  0
M  END
> <VConfSearch Rank>
384

> <Conf_Id>
20

> <Delta U+W>
-0.483

> <U+W>
2.527

> <U>
4.508

> <W>
-1.981

> <W(PB)>
-3.712

> <W(SA)>
1.732

> <Valence>
14.705

> <Coulomb>
-10.687

> <VdW>
0.490

> <VdW6>
-3.745

> <VdW12>
4.235

> <Bond>
0.068

> <Angle>
3.901

> <Pdih>
10.737

> <Idih>
0.000

> <Tether>
0.000

$$$$
VeraChem MOL file


 16 16  0  0  0  0  0  0  0  0999 V2000     
   20.3994   19.5676   22.2667 C   0  0  0  0  0  0  0  0  0  0  0  0
   20.2097   20.1268   21.3398 H   0  0  0  0  0  0  0  0  0  0  0  0
   21.2457   20.0380   22.7853 H   0  0  0  0  0  0  0  0  0  0  0  0
   20.6629   18.0929   21.9328 C   0  0  0  0  0  0  0  0  0  0  0  0
   21.2716   17.9718   21.0264 H   0  0  0  0  0  0  0  0  0  0  0  0
   21.1917   17.6135   22.7684 H   0  0  0  0  0  0  0  0  0  0  0  0
   19.2596   17.4774   21.7827 C   0  0  0  0  0  0  0  0  0  0  0  0
   19.2575   16.4131   22.0513 H   0  0  0  0  0  0  0  0  0  0  0  0
   18.9359   17.5619   20.7363 H   0  0  0  0  0  0  0  0  0  0  0  0
   18.3256   18.2956   22.6991 C   0  0  0  0  0  0  0  0  0  0  0  0
   18.0651   17.7083   23.5917 H   0  0  0  0  0  0  0  0  0  0  0  0
   19.1220   19.5458   23.1263 C   0  0  0  0  0  0  0  0  0  0  0  0
   18.5407   20.4702   23.0100 H   0  0  0  0  0  0  0  0  0  0  0  0
   19.3926   19.4530   24.1861 H   0  0  0  0  0  0  0  0  0  0  0  0
   17.1539   18.6791   21.9892 O   0  0  0  0  0  0  0  0  0  0  0  0
   16.6956   17.8506   21.7343 H   0  0  0  0  0  0  0  0  0  0  0  0
  1  2  1  0  0  0  0
  1  3  1  0  0  0  0
  1  4  1  0  0  0  0
  4  5  1  0  0  0  0
  4  6  1  0  0  0  0
  4  7  1  0  0  0  0
  7  8  1  0  0  0  0
  7  9  1  0  0  0  0
  7 10  1  0  0  0  0
 10 11  1  0  0  0  0
  1 12  1  0  0  0  0
 10 12  1  0  0  0  0
 12 13  1  0  0  0  0
 12 14  1  0  0  0  0
 10 15  1  0  0  0  0
 15 16  1  0  0  0  0
M  END
> <VConfSearch Rank>
385

> <Conf_Id>
59

> <Delta U+W>
0.000

> <U+W>
3.010

> <U>
5.843

> <W>
-2.833

> <W(PB)>
-4.568

> <W(SA)>
1.735

> <Valence>
13.789

> <Coulomb>
-8.574

> <VdW>
0.628

> <VdW6>
-3.284

> <VdW12>
3.912

> <Bond>
0.054

> <Angle>
4.034

> <Pdih>
9.702

> <Idih>
0.000

> <Tether>
0.000

$$$$
VeraChem MOL file


 16 16  0  0  0  0  0  0  0  0999 V2000     
   18.0851   18.7422   22.7109 C   0  0  0  0  0  0  0  0  0  0  0  0
   17.5091   18.9350   23.6262 H   0  0  0  0  0  0  0  0  0  0  0  0
   17.3924   18.7640   21.8581 H   0  0  0  0  0  0  0  0  0  0  0  0
   18.8114   17.3908   22.7517 C   0  0  0  0  0  0  0  0  0  0  0  0
   19.2152   17.2200   23.7594 H   0  0  0  0  0  0  0  0  0  0  0  0
   18.1497   16.5511   22.4993 H   0  0  0  0  0  0  0  0  0  0  0  0
   19.9713   17.5464   21.7510 C   0  0  0  0  0  0  0  0  0  0  0  0
   19.6411   17.2320   20.7524 H   0  0  0  0  0  0  0  0  0  0  0  0
   20.8319   16.9235   22.0294 H   0  0  0  0  0  0  0  0  0  0  0  0
   20.3226   19.0481   21.7150 C   0  0  0  0  0  0  0  0  0  0  0  0
   20.3363   19.3931   20.6708 H   0  0  0  0  0  0  0  0  0  0  0  0
   19.2075   19.7742   22.4967 C   0  0  0  0  0  0  0  0  0  0  0  0
   19.5835   20.1099   23.4728 H   0  0  0  0  0  0  0  0  0  0  0  0
   18.8433   20.6562   21.9543 H   0  0  0  0  0  0  0  0  0  0  0  0
   21.5830   19.2720   22.3357 O   0  0  0  0  0  0  0  0  0  0  0  0
   21.7491   20.2376   22.2946 H   0  0  0  0  0  0  0  0  0  0  0  0
  1  2  1  0  0  0  0
  1  3  1  0  0  0  0
  1  4  1  0  0  0  0
  4  5  1  0  0  0  0
  4  6  1  0  0  0  0
  4  7  1  0  0  0  0
  7  8  1  0  0  0  0
  7  9  1  0  0  0  0
  7 10  1  0  0  0  0
 10 11  1  0  0  0  0
  1 12  1  0  0  0  0
 10 12  1  0  0  0  0
 12 13  1  0  0  0  0
 12 14  1  0  0  0  0
 10 15  1  0  0  0  0
 15 16  1  0  0  0  0
M  END
> <VConfSearch Rank>
386

> <Conf_Id>
33

> <Delta U+W>
0.015

> <U+W>
3.025

> <U>
5.843

> <W>
-2.819

> <W(PB)>
-4.568

> <W(SA)>
1.750

> <Valence>
13.789

> <Coulomb>
-8.574

> <VdW>
0.628

> <VdW6>
-3.284

> <VdW12>
3.913

> <Bond>
0.054

> <Angle>
4.033

> <Pdih>
9.702

> <Idih>
0.000

> <Tether>
0.000

$$$$
VeraChem MOL file


 16 16  0  0  0  0  0  0  0  0999 V2000     
   18.3002   19.2651   22.6985 C   0  0  0  0  0  0  0  0  0  0  0  0
   17.8679   19.9653   21.9704 H   0  0  0  0  0  0  0  0  0  0  0  0
   17.6802   19.3016   23.6047 H   0  0  0  0  0  0  0  0  0  0  0  0
   19.7646   19.6548   22.9962 C   0  0  0  0  0  0  0  0  0  0  0  0
   20.0407   20.5442   22.4131 H   0  0  0  0  0  0  0  0  0  0  0  0
   19.9109   19.8941   24.0585 H   0  0  0  0  0  0  0  0  0  0  0  0
   20.6325   18.4501   22.5743 C   0  0  0  0  0  0  0  0  0  0  0  0
   20.8650   17.8387   23.4562 H   0  0  0  0  0  0  0  0  0  0  0  0
   21.5842   18.7606   22.1227 H   0  0  0  0  0  0  0  0  0  0  0  0
   19.7726   17.6244   21.6080 C   0  0  0  0  0  0  0  0  0  0  0  0
   20.0522   16.5611   21.6252 H   0  0  0  0  0  0  0  0  0  0  0  0
   18.3381   17.8392   22.1089 C   0  0  0  0  0  0  0  0  0  0  0  0
   17.5942   17.6977   21.3136 H   0  0  0  0  0  0  0  0  0  0  0  0
   18.1237   17.1091   22.9006 H   0  0  0  0  0  0  0  0  0  0  0  0
   19.8957   18.1595   20.2983 O   0  0  0  0  0  0  0  0  0  0  0  0
   19.6291   19.0983   20.3806 H   0  0  0  0  0  0  0  0  0  0  0  0
  1  2  1  0  0  0  0
  1  3  1  0  0  0  0
  1  4  1  0  0  0  0
  4  5  1  0  0  0  0
  4  6  1  0  0  0  0
  4  7  1  0  0  0  0
  7  8  1  0  0  0  0
  7  9  1  0  0  0  0
  7 10  1  0  0  0  0
 10 11  1  0  0  0  0
  1 12  1  0  0  0  0
 10 12  1  0  0  0  0
 12 13  1  0  0  0  0
 12 14  1  0  0  0  0
 10 15  1  0  0  0  0
 15 16  1  0  0  0  0
M  END
> <VConfSearch Rank>
387

> <Conf_Id>
20

> <Delta U+W>
-0.483

> <U+W>
2.527

> <U>
4.508

> <W>
-1.981

> <W(PB)>
-3.712

> <W(SA)>
1.732

> <Valence>
14.705

> <Coulomb>
-10.687

> <VdW>
0.490

> <VdW6>
-3.745

> <VdW12>
4.235

> <Bond>
0.068

> <Angle>
3.901

> <Pdih>
10.737

> <Idih>
0.000

> <Tether>
0.000

$$$$
VeraChem MOL file


 16 16  0  0  0  0  0  0  0  0999 V2000     
   18.8174   19.9007   22.4037 C   0  0  0  0  0  0  0  0  0  0  0  0
   19.2707   20.4455   21.5638 H   0  0  0  0  0  0  0  0  0  0  0  0
   18.1161   20.5755   22.9131 H   0  0  0  0  0  0  0  0  0  0  0  0
   19.9207   19.3871   23.3390 C   0  0  0  0  0  0  0  0  0  0  0  0
   20.7324   20.1160   23.4676 H   0  0  0  0  0  0  0  0  0  0  0  0
   19.4948   19.1689   24.3282 H   0  0  0  0  0  0  0  0  0  0  0  0
   20.4042   18.0820   22.6806 C   0  0  0  0  0  0  0  0  0  0  0  0
   20.7809   17.3715   23.4277 H   0  0  0  0  0  0  0  0  0  0  0  0
   21.2246   18.3078   21.9858 H   0  0  0  0  0  0  0  0  0  0  0  0
   19.1950   17.5088   21.9119 C   0  0  0  0  0  0  0  0  0  0  0  0
   18.7899   16.6358   22.4443 H   0  0  0  0  0  0  0  0  0  0  0  0
   18.1310   18.6254   21.8807 C   0  0  0  0  0  0  0  0  0  0  0  0
   17.7124   18.7744   20.8764 H   0  0  0  0  0  0  0  0  0  0  0  0
   17.3046   18.3511   22.5493 H   0  0  0  0  0  0  0  0  0  0  0  0
   19.5769   17.1579   20.5872 O   0  0  0  0  0  0  0  0  0  0  0  0
   20.2581   16.4571   20.6672 H   0  0  0  0  0  0  0  0  0  0  0  0
  1  2  1  0  0  0  0
  1  3  1  0  0  0  0
  1  4  1  0  0  0  0
  4  5  1  0  0  0  0
  4  6  1  0  0  0  0
  4  7  1  0  0  0  0
  7  8  1  0  0  0  0
  7  9  1  0  0  0  0
  7 10  1  0  0  0  0
 10 11  1  0  0  0  0
  1 12  1  0  0  0  0
 10 12  1  0  0  0  0
 12 13  1  0  0  0  0
 12 14  1  0  0  0  0
 10 15  1  0  0  0  0
 15 16  1  0  0  0  0
M  END
> <VConfSearch Rank>
388

> <Conf_Id>
59

> <Delta U+W>
0.000

> <U+W>
3.010

> <U>
5.843

> <W>
-2.833

> <W(PB)>
-4.568

> <W(SA)>
1.735

> <Valence>
13.789

> <Coulomb>
-8.574

> <VdW>
0.628

> <VdW6>
-3.284

> <VdW12>
3.912

> <Bond>
0.054

> <Angle>
4.034

> <Pdih>
9.702

> <Idih>
0.000

> <Tether>
0.000

$$$$
VeraChem MOL file


 16 16  0  0  0  0  0  0  0  0999 V2000     
   18.9668   18.8385   20.9605 C   0  0  0  0  0  0  0  0  0  0  0  0
   18.5396   19.6505   20.3565 H   0  0  0  0  0  0  0  0  0  0  0  0
   19.1716   17.9874   20.2962 H   0  0  0  0  0  0  0  0  0  0  0  0
   18.0285   18.3962   22.0918 C   0  0  0  0  0  0  0  0  0  0  0  0
   17.5426   19.2777   22.5330 H   0  0  0  0  0  0  0  0  0  0  0  0
   17.2450   17.7099   21.7428 H   0  0  0  0  0  0  0  0  0  0  0  0
   18.9590   17.7457   23.1320 C   0  0  0  0  0  0  0  0  0  0  0  0
   19.0555   16.6729   22.9201 H   0  0  0  0  0  0  0  0  0  0  0  0
   18.5625   17.8504   24.1507 H   0  0  0  0  0  0  0  0  0  0  0  0
   20.3385   18.4167   22.9686 C   0  0  0  0  0  0  0  0  0  0  0  0
   21.1101   17.6401   22.8640 H   0  0  0  0  0  0  0  0  0  0  0  0
   20.2610   19.2614   21.6794 C   0  0  0  0  0  0  0  0  0  0  0  0
   20.2061   20.3302   21.9273 H   0  0  0  0  0  0  0  0  0  0  0  0
   21.1419   19.1078   21.0429 H   0  0  0  0  0  0  0  0  0  0  0  0
   20.6132   19.2519   24.0870 O   0  0  0  0  0  0  0  0  0  0  0  0
   21.4907   19.6586   23.9255 H   0  0  0  0  0  0  0  0  0  0  0  0
  1  2  1  0  0  0  0
  1  3  1  0  0  0  0
  1  4  1  0  0  0  0
  4  5  1  0  0  0  0
  4  6  1  0  0  0  0
  4  7  1  0  0  0  0
  7  8  1  0  0  0  0
  7  9  1  0  0  0  0
  7 10  1  0  0  0  0
 10 11  1  0  0  0  0
  1 12  1  0  0  0  0
 10 12  1  0  0  0  0
 12 13  1  0  0  0  0
 12 14  1  0  0  0  0
 10 15  1  0  0  0  0
 15 16  1  0  0  0  0
M  END
> <VConfSearch Rank>
389

> <Conf_Id>
33

> <Delta U+W>
0.015

> <U+W>
3.025

> <U>
5.843

> <W>
-2.819

> <W(PB)>
-4.568

> <W(SA)>
1.750

> <Valence>
13.789

> <Coulomb>
-8.574

> <VdW>
0.628

> <VdW6>
-3.284

> <VdW12>
3.913

> <Bond>
0.054

> <Angle>
4.033

> <Pdih>
9.702

> <Idih>
0.000

> <Tether>
0.000

$$$$
VeraChem MOL file


 16 16  0  0  0  0  0  0  0  0999 V2000     
   18.3229   18.1117   21.6080 C   0  0  0  0  0  0  0  0  0  0  0  0
   18.0848   18.6292   20.6685 H   0  0  0  0  0  0  0  0  0  0  0  0
   17.6011   17.2924   21.7294 H   0  0  0  0  0  0  0  0  0  0  0  0
   18.2563   19.1067   22.7872 C   0  0  0  0  0  0  0  0  0  0  0  0
   17.9849   20.1055   22.4185 H   0  0  0  0  0  0  0  0  0  0  0  0
   17.5003   18.8074   23.5260 H   0  0  0  0  0  0  0  0  0  0  0  0
   19.6656   19.1352   23.4160 C   0  0  0  0  0  0  0  0  0  0  0  0
   19.6915   18.4693   24.2886 H   0  0  0  0  0  0  0  0  0  0  0  0
   19.9503   20.1405   23.7542 H   0  0  0  0  0  0  0  0  0  0  0  0
   20.6201   18.5903   22.3449 C   0  0  0  0  0  0  0  0  0  0  0  0
   21.5050   18.1172   22.7944 H   0  0  0  0  0  0  0  0  0  0  0  0
   19.7697   17.5754   21.5692 C   0  0  0  0  0  0  0  0  0  0  0  0
   20.1315   17.4276   20.5430 H   0  0  0  0  0  0  0  0  0  0  0  0
   19.8154   16.6058   22.0825 H   0  0  0  0  0  0  0  0  0  0  0  0
   20.9978   19.6466   21.4740 O   0  0  0  0  0  0  0  0  0  0  0  0
   20.1548   20.0031   21.1254 H   0  0  0  0  0  0  0  0  0  0  0  0
  1  2  1  0  0  0  0
  1  3  1  0  0  0  0
  1  4  1  0  0  0  0
  4  5  1  0  0  0  0
  4  6  1  0  0  0  0
  4  7  1  0  0  0  0
  7  8  1  0  0  0  0
  7  9  1  0  0  0  0
  7 10  1  0  0  0  0
 10 11  1  0  0  0  0
  1 12  1  0  0  0  0
 10 12  1  0  0  0  0
 12 13  1  0  0  0  0
 12 14  1  0  0  0  0
 10 15  1  0  0  0  0
 15 16  1  0  0  0  0
M  END
> <VConfSearch Rank>
390

> <Conf_Id>
20

> <Delta U+W>
-0.483

> <U+W>
2.527

> <U>
4.508

> <W>
-1.981

> <W(PB)>
-3.712

> <W(SA)>
1.732

> <Valence>
14.705

> <Coulomb>
-10.687

> <VdW>
0.490

> <VdW6>
-3.745

> <VdW12>
4.235

> <Bond>
0.068

> <Angle>
3.901

> <Pdih>
10.737

> <Idih>
0.000

> <Tether>
0.000

$$$$
VeraChem MOL file


 16 16  0  0  0  0  0  0  0  0999 V2000     
   17.9543   18.4749   22.6840 C   0  0  0  0  0  0  0  0  0  0  0  0
   17.5747   19.5010   22.5806 H   0  0  0  0  0  0  0  0  0  0  0  0
   17.1147   17.8239   22.9630 H   0  0  0  0  0  0  0  0  0  0  0  0
   19.0867   18.4473   23.7197 C   0  0  0  0  0  0  0  0  0  0  0  0
   18.8819   19.0985   24.5804 H   0  0  0  0  0  0  0  0  0  0  0  0
   19.2243   17.4217   24.0898 H   0  0  0  0  0  0  0  0  0  0  0  0
   20.3350   18.8894   22.9343 C   0  0  0  0  0  0  0  0  0  0  0  0
   21.2489   18.4473   23.3516 H   0  0  0  0  0  0  0  0  0  0  0  0
   20.4321   19.9822   22.9918 H   0  0  0  0  0  0  0  0  0  0  0  0
   20.1079   18.4489   21.4728 C   0  0  0  0  0  0  0  0  0  0  0  0
   20.7424   17.5818   21.2382 H   0  0  0  0  0  0  0  0  0  0  0  0
   18.6247   18.0380   21.3684 C   0  0  0  0  0  0  0  0  0  0  0  0
   18.1293   18.4831   20.4951 H   0  0  0  0  0  0  0  0  0  0  0  0
   18.5618   16.9467   21.2674 H   0  0  0  0  0  0  0  0  0  0  0  0
   20.3817   19.5277   20.5867 O   0  0  0  0  0  0  0  0  0  0  0  0
   21.3290   19.7532   20.7025 H   0  0  0  0  0  0  0  0  0  0  0  0
  1  2  1  0  0  0  0
  1  3  1  0  0  0  0
  1  4  1  0  0  0  0
  4  5  1  0  0  0  0
  4  6  1  0  0  0  0
  4  7  1  0  0  0  0
  7  8  1  0  0  0  0
  7  9  1  0  0  0  0
  7 10  1  0  0  0  0
 10 11  1  0  0  0  0
  1 12  1  0  0  0  0
 10 12  1  0  0  0  0
 12 13  1  0  0  0  0
 12 14  1  0  0  0  0
 10 15  1  0  0  0  0
 15 16  1  0  0  0  0
M  END
> <VConfSearch Rank>
391

> <Conf_Id>
59

> <Delta U+W>
0.000

> <U+W>
3.010

> <U>
5.843

> <W>
-2.833

> <W(PB)>
-4.568

> <W(SA)>
1.735

> <Valence>
13.789

> <Coulomb>
-8.574

> <VdW>
0.628

> <VdW6>
-3.284

> <VdW12>
3.912

> <Bond>
0.054

> <Angle>
4.034

> <Pdih>
9.702

> <Idih>
0.000

> <Tether>
0.000

$$$$
VeraChem MOL file


 16 16  0  0  0  0  0  0  0  0999 V2000     
   19.1866   20.0230   22.2943 C   0  0  0  0  0  0  0  0  0  0  0  0
   19.2171   20.8771   21.6042 H   0  0  0  0  0  0  0  0  0  0  0  0
   18.7068   20.3516   23.2267 H   0  0  0  0  0  0  0  0  0  0  0  0
   20.5850   19.4694   22.6006 C   0  0  0  0  0  0  0  0  0  0  0  0
   21.1928   19.4770   21.6851 H   0  0  0  0  0  0  0  0  0  0  0  0
   21.1098   20.0560   23.3669 H   0  0  0  0  0  0  0  0  0  0  0  0
   20.3356   18.0154   23.0420 C   0  0  0  0  0  0  0  0  0  0  0  0
   20.1870   17.9808   24.1291 H   0  0  0  0  0  0  0  0  0  0  0  0
   21.1891   17.3677   22.8010 H   0  0  0  0  0  0  0  0  0  0  0  0
   19.0386   17.5597   22.3422 C   0  0  0  0  0  0  0  0  0  0  0  0
   18.3511   17.1381   23.0899 H   0  0  0  0  0  0  0  0  0  0  0  0
   18.4195   18.8234   21.7085 C   0  0  0  0  0  0  0  0  0  0  0  0
   18.5508   18.8058   20.6180 H   0  0  0  0  0  0  0  0  0  0  0  0
   17.3443   18.8941   21.9175 H   0  0  0  0  0  0  0  0  0  0  0  0
   19.3360   16.6006   21.3344 O   0  0  0  0  0  0  0  0  0  0  0  0
   18.4825   16.3564   20.9179 H   0  0  0  0  0  0  0  0  0  0  0  0
  1  2  1  0  0  0  0
  1  3  1  0  0  0  0
  1  4  1  0  0  0  0
  4  5  1  0  0  0  0
  4  6  1  0  0  0  0
  4  7  1  0  0  0  0
  7  8  1  0  0  0  0
  7  9  1  0  0  0  0
  7 10  1  0  0  0  0
 10 11  1  0  0  0  0
  1 12  1  0  0  0  0
 10 12  1  0  0  0  0
 12 13  1  0  0  0  0
 12 14  1  0  0  0  0
 10 15  1  0  0  0  0
 15 16  1  0  0  0  0
M  END
> <VConfSearch Rank>
392

> <Conf_Id>
33

> <Delta U+W>
0.015

> <U+W>
3.025

> <U>
5.843

> <W>
-2.819

> <W(PB)>
-4.568

> <W(SA)>
1.750

> <Valence>
13.789

> <Coulomb>
-8.574

> <VdW>
0.628

> <VdW6>
-3.284

> <VdW12>
3.913

> <Bond>
0.054

> <Angle>
4.033

> <Pdih>
9.702

> <Idih>
0.000

> <Tether>
0.000

$$$$
VeraChem MOL file


 16 16  0  0  0  0  0  0  0  0999 V2000     
   19.7666   17.3329   22.2075 C   0  0  0  0  0  0  0  0  0  0  0  0
   19.0087   16.6159   22.5523 H   0  0  0  0  0  0  0  0  0  0  0  0
   20.6499   16.7595   21.8945 H   0  0  0  0  0  0  0  0  0  0  0  0
   20.1059   18.3246   23.3417 C   0  0  0  0  0  0  0  0  0  0  0  0
   19.5131   18.0869   24.2357 H   0  0  0  0  0  0  0  0  0  0  0  0
   21.1670   18.2706   23.6213 H   0  0  0  0  0  0  0  0  0  0  0  0
   19.7409   19.7299   22.8181 C   0  0  0  0  0  0  0  0  0  0  0  0
   20.6436   20.2251   22.4366 H   0  0  0  0  0  0  0  0  0  0  0  0
   19.3156   20.3692   23.6032 H   0  0  0  0  0  0  0  0  0  0  0  0
   18.7641   19.5099   21.6551 C   0  0  0  0  0  0  0  0  0  0  0  0
   18.8145   20.3294   20.9238 H   0  0  0  0  0  0  0  0  0  0  0  0
   19.2104   18.1764   21.0406 C   0  0  0  0  0  0  0  0  0  0  0  0
   18.3932   17.6678   20.5118 H   0  0  0  0  0  0  0  0  0  0  0  0
   20.0102   18.3689   20.3133 H   0  0  0  0  0  0  0  0  0  0  0  0
   17.4479   19.3704   22.1699 O   0  0  0  0  0  0  0  0  0  0  0  0
   17.5001   18.6263   22.8046 H   0  0  0  0  0  0  0  0  0  0  0  0
  1  2  1  0  0  0  0
  1  3  1  0  0  0  0
  1  4  1  0  0  0  0
  4  5  1  0  0  0  0
  4  6  1  0  0  0  0
  4  7  1  0  0  0  0
  7  8  1  0  0  0  0
  7  9  1  0  0  0  0
  7 10  1  0  0  0  0
 10 11  1  0  0  0  0
  1 12  1  0  0  0  0
 10 12  1  0  0  0  0
 12 13  1  0  0  0  0
 12 14  1  0  0  0  0
 10 15  1  0  0  0  0
 15 16  1  0  0  0  0
M  END
> <VConfSearch Rank>
393

> <Conf_Id>
20

> <Delta U+W>
-0.483

> <U+W>
2.527

> <U>
4.508

> <W>
-1.981

> <W(PB)>
-3.712

> <W(SA)>
1.732

> <Valence>
14.705

> <Coulomb>
-10.687

> <VdW>
0.490

> <VdW6>
-3.745

> <VdW12>
4.235

> <Bond>
0.068

> <Angle>
3.901

> <Pdih>
10.737

> <Idih>
0.000

> <Tether>
0.000

$$$$
VeraChem MOL file


 16 16  0  0  0  0  0  0  0  0999 V2000     
   18.3056   19.2444   21.5865 C   0  0  0  0  0  0  0  0  0  0  0  0
   17.4475   18.5583   21.6088 H   0  0  0  0  0  0  0  0  0  0  0  0
   17.9938   20.1692   21.0824 H   0  0  0  0  0  0  0  0  0  0  0  0
   19.4894   18.5648   20.8847 C   0  0  0  0  0  0  0  0  0  0  0  0
   19.1753   17.9719   20.0149 H   0  0  0  0  0  0  0  0  0  0  0  0
   20.2028   19.3270   20.5415 H   0  0  0  0  0  0  0  0  0  0  0  0
   20.1387   17.6993   21.9802 C   0  0  0  0  0  0  0  0  0  0  0  0
   21.2158   17.5763   21.8083 H   0  0  0  0  0  0  0  0  0  0  0  0
   19.6798   16.7012   21.9741 H   0  0  0  0  0  0  0  0  0  0  0  0
   19.8556   18.4099   23.3206 C   0  0  0  0  0  0  0  0  0  0  0  0
   20.7732   18.8869   23.6948 H   0  0  0  0  0  0  0  0  0  0  0  0
   18.8018   19.4964   23.0223 C   0  0  0  0  0  0  0  0  0  0  0  0
   17.9743   19.4837   23.7441 H   0  0  0  0  0  0  0  0  0  0  0  0
   19.2792   20.4833   23.0793 H   0  0  0  0  0  0  0  0  0  0  0  0
   19.3473   17.4812   24.2708 O   0  0  0  0  0  0  0  0  0  0  0  0
   20.0495   16.8118   24.4132 H   0  0  0  0  0  0  0  0  0  0  0  0
  1  2  1  0  0  0  0
  1  3  1  0  0  0  0
  1  4  1  0  0  0  0
  4  5  1  0  0  0  0
  4  6  1  0  0  0  0
  4  7  1  0  0  0  0
  7  8  1  0  0  0  0
  7  9  1  0  0  0  0
  7 10  1  0  0  0  0
 10 11  1  0  0  0  0
  1 12  1  0  0  0  0
 10 12  1  0  0  0  0
 12 13  1  0  0  0  0
 12 14  1  0  0  0  0
 10 15  1  0  0  0  0
 15 16  1  0  0  0  0
M  END
> <VConfSearch Rank>
394

> <Conf_Id>
59

> <Delta U+W>
0.000

> <U+W>
3.010

> <U>
5.843

> <W>
-2.833

> <W(PB)>
-4.568

> <W(SA)>
1.735

> <Valence>
13.789

> <Coulomb>
-8.574

> <VdW>
0.628

> <VdW6>
-3.284

> <VdW12>
3.912

> <Bond>
0.054

> <Angle>
4.034

> <Pdih>
9.702

> <Idih>
0.000

> <Tether>
0.000

$$$$
VeraChem MOL file


 16 16  0  0  0  0  0  0  0  0999 V2000     
   18.9116   17.2918   22.1347 C   0  0  0  0  0  0  0  0  0  0  0  0
   18.0335   16.7089   22.4445 H   0  0  0  0  0  0  0  0  0  0  0  0
   19.4754   16.6997   21.4004 H   0  0  0  0  0  0  0  0  0  0  0  0
   19.8217   17.6500   23.3175 C   0  0  0  0  0  0  0  0  0  0  0  0
   19.2064   17.9132   24.1892 H   0  0  0  0  0  0  0  0  0  0  0  0
   20.4853   16.8221   23.6020 H   0  0  0  0  0  0  0  0  0  0  0  0
   20.6004   18.8906   22.8425 C   0  0  0  0  0  0  0  0  0  0  0  0
   21.5276   18.5759   22.3463 H   0  0  0  0  0  0  0  0  0  0  0  0
   20.8760   19.5413   23.6831 H   0  0  0  0  0  0  0  0  0  0  0  0
   19.6997   19.6090   21.8166 C   0  0  0  0  0  0  0  0  0  0  0  0
   20.2734   19.7952   20.8970 H   0  0  0  0  0  0  0  0  0  0  0  0
   18.5262   18.6509   21.5224 C   0  0  0  0  0  0  0  0  0  0  0  0
   17.6070   19.0169   21.9999 H   0  0  0  0  0  0  0  0  0  0  0  0
   18.3354   18.5657   20.4448 H   0  0  0  0  0  0  0  0  0  0  0  0
   19.2123   20.8294   22.3616 O   0  0  0  0  0  0  0  0  0  0  0  0
   18.6407   21.2352   21.6759 H   0  0  0  0  0  0  0  0  0  0  0  0
  1  2  1  0  0  0  0
  1  3  1  0  0  0  0
  1  4  1  0  0  0  0
  4  5  1  0  0  0  0
  4  6  1  0  0  0  0
  4  7  1  0  0  0  0
  7  8  1  0  0  0  0
  7  9  1  0  0  0  0
  7 10  1  0  0  0  0
 10 11  1  0  0  0  0
  1 12  1  0  0  0  0
 10 12  1  0  0  0  0
 12 13  1  0  0  0  0
 12 14  1  0  0  0  0
 10 15  1  0  0  0  0
 15 16  1  0  0  0  0
M  END
> <VConfSearch Rank>
395

> <Conf_Id>
33

> <Delta U+W>
0.015

> <U+W>
3.025

> <U>
5.843

> <W>
-2.819

> <W(PB)>
-4.568

> <W(SA)>
1.750

> <Valence>
13.789

> <Coulomb>
-8.574

> <VdW>
0.628

> <VdW6>
-3.284

> <VdW12>
3.913

> <Bond>
0.054

> <Angle>
4.033

> <Pdih>
9.702

> <Idih>
0.000

> <Tether>
0.000

$$$$
VeraChem MOL file


 16 16  0  0  0  0  0  0  0  0999 V2000     
   19.1862   19.5531   21.3312 C   0  0  0  0  0  0  0  0  0  0  0  0
   19.8409   20.4293   21.4352 H   0  0  0  0  0  0  0  0  0  0  0  0
   18.5531   19.7130   20.4477 H   0  0  0  0  0  0  0  0  0  0  0  0
   18.3406   19.3744   22.6111 C   0  0  0  0  0  0  0  0  0  0  0  0
   18.5853   20.1648   23.3340 H   0  0  0  0  0  0  0  0  0  0  0  0
   17.2650   19.4399   22.3969 H   0  0  0  0  0  0  0  0  0  0  0  0
   18.7080   17.9911   23.1888 C   0  0  0  0  0  0  0  0  0  0  0  0
   17.9588   17.2520   22.8756 H   0  0  0  0  0  0  0  0  0  0  0  0
   18.7370   17.9928   24.2866 H   0  0  0  0  0  0  0  0  0  0  0  0
   20.0631   17.6190   22.5721 C   0  0  0  0  0  0  0  0  0  0  0  0
   20.1916   16.5291   22.5051 H   0  0  0  0  0  0  0  0  0  0  0  0
   20.0319   18.2704   21.1830 C   0  0  0  0  0  0  0  0  0  0  0  0
   21.0393   18.4782   20.7983 H   0  0  0  0  0  0  0  0  0  0  0  0
   19.5401   17.5860   20.4792 H   0  0  0  0  0  0  0  0  0  0  0  0
   21.1035   18.2055   23.3405 O   0  0  0  0  0  0  0  0  0  0  0  0
   20.9073   19.1651   23.3446 H   0  0  0  0  0  0  0  0  0  0  0  0
  1  2  1  0  0  0  0
  1  3  1  0  0  0  0
  1  4  1  0  0  0  0
  4  5  1  0  0  0  0
  4  6  1  0  0  0  0
  4  7  1  0  0  0  0
  7  8  1  0  0  0  0
  7  9  1  0  0  0  0
  7 10  1  0  0  0  0
 10 11  1  0  0  0  0
  1 12  1  0  0  0  0
 10 12  1  0  0  0  0
 12 13  1  0  0  0  0
 12 14  1  0  0  0  0
 10 15  1  0  0  0  0
 15 16  1  0  0  0  0
M  END
> <VConfSearch Rank>
396

> <Conf_Id>
20

> <Delta U+W>
-0.483

> <U+W>
2.527

> <U>
4.508

> <W>
-1.981

> <W(PB)>
-3.712

> <W(SA)>
1.732

> <Valence>
14.705

> <Coulomb>
-10.687

> <VdW>
0.490

> <VdW6>
-3.745

> <VdW12>
4.235

> <Bond>
0.068

> <Angle>
3.901

> <Pdih>
10.737

> <Idih>
0.000

> <Tether>
0.000

$$$$
VeraChem MOL file


 16 16  0  0  0  0  0  0  0  0999 V2000     
   18.8769   19.9212   22.4282 C   0  0  0  0  0  0  0  0  0  0  0  0
   17.8609   19.9009   22.0097 H   0  0  0  0  0  0  0  0  0  0  0  0
   19.0750   20.9352   22.8015 H   0  0  0  0  0  0  0  0  0  0  0  0
   19.8839   19.4843   21.3555 C   0  0  0  0  0  0  0  0  0  0  0  0
   19.6381   19.8859   20.3631 H   0  0  0  0  0  0  0  0  0  0  0  0
   20.8894   19.8338   21.6282 H   0  0  0  0  0  0  0  0  0  0  0  0
   19.8394   17.9457   21.3924 C   0  0  0  0  0  0  0  0  0  0  0  0
   20.8015   17.5094   21.0943 H   0  0  0  0  0  0  0  0  0  0  0  0
   19.0744   17.5875   20.6902 H   0  0  0  0  0  0  0  0  0  0  0  0
   19.4633   17.5560   22.8375 C   0  0  0  0  0  0  0  0  0  0  0  0
   20.3444   17.1577   23.3614 H   0  0  0  0  0  0  0  0  0  0  0  0
   19.0016   18.8542   23.5314 C   0  0  0  0  0  0  0  0  0  0  0  0
   18.0567   18.7227   24.0753 H   0  0  0  0  0  0  0  0  0  0  0  0
   19.7646   19.1626   24.2578 H   0  0  0  0  0  0  0  0  0  0  0  0
   18.4081   16.6018   22.8298 O   0  0  0  0  0  0  0  0  0  0  0  0
   18.7514   15.8066   22.3701 H   0  0  0  0  0  0  0  0  0  0  0  0
  1  2  1  0  0  0  0
  1  3  1  0  0  0  0
  1  4  1  0  0  0  0
  4  5  1  0  0  0  0
  4  6  1  0  0  0  0
  4  7  1  0  0  0  0
  7  8  1  0  0  0  0
  7  9  1  0  0  0  0
  7 10  1  0  0  0  0
 10 11  1  0  0  0  0
  1 12  1  0  0  0  0
 10 12  1  0  0  0  0
 12 13  1  0  0  0  0
 12 14  1  0  0  0  0
 10 15  1  0  0  0  0
 15 16  1  0  0  0  0
M  END
> <VConfSearch Rank>
397

> <Conf_Id>
59

> <Delta U+W>
0.000

> <U+W>
3.010

> <U>
5.843

> <W>
-2.833

> <W(PB)>
-4.568

> <W(SA)>
1.735

> <Valence>
13.789

> <Coulomb>
-8.574

> <VdW>
0.628

> <VdW6>
-3.284

> <VdW12>
3.912

> <Bond>
0.054

> <Angle>
4.034

> <Pdih>
9.702

> <Idih>
0.000

> <Tether>
0.000

$$$$
VeraChem MOL file


 16 16  0  0  0  0  0  0  0  0999 V2000     
   20.2309   19.2952   21.2987 C   0  0  0  0  0  0  0  0  0  0  0  0
   20.9519   19.0650   20.5025 H   0  0  0  0  0  0  0  0  0  0  0  0
   19.9625   20.3581   21.2223 H   0  0  0  0  0  0  0  0  0  0  0  0
   20.7923   19.0037   22.6971 C   0  0  0  0  0  0  0  0  0  0  0  0
   21.3792   18.0749   22.6721 H   0  0  0  0  0  0  0  0  0  0  0  0
   21.4405   19.8104   23.0655 H   0  0  0  0  0  0  0  0  0  0  0  0
   19.5458   18.8025   23.5784 C   0  0  0  0  0  0  0  0  0  0  0  0
   19.2376   19.7654   24.0061 H   0  0  0  0  0  0  0  0  0  0  0  0
   19.7464   18.1160   24.4118 H   0  0  0  0  0  0  0  0  0  0  0  0
   18.4290   18.2844   22.6489 C   0  0  0  0  0  0  0  0  0  0  0  0
   17.5293   18.9028   22.7822 H   0  0  0  0  0  0  0  0  0  0  0  0
   18.9609   18.4295   21.2075 C   0  0  0  0  0  0  0  0  0  0  0  0
   19.2215   17.4445   20.7969 H   0  0  0  0  0  0  0  0  0  0  0  0
   18.2127   18.8836   20.5451 H   0  0  0  0  0  0  0  0  0  0  0  0
   18.1481   16.9190   22.9333 O   0  0  0  0  0  0  0  0  0  0  0  0
   17.4441   16.6410   22.3099 H   0  0  0  0  0  0  0  0  0  0  0  0
  1  2  1  0  0  0  0
  1  3  1  0  0  0  0
  1  4  1  0  0  0  0
  4  5  1  0  0  0  0
  4  6  1  0  0  0  0
  4  7  1  0  0  0  0
  7  8  1  0  0  0  0
  7  9  1  0  0  0  0
  7 10  1  0  0  0  0
 10 11  1  0  0  0  0
  1 12  1  0  0  0  0
 10 12  1  0  0  0  0
 12 13  1  0  0  0  0
 12 14  1  0  0  0  0
 10 15  1  0  0  0  0
 15 16  1  0  0  0  0
M  END
> <VConfSearch Rank>
398

> <Conf_Id>
33

> <Delta U+W>
0.015

> <U+W>
3.025

> <U>
5.843

> <W>
-2.819

> <W(PB)>
-4.568

> <W(SA)>
1.750

> <Valence>
13.789

> <Coulomb>
-8.574

> <VdW>
0.628

> <VdW6>
-3.284

> <VdW12>
3.913

> <Bond>
0.054

> <Angle>
4.033

> <Pdih>
9.702

> <Idih>
0.000

> <Tether>
0.000

$$$$
VeraChem MOL file


 16 16  0  0  0  0  0  0  0  0999 V2000     
   19.8881   19.7834   22.6438 C   0  0  0  0  0  0  0  0  0  0  0  0
   19.1594   20.6051   22.6739 H   0  0  0  0  0  0  0  0  0  0  0  0
   20.8572   20.1851   22.9701 H   0  0  0  0  0  0  0  0  0  0  0  0
   19.9662   19.2028   21.2148 C   0  0  0  0  0  0  0  0  0  0  0  0
   19.2760   19.7442   20.5532 H   0  0  0  0  0  0  0  0  0  0  0  0
   20.9763   19.2999   20.7940 H   0  0  0  0  0  0  0  0  0  0  0  0
   19.5498   17.7203   21.3214 C   0  0  0  0  0  0  0  0  0  0  0  0
   20.4474   17.0899   21.3713 H   0  0  0  0  0  0  0  0  0  0  0  0
   18.9578   17.3910   20.4570 H   0  0  0  0  0  0  0  0  0  0  0  0
   18.7754   17.5900   22.6399 C   0  0  0  0  0  0  0  0  0  0  0  0
   18.8531   16.5753   23.0562 H   0  0  0  0  0  0  0  0  0  0  0  0
   19.4287   18.6296   23.5604 C   0  0  0  0  0  0  0  0  0  0  0  0
   18.7475   18.9719   24.3508 H   0  0  0  0  0  0  0  0  0  0  0  0
   20.3031   18.1765   24.0460 H   0  0  0  0  0  0  0  0  0  0  0  0
   17.4179   17.9456   22.4220 O   0  0  0  0  0  0  0  0  0  0  0  0
   17.4479   18.8531   22.0551 H   0  0  0  0  0  0  0  0  0  0  0  0
  1  2  1  0  0  0  0
  1  3  1  0  0  0  0
  1  4  1  0  0  0  0
  4  5  1  0  0  0  0
  4  6  1  0  0  0  0
  4  7  1  0  0  0  0
  7  8  1  0  0  0  0
  7  9  1  0  0  0  0
  7 10  1  0  0  0  0
 10 11  1  0  0  0  0
  1 12  1  0  0  0  0
 10 12  1  0  0  0  0
 12 13  1  0  0  0  0
 12 14  1  0  0  0  0
 10 15  1  0  0  0  0
 15 16  1  0  0  0  0
M  END
> <VConfSearch Rank>
399

> <Conf_Id>
20

> <Delta U+W>
-0.483

> <U+W>
2.527

> <U>
4.508

> <W>
-1.981

> <W(PB)>
-3.712

> <W(SA)>
1.732

> <Valence>
14.705

> <Coulomb>
-10.687

> <VdW>
0.490

> <VdW6>
-3.745

> <VdW12>
4.235

> <Bond>
0.068

> <Angle>
3.901

> <Pdih>
10.737

> <Idih>
0.000

> <Tether>
0.000

$$$$
VeraChem MOL file


 16 16  0  0  0  0  0  0  0  0999 V2000     
   18.1474   18.8670   21.5725 C   0  0  0  0  0  0  0  0  0  0  0  0
   17.8770   17.9320   21.0622 H   0  0  0  0  0  0  0  0  0  0  0  0
   17.3715   19.6138   21.3562 H   0  0  0  0  0  0  0  0  0  0  0  0
   19.5404   19.3191   21.1133 C   0  0  0  0  0  0  0  0  0  0  0  0
   19.6993   19.1571   20.0384 H   0  0  0  0  0  0  0  0  0  0  0  0
   19.6688   20.3904   21.3219 H   0  0  0  0  0  0  0  0  0  0  0  0
   20.5142   18.4994   21.9796 C   0  0  0  0  0  0  0  0  0  0  0  0
   21.4555   19.0392   22.1451 H   0  0  0  0  0  0  0  0  0  0  0  0
   20.7512   17.5571   21.4671 H   0  0  0  0  0  0  0  0  0  0  0  0
   19.7815   18.2161   23.3080 C   0  0  0  0  0  0  0  0  0  0  0  0
   20.2020   18.8400   24.1102 H   0  0  0  0  0  0  0  0  0  0  0  0
   18.3057   18.6039   23.0814 C   0  0  0  0  0  0  0  0  0  0  0  0
   17.6123   17.8274   23.4312 H   0  0  0  0  0  0  0  0  0  0  0  0
   18.0871   19.5229   23.6406 H   0  0  0  0  0  0  0  0  0  0  0  0
   19.8810   16.8361   23.6388 O   0  0  0  0  0  0  0  0  0  0  0  0
   20.8349   16.6440   23.7599 H   0  0  0  0  0  0  0  0  0  0  0  0
  1  2  1  0  0  0  0
  1  3  1  0  0  0  0
  1  4  1  0  0  0  0
  4  5  1  0  0  0  0
  4  6  1  0  0  0  0
  4  7  1  0  0  0  0
  7  8  1  0  0  0  0
  7  9  1  0  0  0  0
  7 10  1  0  0  0  0
 10 11  1  0  0  0  0
  1 12  1  0  0  0  0
 10 12  1  0  0  0  0
 12 13  1  0  0  0  0
 12 14  1  0  0  0  0
 10 15  1  0  0  0  0
 15 16  1  0  0  0  0
M  END
> <VConfSearch Rank>
400

> <Conf_Id>
59

> <Delta U+W>
0.000

> <U+W>
3.010

> <U>
5.843

> <W>
-2.833

> <W(PB)>
-4.568

> <W(SA)>
1.735

> <Valence>
13.789

> <Coulomb>
-8.574

> <VdW>
0.628

> <VdW6>
-3.284

> <VdW12>
3.912

> <Bond>
0.054

> <Angle>
4.034

> <Pdih>
9.702

> <Idih>
0.000

> <Tether>
0.000

$$$$
VeraChem MOL file


 16 16  0  0  0  0  0  0  0  0999 V2000     
   18.2022   18.3873   21.6232 C   0  0  0  0  0  0  0  0  0  0  0  0
   17.8294   18.0552   20.6447 H   0  0  0  0  0  0  0  0  0  0  0  0
   17.3471   18.4619   22.3094 H   0  0  0  0  0  0  0  0  0  0  0  0
   18.9214   19.7409   21.5455 C   0  0  0  0  0  0  0  0  0  0  0  0
   19.5262   19.7845   20.6290 H   0  0  0  0  0  0  0  0  0  0  0  0
   18.2218   20.5878   21.5368 H   0  0  0  0  0  0  0  0  0  0  0  0
   19.8475   19.7563   22.7756 C   0  0  0  0  0  0  0  0  0  0  0  0
   19.3166   20.1941   23.6310 H   0  0  0  0  0  0  0  0  0  0  0  0
   20.7473   20.3600   22.5968 H   0  0  0  0  0  0  0  0  0  0  0  0
   20.1832   18.2842   23.0918 C   0  0  0  0  0  0  0  0  0  0  0  0
   19.9790   18.0851   24.1540 H   0  0  0  0  0  0  0  0  0  0  0  0
   19.2552   17.4268   22.2057 C   0  0  0  0  0  0  0  0  0  0  0  0
   19.8261   16.9723   21.3846 H   0  0  0  0  0  0  0  0  0  0  0  0
   18.7857   16.6167   22.7786 H   0  0  0  0  0  0  0  0  0  0  0  0
   21.5451   18.0142   22.7817 O   0  0  0  0  0  0  0  0  0  0  0  0
   21.6988   17.0684   22.9901 H   0  0  0  0  0  0  0  0  0  0  0  0
  1  2  1  0  0  0  0
  1  3  1  0  0  0  0
  1  4  1  0  0  0  0
  4  5  1  0  0  0  0
  4  6  1  0  0  0  0
  4  7  1  0  0  0  0
  7  8  1  0  0  0  0
  7  9  1  0  0  0  0
  7 10  1  0  0  0  0
 10 11  1  0  0  0  0
  1 12  1  0  0  0  0
 10 12  1  0  0  0  0
 12 13  1  0  0  0  0
 12 14  1  0  0  0  0
 10 15  1  0  0  0  0
 15 16  1  0  0  0  0
M  END
> <VConfSearch Rank>
401

> <Conf_Id>
33

> <Delta U+W>
0.015

> <U+W>
3.025

> <U>
5.843

> <W>
-2.819

> <W(PB)>
-4.568

> <W(SA)>
1.750

> <Valence>
13.789

> <Coulomb>
-8.574

> <VdW>
0.628

> <VdW6>
-3.284

> <VdW12>
3.913

> <Bond>
0.054

> <Angle>
4.033

> <Pdih>
9.702

> <Idih>
0.000

> <Tether>
0.000

$$$$
VeraChem MOL file


 16 16  0  0  0  0  0  0  0  0999 V2000     
   18.2011   18.6896   21.6312 C   0  0  0  0  0  0  0  0  0  0  0  0
   17.5117   19.4322   22.0559 H   0  0  0  0  0  0  0  0  0  0  0  0
   17.7016   18.2254   20.7698 H   0  0  0  0  0  0  0  0  0  0  0  0
   18.5719   17.6428   22.7044 C   0  0  0  0  0  0  0  0  0  0  0  0
   18.0612   17.8783   23.6483 H   0  0  0  0  0  0  0  0  0  0  0  0
   18.2672   16.6309   22.4040 H   0  0  0  0  0  0  0  0  0  0  0  0
   20.1018   17.7294   22.8900 C   0  0  0  0  0  0  0  0  0  0  0  0
   20.5884   16.9443   22.2962 H   0  0  0  0  0  0  0  0  0  0  0  0
   20.4025   17.5910   23.9371 H   0  0  0  0  0  0  0  0  0  0  0  0
   20.5197   19.1003   22.3415 C   0  0  0  0  0  0  0  0  0  0  0  0
   21.5560   19.0903   21.9741 H   0  0  0  0  0  0  0  0  0  0  0  0
   19.5210   19.3684   21.2077 C   0  0  0  0  0  0  0  0  0  0  0  0
   19.3929   20.4413   21.0112 H   0  0  0  0  0  0  0  0  0  0  0  0
   19.8942   18.9022   20.2862 H   0  0  0  0  0  0  0  0  0  0  0  0
   20.3510   20.0807   23.3550 O   0  0  0  0  0  0  0  0  0  0  0  0
   19.4096   20.0165   23.6174 H   0  0  0  0  0  0  0  0  0  0  0  0
  1  2  1  0  0  0  0
  1  3  1  0  0  0  0
  1  4  1  0  0  0  0
  4  5  1  0  0  0  0
  4  6  1  0  0  0  0
  4  7  1  0  0  0  0
  7  8  1  0  0  0  0
  7  9  1  0  0  0  0
  7 10  1  0  0  0  0
 10 11  1  0  0  0  0
  1 12  1  0  0  0  0
 10 12  1  0  0  0  0
 12 13  1  0  0  0  0
 12 14  1  0  0  0  0
 10 15  1  0  0  0  0
 15 16  1  0  0  0  0
M  END
> <VConfSearch Rank>
402

> <Conf_Id>
20

> <Delta U+W>
-0.483

> <U+W>
2.527

> <U>
4.508

> <W>
-1.981

> <W(PB)>
-3.712

> <W(SA)>
1.732

> <Valence>
14.705

> <Coulomb>
-10.687

> <VdW>
0.490

> <VdW6>
-3.745

> <VdW12>
4.235

> <Bond>
0.068

> <Angle>
3.901

> <Pdih>
10.737

> <Idih>
0.000

> <Tether>
0.000

$$$$
VeraChem MOL file


 16 16  0  0  0  0  0  0  0  0999 V2000     
   20.2877   19.0321   23.3246 C   0  0  0  0  0  0  0  0  0  0  0  0
   20.8519   18.1419   23.6358 H   0  0  0  0  0  0  0  0  0  0  0  0
   20.6959   19.9018   23.8573 H   0  0  0  0  0  0  0  0  0  0  0  0
   18.7942   18.8195   23.6073 C   0  0  0  0  0  0  0  0  0  0  0  0
   18.6187   18.3038   24.5613 H   0  0  0  0  0  0  0  0  0  0  0  0
   18.2827   19.7914   23.6429 H   0  0  0  0  0  0  0  0  0  0  0  0
   18.2877   18.0081   22.4008 C   0  0  0  0  0  0  0  0  0  0  0  0
   17.2291   18.2132   22.1954 H   0  0  0  0  0  0  0  0  0  0  0  0
   18.3879   16.9356   22.6164 H   0  0  0  0  0  0  0  0  0  0  0  0
   19.1834   18.3994   21.2066 C   0  0  0  0  0  0  0  0  0  0  0  0
   18.6257   19.0467   20.5140 H   0  0  0  0  0  0  0  0  0  0  0  0
   20.3721   19.1874   21.7949 C   0  0  0  0  0  0  0  0  0  0  0  0
   21.3375   18.8376   21.4057 H   0  0  0  0  0  0  0  0  0  0  0  0
   20.2678   20.2465   21.5257 H   0  0  0  0  0  0  0  0  0  0  0  0
   19.6501   17.2326   20.5399 O   0  0  0  0  0  0  0  0  0  0  0  0
   18.8572   16.7680   20.1978 H   0  0  0  0  0  0  0  0  0  0  0  0
  1  2  1  0  0  0  0
  1  3  1  0  0  0  0
  1  4  1  0  0  0  0
  4  5  1  0  0  0  0
  4  6  1  0  0  0  0
  4  7  1  0  0  0  0
  7  8  1  0  0  0  0
  7  9  1  0  0  0  0
  7 10  1  0  0  0  0
 10 11  1  0  0  0  0
  1 12  1  0  0  0  0
 10 12  1  0  0  0  0
 12 13  1  0  0  0  0
 12 14  1  0  0  0  0
 10 15  1  0  0  0  0
 15 16  1  0  0  0  0
M  END
> <VConfSearch Rank>
403

> <Conf_Id>
59

> <Delta U+W>
0.000

> <U+W>
3.010

> <U>
5.843

> <W>
-2.833

> <W(PB)>
-4.568

> <W(SA)>
1.735

> <Valence>
13.789

> <Coulomb>
-8.574

> <VdW>
0.628

> <VdW6>
-3.284

> <VdW12>
3.912

> <Bond>
0.054

> <Angle>
4.034

> <Pdih>
9.702

> <Idih>
0.000

> <Tether>
0.000

$$$$
VeraChem MOL file


 16 16  0  0  0  0  0  0  0  0999 V2000     
   18.9288   18.1256   21.0474 C   0  0  0  0  0  0  0  0  0  0  0  0
   17.9956   17.7126   20.6409 H   0  0  0  0  0  0  0  0  0  0  0  0
   19.6166   18.3094   20.2103 H   0  0  0  0  0  0  0  0  0  0  0  0
   19.5910   17.1836   22.0623 C   0  0  0  0  0  0  0  0  0  0  0  0
   18.8191   16.7183   22.6910 H   0  0  0  0  0  0  0  0  0  0  0  0
   20.1684   16.3843   21.5781 H   0  0  0  0  0  0  0  0  0  0  0  0
   20.4724   18.1052   22.9252 C   0  0  0  0  0  0  0  0  0  0  0  0
   21.4740   18.1782   22.4817 H   0  0  0  0  0  0  0  0  0  0  0  0
   20.5869   17.7158   23.9457 H   0  0  0  0  0  0  0  0  0  0  0  0
   19.8088   19.4976   22.9009 C   0  0  0  0  0  0  0  0  0  0  0  0
   20.5581   20.2523   22.6208 H   0  0  0  0  0  0  0  0  0  0  0  0
   18.6996   19.4317   21.8298 C   0  0  0  0  0  0  0  0  0  0  0  0
   17.7108   19.4004   22.3073 H   0  0  0  0  0  0  0  0  0  0  0  0
   18.7264   20.3062   21.1670 H   0  0  0  0  0  0  0  0  0  0  0  0
   19.2457   19.7949   24.1730 O   0  0  0  0  0  0  0  0  0  0  0  0
   18.8305   20.6800   24.0969 H   0  0  0  0  0  0  0  0  0  0  0  0
  1  2  1  0  0  0  0
  1  3  1  0  0  0  0
  1  4  1  0  0  0  0
  4  5  1  0  0  0  0
  4  6  1  0  0  0  0
  4  7  1  0  0  0  0
  7  8  1  0  0  0  0
  7  9  1  0  0  0  0
  7 10  1  0  0  0  0
 10 11  1  0  0  0  0
  1 12  1  0  0  0  0
 10 12  1  0  0  0  0
 12 13  1  0  0  0  0
 12 14  1  0  0  0  0
 10 15  1  0  0  0  0
 15 16  1  0  0  0  0
M  END
> <VConfSearch Rank>
404

> <Conf_Id>
33

> <Delta U+W>
0.015

> <U+W>
3.025

> <U>
5.843

> <W>
-2.819

> <W(PB)>
-4.568

> <W(SA)>
1.750

> <Valence>
13.789

> <Coulomb>
-8.574

> <VdW>
0.628

> <VdW6>
-3.284

> <VdW12>
3.913

> <Bond>
0.054

> <Angle>
4.033

> <Pdih>
9.702

> <Idih>
0.000

> <Tether>
0.000

$$$$
VeraChem MOL file


 16 16  0  0  0  0  0  0  0  0999 V2000     
   20.5546   19.0747   22.6886 C   0  0  0  0  0  0  0  0  0  0  0  0
   20.7962   20.0878   22.3386 H   0  0  0  0  0  0  0  0  0  0  0  0
   21.3807   18.7378   23.3297 H   0  0  0  0  0  0  0  0  0  0  0  0
   20.3545   18.1351   21.4794 C   0  0  0  0  0  0  0  0  0  0  0  0
   20.5002   18.6932   20.5443 H   0  0  0  0  0  0  0  0  0  0  0  0
   21.0753   17.3060   21.4886 H   0  0  0  0  0  0  0  0  0  0  0  0
   18.9053   17.6112   21.5674 C   0  0  0  0  0  0  0  0  0  0  0  0
   18.9018   16.6189   22.0374 H   0  0  0  0  0  0  0  0  0  0  0  0
   18.4370   17.5143   20.5788 H   0  0  0  0  0  0  0  0  0  0  0  0
   18.1521   18.5944   22.4735 C   0  0  0  0  0  0  0  0  0  0  0  0
   17.3136   18.1066   22.9911 H   0  0  0  0  0  0  0  0  0  0  0  0
   19.2192   19.0824   23.4625 C   0  0  0  0  0  0  0  0  0  0  0  0
   18.9827   20.0724   23.8747 H   0  0  0  0  0  0  0  0  0  0  0  0
   19.2773   18.3764   24.3014 H   0  0  0  0  0  0  0  0  0  0  0  0
   17.6977   19.6927   21.6962 O   0  0  0  0  0  0  0  0  0  0  0  0
   18.5037   20.0596   21.2779 H   0  0  0  0  0  0  0  0  0  0  0  0
  1  2  1  0  0  0  0
  1  3  1  0  0  0  0
  1  4  1  0  0  0  0
  4  5  1  0  0  0  0
  4  6  1  0  0  0  0
  4  7  1  0  0  0  0
  7  8  1  0  0  0  0
  7  9  1  0  0  0  0
  7 10  1  0  0  0  0
 10 11  1  0  0  0  0
  1 12  1  0  0  0  0
 10 12  1  0  0  0  0
 12 13  1  0  0  0  0
 12 14  1  0  0  0  0
 10 15  1  0  0  0  0
 15 16  1  0  0  0  0
M  END
> <VConfSearch Rank>
405

> <Conf_Id>
20

> <Delta U+W>
-0.483

> <U+W>
2.527

> <U>
4.508

> <W>
-1.981

> <W(PB)>
-3.712

> <W(SA)>
1.732

> <Valence>
14.705

> <Coulomb>
-10.687

> <VdW>
0.490

> <VdW6>
-3.745

> <VdW12>
4.235

> <Bond>
0.068

> <Angle>
3.901

> <Pdih>
10.737

> <Idih>
0.000

> <Tether>
0.000

$$$$
VeraChem MOL file


 16 16  0  0  0  0  0  0  0  0999 V2000     
   19.8846   19.5743   23.2062 C   0  0  0  0  0  0  0  0  0  0  0  0
   19.9142   20.4920   22.6024 H   0  0  0  0  0  0  0  0  0  0  0  0
   20.2057   19.8233   24.2267 H   0  0  0  0  0  0  0  0  0  0  0  0
   20.7719   18.5030   22.5575 C   0  0  0  0  0  0  0  0  0  0  0  0
   21.7027   18.9213   22.1509 H   0  0  0  0  0  0  0  0  0  0  0  0
   21.0350   17.7398   23.3031 H   0  0  0  0  0  0  0  0  0  0  0  0
   19.8835   17.8797   21.4653 C   0  0  0  0  0  0  0  0  0  0  0  0
   20.1501   16.8309   21.2815 H   0  0  0  0  0  0  0  0  0  0  0  0
   20.0211   18.4324   20.5259 H   0  0  0  0  0  0  0  0  0  0  0  0
   18.4275   18.0170   21.9582 C   0  0  0  0  0  0  0  0  0  0  0  0
   18.0466   17.0380   22.2838 H   0  0  0  0  0  0  0  0  0  0  0  0
   18.4663   18.9761   23.1658 C   0  0  0  0  0  0  0  0  0  0  0  0
   17.6990   19.7591   23.1011 H   0  0  0  0  0  0  0  0  0  0  0  0
   18.2818   18.4032   24.0839 H   0  0  0  0  0  0  0  0  0  0  0  0
   17.6094   18.5583   20.9278 O   0  0  0  0  0  0  0  0  0  0  0  0
   17.6301   17.9171   20.1862 H   0  0  0  0  0  0  0  0  0  0  0  0
  1  2  1  0  0  0  0
  1  3  1  0  0  0  0
  1  4  1  0  0  0  0
  4  5  1  0  0  0  0
  4  6  1  0  0  0  0
  4  7  1  0  0  0  0
  7  8  1  0  0  0  0
  7  9  1  0  0  0  0
  7 10  1  0  0  0  0
 10 11  1  0  0  0  0
  1 12  1  0  0  0  0
 10 12  1  0  0  0  0
 12 13  1  0  0  0  0
 12 14  1  0  0  0  0
 10 15  1  0  0  0  0
 15 16  1  0  0  0  0
M  END
> <VConfSearch Rank>
406

> <Conf_Id>
59

> <Delta U+W>
0.000

> <U+W>
3.010

> <U>
5.843

> <W>
-2.833

> <W(PB)>
-4.568

> <W(SA)>
1.735

> <Valence>
13.789

> <Coulomb>
-8.574

> <VdW>
0.628

> <VdW6>
-3.284

> <VdW12>
3.912

> <Bond>
0.054

> <Angle>
4.034

> <Pdih>
9.702

> <Idih>
0.000

> <Tether>
0.000

$$$$
VeraChem MOL file


 16 16  0  0  0  0  0  0  0  0999 V2000     
   20.6300   19.0308   21.5868 C   0  0  0  0  0  0  0  0  0  0  0  0
   21.6630   19.3380   21.7994 H   0  0  0  0  0  0  0  0  0  0  0  0
   20.5225   18.9161   20.4992 H   0  0  0  0  0  0  0  0  0  0  0  0
   19.6010   20.0459   22.1031 C   0  0  0  0  0  0  0  0  0  0  0  0
   19.9213   20.4298   23.0817 H   0  0  0  0  0  0  0  0  0  0  0  0
   19.4757   20.8993   21.4228 H   0  0  0  0  0  0  0  0  0  0  0  0
   18.3050   19.2308   22.2680 C   0  0  0  0  0  0  0  0  0  0  0  0
   17.7282   19.2629   21.3346 H   0  0  0  0  0  0  0  0  0  0  0  0
   17.6704   19.6375   23.0667 H   0  0  0  0  0  0  0  0  0  0  0  0
   18.7334   17.7749   22.5447 C   0  0  0  0  0  0  0  0  0  0  0  0
   18.2075   17.1033   21.8505 H   0  0  0  0  0  0  0  0  0  0  0  0
   20.2541   17.7132   22.2892 C   0  0  0  0  0  0  0  0  0  0  0  0
   20.7975   17.6412   23.2412 H   0  0  0  0  0  0  0  0  0  0  0  0
   20.5258   16.8420   21.6793 H   0  0  0  0  0  0  0  0  0  0  0  0
   18.4480   17.4276   23.8945 O   0  0  0  0  0  0  0  0  0  0  0  0
   18.7491   16.5025   24.0166 H   0  0  0  0  0  0  0  0  0  0  0  0
  1  2  1  0  0  0  0
  1  3  1  0  0  0  0
  1  4  1  0  0  0  0
  4  5  1  0  0  0  0
  4  6  1  0  0  0  0
  4  7  1  0  0  0  0
  7  8  1  0  0  0  0
  7  9  1  0  0  0  0
  7 10  1  0  0  0  0
 10 11  1  0  0  0  0
  1 12  1  0  0  0  0
 10 12  1  0  0  0  0
 12 13  1  0  0  0  0
 12 14  1  0  0  0  0
 10 15  1  0  0  0  0
 15 16  1  0  0  0  0
M  END
> <VConfSearch Rank>
407

> <Conf_Id>
33

> <Delta U+W>
0.015

> <U+W>
3.025

> <U>
5.843

> <W>
-2.819

> <W(PB)>
-4.568

> <W(SA)>
1.750

> <Valence>
13.789

> <Coulomb>
-8.574

> <VdW>
0.628

> <VdW6>
-3.284

> <VdW12>
3.913

> <Bond>
0.054

> <Angle>
4.033

> <Pdih>
9.702

> <Idih>
0.000

> <Tether>
0.000

$$$$
VeraChem MOL file


 16 16  0  0  0  0  0  0  0  0999 V2000     
   18.5690   18.1335   21.3080 C   0  0  0  0  0  0  0  0  0  0  0  0
   17.9514   17.2820   21.6254 H   0  0  0  0  0  0  0  0  0  0  0  0
   18.3136   18.3594   20.2636 H   0  0  0  0  0  0  0  0  0  0  0  0
   20.0652   17.7841   21.4639 C   0  0  0  0  0  0  0  0  0  0  0  0
   20.1718   16.7632   21.8558 H   0  0  0  0  0  0  0  0  0  0  0  0
   20.5928   17.8283   20.5012 H   0  0  0  0  0  0  0  0  0  0  0  0
   20.6506   18.8032   22.4645 C   0  0  0  0  0  0  0  0  0  0  0  0
   21.1417   19.6168   21.9145 H   0  0  0  0  0  0  0  0  0  0  0  0
   21.3981   18.3509   23.1299 H   0  0  0  0  0  0  0  0  0  0  0  0
   19.4546   19.3751   23.2375 C   0  0  0  0  0  0  0  0  0  0  0  0
   19.6554   20.3946   23.5971 H   0  0  0  0  0  0  0  0  0  0  0  0
   18.3067   19.3513   22.2193 C   0  0  0  0  0  0  0  0  0  0  0  0
   17.3221   19.3045   22.7034 H   0  0  0  0  0  0  0  0  0  0  0  0
   18.3416   20.2714   21.6211 H   0  0  0  0  0  0  0  0  0  0  0  0
   19.1391   18.5096   24.3183 O   0  0  0  0  0  0  0  0  0  0  0  0
   18.9779   17.6359   23.9063 H   0  0  0  0  0  0  0  0  0  0  0  0
  1  2  1  0  0  0  0
  1  3  1  0  0  0  0
  1  4  1  0  0  0  0
  4  5  1  0  0  0  0
  4  6  1  0  0  0  0
  4  7  1  0  0  0  0
  7  8  1  0  0  0  0
  7  9  1  0  0  0  0
  7 10  1  0  0  0  0
 10 11  1  0  0  0  0
  1 12  1  0  0  0  0
 10 12  1  0  0  0  0
 12 13  1  0  0  0  0
 12 14  1  0  0  0  0
 10 15  1  0  0  0  0
 15 16  1  0  0  0  0
M  END
> <VConfSearch Rank>
408

> <Conf_Id>
20

> <Delta U+W>
-0.483

> <U+W>
2.527

> <U>
4.508

> <W>
-1.981

> <W(PB)>
-3.712

> <W(SA)>
1.732

> <Valence>
14.705

> <Coulomb>
-10.687

> <VdW>
0.490

> <VdW6>
-3.745

> <VdW12>
4.235

> <Bond>
0.068

> <Angle>
3.901

> <Pdih>
10.737

> <Idih>
0.000

> <Tether>
0.000

$$$$
VeraChem MOL file


 16 16  0  0  0  0  0  0  0  0999 V2000     
   19.9219   19.4638   21.3301 C   0  0  0  0  0  0  0  0  0  0  0  0
   19.1841   19.4949   20.5162 H   0  0  0  0  0  0  0  0  0  0  0  0
   20.7322   20.1644   21.0870 H   0  0  0  0  0  0  0  0  0  0  0  0
   20.4256   18.0256   21.5130 C   0  0  0  0  0  0  0  0  0  0  0  0
   20.5705   17.5084   20.5548 H   0  0  0  0  0  0  0  0  0  0  0  0
   21.3861   18.0354   22.0469 H   0  0  0  0  0  0  0  0  0  0  0  0
   19.3513   17.3515   22.3860 C   0  0  0  0  0  0  0  0  0  0  0  0
   19.7800   16.5516   23.0034 H   0  0  0  0  0  0  0  0  0  0  0  0
   18.5852   16.9039   21.7382 H   0  0  0  0  0  0  0  0  0  0  0  0
   18.7324   18.4679   23.2534 C   0  0  0  0  0  0  0  0  0  0  0  0
   19.0824   18.3752   24.2919 H   0  0  0  0  0  0  0  0  0  0  0  0
   19.2322   19.8032   22.6644 C   0  0  0  0  0  0  0  0  0  0  0  0
   18.4190   20.5282   22.5262 H   0  0  0  0  0  0  0  0  0  0  0  0
   19.9619   20.2476   23.3537 H   0  0  0  0  0  0  0  0  0  0  0  0
   17.3124   18.4060   23.1933 O   0  0  0  0  0  0  0  0  0  0  0  0
   17.0525   17.5378   23.5677 H   0  0  0  0  0  0  0  0  0  0  0  0
  1  2  1  0  0  0  0
  1  3  1  0  0  0  0
  1  4  1  0  0  0  0
  4  5  1  0  0  0  0
  4  6  1  0  0  0  0
  4  7  1  0  0  0  0
  7  8  1  0  0  0  0
  7  9  1  0  0  0  0
  7 10  1  0  0  0  0
 10 11  1  0  0  0  0
  1 12  1  0  0  0  0
 10 12  1  0  0  0  0
 12 13  1  0  0  0  0
 12 14  1  0  0  0  0
 10 15  1  0  0  0  0
 15 16  1  0  0  0  0
M  END
> <VConfSearch Rank>
409

> <Conf_Id>
59

> <Delta U+W>
0.000

> <U+W>
3.010

> <U>
5.843

> <W>
-2.833

> <W(PB)>
-4.568

> <W(SA)>
1.735

> <Valence>
13.789

> <Coulomb>
-8.574

> <VdW>
0.628

> <VdW6>
-3.284

> <VdW12>
3.912

> <Bond>
0.054

> <Angle>
4.034

> <Pdih>
9.702

> <Idih>
0.000

> <Tether>
0.000

$$$$
VeraChem MOL file


 16 16  0  0  0  0  0  0  0  0999 V2000     
   18.7813   17.5487   21.5999 C   0  0  0  0  0  0  0  0  0  0  0  0
   17.8757   16.9341   21.6946 H   0  0  0  0  0  0  0  0  0  0  0  0
   19.2364   17.3415   20.6213 H   0  0  0  0  0  0  0  0  0  0  0  0
   19.7990   17.2646   22.7131 C   0  0  0  0  0  0  0  0  0  0  0  0
   19.2715   17.1201   23.6663 H   0  0  0  0  0  0  0  0  0  0  0  0
   20.4002   16.3673   22.5130 H   0  0  0  0  0  0  0  0  0  0  0  0
   20.6560   18.5418   22.7867 C   0  0  0  0  0  0  0  0  0  0  0  0
   21.5141   18.4493   22.1083 H   0  0  0  0  0  0  0  0  0  0  0  0
   21.0474   18.7083   23.7992 H   0  0  0  0  0  0  0  0  0  0  0  0
   19.7588   19.7017   22.3077 C   0  0  0  0  0  0  0  0  0  0  0  0
   20.2836   20.2673   21.5240 H   0  0  0  0  0  0  0  0  0  0  0  0
   18.4838   19.0540   21.7277 C   0  0  0  0  0  0  0  0  0  0  0  0
   17.6373   19.2001   22.4124 H   0  0  0  0  0  0  0  0  0  0  0  0
   18.2132   19.4930   20.7587 H   0  0  0  0  0  0  0  0  0  0  0  0
   19.4254   20.5480   23.4016 O   0  0  0  0  0  0  0  0  0  0  0  0
   18.8490   21.2560   23.0439 H   0  0  0  0  0  0  0  0  0  0  0  0
  1  2  1  0  0  0  0
  1  3  1  0  0  0  0
  1  4  1  0  0  0  0
  4  5  1  0  0  0  0
  4  6  1  0  0  0  0
  4  7  1  0  0  0  0
  7  8  1  0  0  0  0
  7  9  1  0  0  0  0
  7 10  1  0  0  0  0
 10 11  1  0  0  0  0
  1 12  1  0  0  0  0
 10 12  1  0  0  0  0
 12 13  1  0  0  0  0
 12 14  1  0  0  0  0
 10 15  1  0  0  0  0
 15 16  1  0  0  0  0
M  END
> <VConfSearch Rank>
410

> <Conf_Id>
33

> <Delta U+W>
0.015

> <U+W>
3.025

> <U>
5.843

> <W>
-2.819

> <W(PB)>
-4.568

> <W(SA)>
1.750

> <Valence>
13.789

> <Coulomb>
-8.574

> <VdW>
0.628

> <VdW6>
-3.284

> <VdW12>
3.913

> <Bond>
0.054

> <Angle>
4.033

> <Pdih>
9.702

> <Idih>
0.000

> <Tether>
0.000

$$$$
VeraChem MOL file


 16 16  0  0  0  0  0  0  0  0999 V2000     
   20.2255   17.8021   22.9015 C   0  0  0  0  0  0  0  0  0  0  0  0
   20.6866   18.2482   23.7935 H   0  0  0  0  0  0  0  0  0  0  0  0
   20.6022   16.7741   22.8104 H   0  0  0  0  0  0  0  0  0  0  0  0
   20.5698   18.6457   21.6546 C   0  0  0  0  0  0  0  0  0  0  0  0
   21.1984   19.4995   21.9429 H   0  0  0  0  0  0  0  0  0  0  0  0
   21.1257   18.0587   20.9107 H   0  0  0  0  0  0  0  0  0  0  0  0
   19.2270   19.1428   21.0782 C   0  0  0  0  0  0  0  0  0  0  0  0
   18.9154   18.4860   20.2553 H   0  0  0  0  0  0  0  0  0  0  0  0
   19.2969   20.1646   20.6820 H   0  0  0  0  0  0  0  0  0  0  0  0
   18.2069   19.0303   22.2191 C   0  0  0  0  0  0  0  0  0  0  0  0
   17.1868   18.8816   21.8366 H   0  0  0  0  0  0  0  0  0  0  0  0
   18.6876   17.8201   23.0311 C   0  0  0  0  0  0  0  0  0  0  0  0
   18.3585   17.8642   24.0778 H   0  0  0  0  0  0  0  0  0  0  0  0
   18.2714   16.9056   22.5883 H   0  0  0  0  0  0  0  0  0  0  0  0
   18.2798   20.1952   23.0282 O   0  0  0  0  0  0  0  0  0  0  0  0
   19.2134   20.2449   23.3198 H   0  0  0  0  0  0  0  0  0  0  0  0
  1  2  1  0  0  0  0
  1  3  1  0  0  0  0
  1  4  1  0  0  0  0
  4  5  1  0  0  0  0
  4  6  1  0  0  0  0
  4  7  1  0  0  0  0
  7  8  1  0  0  0  0
  7  9  1  0  0  0  0
  7 10  1  0  0  0  0
 10 11  1  0  0  0  0
  1 12  1  0  0  0  0
 10 12  1  0  0  0  0
 12 13  1  0  0  0  0
 12 14  1  0  0  0  0
 10 15  1  0  0  0  0
 15 16  1  0  0  0  0
M  END
> <VConfSearch Rank>
411

> <Conf_Id>
20

> <Delta U+W>
-0.483

> <U+W>
2.527

> <U>
4.508

> <W>
-1.981

> <W(PB)>
-3.712

> <W(SA)>
1.732

> <Valence>
14.705

> <Coulomb>
-10.687

> <VdW>
0.490

> <VdW6>
-3.745

> <VdW12>
4.235

> <Bond>
0.068

> <Angle>
3.901

> <Pdih>
10.737

> <Idih>
0.000

> <Tether>
0.000

$$$$
VeraChem MOL file


 16 16  0  0  0  0  0  0  0  0999 V2000     
   19.9224   19.7644   22.8890 C   0  0  0  0  0  0  0  0  0  0  0  0
   20.9087   19.4650   23.2701 H   0  0  0  0  0  0  0  0  0  0  0  0
   19.8050   20.8448   23.0493 H   0  0  0  0  0  0  0  0  0  0  0  0
   18.8298   18.9456   23.5902 C   0  0  0  0  0  0  0  0  0  0  0  0
   19.0385   18.7988   24.6587 H   0  0  0  0  0  0  0  0  0  0  0  0
   17.8639   19.4612   23.4964 H   0  0  0  0  0  0  0  0  0  0  0  0
   18.7887   17.6170   22.8133 C   0  0  0  0  0  0  0  0  0  0  0  0
   17.7873   17.1683   22.8387 H   0  0  0  0  0  0  0  0  0  0  0  0
   19.4889   16.9059   23.2725 H   0  0  0  0  0  0  0  0  0  0  0  0
   19.2277   17.9433   21.3702 C   0  0  0  0  0  0  0  0  0  0  0  0
   18.3581   17.9174   20.6973 H   0  0  0  0  0  0  0  0  0  0  0  0
   19.8031   19.3742   21.4042 C   0  0  0  0  0  0  0  0  0  0  0  0
   20.7698   19.4471   20.8882 H   0  0  0  0  0  0  0  0  0  0  0  0
   19.1036   20.0535   20.8998 H   0  0  0  0  0  0  0  0  0  0  0  0
   20.2244   17.0237   20.9404 O   0  0  0  0  0  0  0  0  0  0  0  0
   19.8096   16.1353   20.9484 H   0  0  0  0  0  0  0  0  0  0  0  0
  1  2  1  0  0  0  0
  1  3  1  0  0  0  0
  1  4  1  0  0  0  0
  4  5  1  0  0  0  0
  4  6  1  0  0  0  0
  4  7  1  0  0  0  0
  7  8  1  0  0  0  0
  7  9  1  0  0  0  0
  7 10  1  0  0  0  0
 10 11  1  0  0  0  0
  1 12  1  0  0  0  0
 10 12  1  0  0  0  0
 12 13  1  0  0  0  0
 12 14  1  0  0  0  0
 10 15  1  0  0  0  0
 15 16  1  0  0  0  0
M  END
> <VConfSearch Rank>
412

> <Conf_Id>
59

> <Delta U+W>
0.000

> <U+W>
3.010

> <U>
5.843

> <W>
-2.833

> <W(PB)>
-4.568

> <W(SA)>
1.735

> <Valence>
13.789

> <Coulomb>
-8.574

> <VdW>
0.628

> <VdW6>
-3.284

> <VdW12>
3.912

> <Bond>
0.054

> <Angle>
4.034

> <Pdih>
9.702

> <Idih>
0.000

> <Tether>
0.000

$$$$
VeraChem MOL file


 16 16  0  0  0  0  0  0  0  0999 V2000     
   19.1255   20.0053   22.1776 C   0  0  0  0  0  0  0  0  0  0  0  0
   18.7931   20.8379   22.8125 H   0  0  0  0  0  0  0  0  0  0  0  0
   19.3773   20.4082   21.1867 H   0  0  0  0  0  0  0  0  0  0  0  0
   18.0539   18.9159   22.0348 C   0  0  0  0  0  0  0  0  0  0  0  0
   17.5487   18.7675   22.9994 H   0  0  0  0  0  0  0  0  0  0  0  0
   17.2938   19.1708   21.2839 H   0  0  0  0  0  0  0  0  0  0  0  0
   18.8424   17.6460   21.6651 C   0  0  0  0  0  0  0  0  0  0  0  0
   18.9293   17.5711   20.5733 H   0  0  0  0  0  0  0  0  0  0  0  0
   18.3381   16.7384   22.0228 H   0  0  0  0  0  0  0  0  0  0  0  0
   20.2512   17.8108   22.2717 C   0  0  0  0  0  0  0  0  0  0  0  0
   21.0058   17.6286   21.4927 H   0  0  0  0  0  0  0  0  0  0  0  0
   20.3436   19.2700   22.7658 C   0  0  0  0  0  0  0  0  0  0  0  0
   20.2939   19.3043   23.8627 H   0  0  0  0  0  0  0  0  0  0  0  0
   21.2850   19.7419   22.4561 H   0  0  0  0  0  0  0  0  0  0  0  0
   20.4246   16.9119   23.3607 O   0  0  0  0  0  0  0  0  0  0  0  0
   21.3266   17.0671   23.7126 H   0  0  0  0  0  0  0  0  0  0  0  0
  1  2  1  0  0  0  0
  1  3  1  0  0  0  0
  1  4  1  0  0  0  0
  4  5  1  0  0  0  0
  4  6  1  0  0  0  0
  4  7  1  0  0  0  0
  7  8  1  0  0  0  0
  7  9  1  0  0  0  0
  7 10  1  0  0  0  0
 10 11  1  0  0  0  0
  1 12  1  0  0  0  0
 10 12  1  0  0  0  0
 12 13  1  0  0  0  0
 12 14  1  0  0  0  0
 10 15  1  0  0  0  0
 15 16  1  0  0  0  0
M  END
> <VConfSearch Rank>
413

> <Conf_Id>
33

> <Delta U+W>
0.015

> <U+W>
3.025

> <U>
5.843

> <W>
-2.819

> <W(PB)>
-4.568

> <W(SA)>
1.750

> <Valence>
13.789

> <Coulomb>
-8.574

> <VdW>
0.628

> <VdW6>
-3.284

> <VdW12>
3.913

> <Bond>
0.054

> <Angle>
4.033

> <Pdih>
9.702

> <Idih>
0.000

> <Tether>
0.000

$$$$
VeraChem MOL file


 16 16  0  0  0  0  0  0  0  0999 V2000     
   18.8961   18.1718   21.0918 C   0  0  0  0  0  0  0  0  0  0  0  0
   17.8646   17.7966   21.1413 H   0  0  0  0  0  0  0  0  0  0  0  0
   19.2321   18.0865   20.0493 H   0  0  0  0  0  0  0  0  0  0  0  0
   19.7971   17.3591   22.0472 C   0  0  0  0  0  0  0  0  0  0  0  0
   19.2019   16.5899   22.5583 H   0  0  0  0  0  0  0  0  0  0  0  0
   20.6051   16.8495   21.5045 H   0  0  0  0  0  0  0  0  0  0  0  0
   20.3649   18.3629   23.0731 C   0  0  0  0  0  0  0  0  0  0  0  0
   21.3731   18.6707   22.7658 H   0  0  0  0  0  0  0  0  0  0  0  0
   20.4396   17.9315   24.0802 H   0  0  0  0  0  0  0  0  0  0  0  0
   19.4367   19.5843   23.0314 C   0  0  0  0  0  0  0  0  0  0  0  0
   19.9665   20.5050   23.3153 H   0  0  0  0  0  0  0  0  0  0  0  0
   18.9543   19.6364   21.5755 C   0  0  0  0  0  0  0  0  0  0  0  0
   17.9868   20.1464   21.4759 H   0  0  0  0  0  0  0  0  0  0  0  0
   19.6880   20.1918   20.9764 H   0  0  0  0  0  0  0  0  0  0  0  0
   18.3247   19.3560   23.8847 O   0  0  0  0  0  0  0  0  0  0  0  0
   17.9202   18.5254   23.5594 H   0  0  0  0  0  0  0  0  0  0  0  0
  1  2  1  0  0  0  0
  1  3  1  0  0  0  0
  1  4  1  0  0  0  0
  4  5  1  0  0  0  0
  4  6  1  0  0  0  0
  4  7  1  0  0  0  0
  7  8  1  0  0  0  0
  7  9  1  0  0  0  0
  7 10  1  0  0  0  0
 10 11  1  0  0  0  0
  1 12  1  0  0  0  0
 10 12  1  0  0  0  0
 12 13  1  0  0  0  0
 12 14  1  0  0  0  0
 10 15  1  0  0  0  0
 15 16  1  0  0  0  0
M  END
> <VConfSearch Rank>
414

> <Conf_Id>
20

> <Delta U+W>
-0.483

> <U+W>
2.527

> <U>
4.508

> <W>
-1.981

> <W(PB)>
-3.712

> <W(SA)>
1.732

> <Valence>
14.705

> <Coulomb>
-10.687

> <VdW>
0.490

> <VdW6>
-3.745

> <VdW12>
4.235

> <Bond>
0.068

> <Angle>
3.901

> <Pdih>
10.737

> <Idih>
0.000

> <Tether>
0.000

$$$$
VeraChem MOL file


 16 16  0  0  0  0  0  0  0  0999 V2000     
   19.9256   19.3245   21.2196 C   0  0  0  0  0  0  0  0  0  0  0  0
   19.6047   18.8018   20.3077 H   0  0  0  0  0  0  0  0  0  0  0  0
   20.4817   20.2241   20.9229 H   0  0  0  0  0  0  0  0  0  0  0  0
   20.7644   18.3765   22.0876 C   0  0  0  0  0  0  0  0  0  0  0  0
   21.4391   17.7490   21.4894 H   0  0  0  0  0  0  0  0  0  0  0  0
   21.3729   18.9611   22.7916 H   0  0  0  0  0  0  0  0  0  0  0  0
   19.7250   17.5460   22.8625 C   0  0  0  0  0  0  0  0  0  0  0  0
   20.1152   17.2223   23.8360 H   0  0  0  0  0  0  0  0  0  0  0  0
   19.4739   16.6468   22.2836 H   0  0  0  0  0  0  0  0  0  0  0  0
   18.4806   18.4450   23.0207 C   0  0  0  0  0  0  0  0  0  0  0  0
   18.4014   18.7988   24.0590 H   0  0  0  0  0  0  0  0  0  0  0  0
   18.6955   19.6530   22.0856 C   0  0  0  0  0  0  0  0  0  0  0  0
   17.8120   19.8652   21.4690 H   0  0  0  0  0  0  0  0  0  0  0  0
   18.9001   20.5440   22.6933 H   0  0  0  0  0  0  0  0  0  0  0  0
   17.3090   17.7328   22.6407 O   0  0  0  0  0  0  0  0  0  0  0  0
   17.2284   16.9747   23.2574 H   0  0  0  0  0  0  0  0  0  0  0  0
  1  2  1  0  0  0  0
  1  3  1  0  0  0  0
  1  4  1  0  0  0  0
  4  5  1  0  0  0  0
  4  6  1  0  0  0  0
  4  7  1  0  0  0  0
  7  8  1  0  0  0  0
  7  9  1  0  0  0  0
  7 10  1  0  0  0  0
 10 11  1  0  0  0  0
  1 12  1  0  0  0  0
 10 12  1  0  0  0  0
 12 13  1  0  0  0  0
 12 14  1  0  0  0  0
 10 15  1  0  0  0  0
 15 16  1  0  0  0  0
M  END
> <VConfSearch Rank>
415

> <Conf_Id>
59

> <Delta U+W>
0.000

> <U+W>
3.010

> <U>
5.843

> <W>
-2.833

> <W(PB)>
-4.568

> <W(SA)>
1.735

> <Valence>
13.789

> <Coulomb>
-8.574

> <VdW>
0.628

> <VdW6>
-3.284

> <VdW12>
3.912

> <Bond>
0.054

> <Angle>
4.034

> <Pdih>
9.702

> <Idih>
0.000

> <Tether>
0.000

$$$$
VeraChem MOL file


 16 16  0  0  0  0  0  0  0  0999 V2000     
   19.8656   19.5421   23.3047 C   0  0  0  0  0  0  0  0  0  0  0  0
   19.4340   20.1107   24.1397 H   0  0  0  0  0  0  0  0  0  0  0  0
   20.9583   19.6531   23.3420 H   0  0  0  0  0  0  0  0  0  0  0  0
   19.3444   20.0191   21.9422 C   0  0  0  0  0  0  0  0  0  0  0  0
   18.2726   20.2494   22.0179 H   0  0  0  0  0  0  0  0  0  0  0  0
   19.8651   20.9179   21.5850 H   0  0  0  0  0  0  0  0  0  0  0  0
   19.5477   18.8120   21.0080 C   0  0  0  0  0  0  0  0  0  0  0  0
   20.5402   18.8694   20.5425 H   0  0  0  0  0  0  0  0  0  0  0  0
   18.8017   18.7942   20.2022 H   0  0  0  0  0  0  0  0  0  0  0  0
   19.4806   17.5524   21.8960 C   0  0  0  0  0  0  0  0  0  0  0  0
   20.3640   16.9257   21.7049 H   0  0  0  0  0  0  0  0  0  0  0  0
   19.4916   18.0495   23.3570 C   0  0  0  0  0  0  0  0  0  0  0  0
   18.4939   17.9404   23.8037 H   0  0  0  0  0  0  0  0  0  0  0  0
   20.2003   17.4797   23.9717 H   0  0  0  0  0  0  0  0  0  0  0  0
   18.2840   16.8295   21.6324 O   0  0  0  0  0  0  0  0  0  0  0  0
   18.2887   16.0509   22.2284 H   0  0  0  0  0  0  0  0  0  0  0  0
  1  2  1  0  0  0  0
  1  3  1  0  0  0  0
  1  4  1  0  0  0  0
  4  5  1  0  0  0  0
  4  6  1  0  0  0  0
  4  7  1  0  0  0  0
  7  8  1  0  0  0  0
  7  9  1  0  0  0  0
  7 10  1  0  0  0  0
 10 11  1  0  0  0  0
  1 12  1  0  0  0  0
 10 12  1  0  0  0  0
 12 13  1  0  0  0  0
 12 14  1  0  0  0  0
 10 15  1  0  0  0  0
 15 16  1  0  0  0  0
M  END
> <VConfSearch Rank>
416

> <Conf_Id>
33

> <Delta U+W>
0.015

> <U+W>
3.025

> <U>
5.843

> <W>
-2.819

> <W(PB)>
-4.568

> <W(SA)>
1.750

> <Valence>
13.789

> <Coulomb>
-8.574

> <VdW>
0.628

> <VdW6>
-3.284

> <VdW12>
3.913

> <Bond>
0.054

> <Angle>
4.033

> <Pdih>
9.702

> <Idih>
0.000

> <Tether>
0.000

$$$$
VeraChem MOL file


 16 16  0  0  0  0  0  0  0  0999 V2000     
   18.7896   17.4585   21.9235 C   0  0  0  0  0  0  0  0  0  0  0  0
   18.2462   17.4890   20.9691 H   0  0  0  0  0  0  0  0  0  0  0  0
   18.6969   16.4410   22.3275 H   0  0  0  0  0  0  0  0  0  0  0  0
   18.2071   18.5097   22.8934 C   0  0  0  0  0  0  0  0  0  0  0  0
   17.3811   19.0483   22.4087 H   0  0  0  0  0  0  0  0  0  0  0  0
   17.8106   18.0422   23.8051 H   0  0  0  0  0  0  0  0  0  0  0  0
   19.3573   19.4843   23.2248 C   0  0  0  0  0  0  0  0  0  0  0  0
   19.8138   19.2009   24.1823 H   0  0  0  0  0  0  0  0  0  0  0  0
   19.0105   20.5224   23.3142 H   0  0  0  0  0  0  0  0  0  0  0  0
   20.3952   19.3125   22.1076 C   0  0  0  0  0  0  0  0  0  0  0  0
   21.4097   19.5521   22.4575 H   0  0  0  0  0  0  0  0  0  0  0  0
   20.2702   17.8366   21.7063 C   0  0  0  0  0  0  0  0  0  0  0  0
   20.5985   17.6570   20.6738 H   0  0  0  0  0  0  0  0  0  0  0  0
   20.9042   17.2321   22.3683 H   0  0  0  0  0  0  0  0  0  0  0  0
   20.0338   20.1295   21.0037 O   0  0  0  0  0  0  0  0  0  0  0  0
   19.1270   19.8477   20.7642 H   0  0  0  0  0  0  0  0  0  0  0  0
  1  2  1  0  0  0  0
  1  3  1  0  0  0  0
  1  4  1  0  0  0  0
  4  5  1  0  0  0  0
  4  6  1  0  0  0  0
  4  7  1  0  0  0  0
  7  8  1  0  0  0  0
  7  9  1  0  0  0  0
  7 10  1  0  0  0  0
 10 11  1  0  0  0  0
  1 12  1  0  0  0  0
 10 12  1  0  0  0  0
 12 13  1  0  0  0  0
 12 14  1  0  0  0  0
 10 15  1  0  0  0  0
 15 16  1  0  0  0  0
M  END
> <VConfSearch Rank>
417

> <Conf_Id>
20

> <Delta U+W>
-0.483

> <U+W>
2.527

> <U>
4.508

> <W>
-1.981

> <W(PB)>
-3.712

> <W(SA)>
1.732

> <Valence>
14.705

> <Coulomb>
-10.687

> <VdW>
0.490

> <VdW6>
-3.745

> <VdW12>
4.235

> <Bond>
0.068

> <Angle>
3.901

> <Pdih>
10.737

> <Idih>
0.000

> <Tether>
0.000

$$$$
VeraChem MOL file


 16 16  0  0  0  0  0  0  0  0999 V2000     
   19.1831   19.1621   21.0052 C   0  0  0  0  0  0  0  0  0  0  0  0
   18.8700   18.3384   20.3486 H   0  0  0  0  0  0  0  0  0  0  0  0
   19.1767   20.0910   20.4188 H   0  0  0  0  0  0  0  0  0  0  0  0
   20.5651   18.8518   21.5964 C   0  0  0  0  0  0  0  0  0  0  0  0
   21.2367   18.3820   20.8650 H   0  0  0  0  0  0  0  0  0  0  0  0
   21.0347   19.7816   21.9464 H   0  0  0  0  0  0  0  0  0  0  0  0
   20.2709   17.9331   22.7964 C   0  0  0  0  0  0  0  0  0  0  0  0
   21.0302   18.0430   23.5814 H   0  0  0  0  0  0  0  0  0  0  0  0
   20.2792   16.8863   22.4631 H   0  0  0  0  0  0  0  0  0  0  0  0
   18.8670   18.3205   23.3068 C   0  0  0  0  0  0  0  0  0  0  0  0
   18.9506   18.8801   24.2499 H   0  0  0  0  0  0  0  0  0  0  0  0
   18.2482   19.2318   22.2267 C   0  0  0  0  0  0  0  0  0  0  0  0
   17.2229   18.9351   21.9685 H   0  0  0  0  0  0  0  0  0  0  0  0
   18.2123   20.2617   22.6050 H   0  0  0  0  0  0  0  0  0  0  0  0
   18.0693   17.1556   23.4816 O   0  0  0  0  0  0  0  0  0  0  0  0
   18.5126   16.6114   24.1664 H   0  0  0  0  0  0  0  0  0  0  0  0
  1  2  1  0  0  0  0
  1  3  1  0  0  0  0
  1  4  1  0  0  0  0
  4  5  1  0  0  0  0
  4  6  1  0  0  0  0
  4  7  1  0  0  0  0
  7  8  1  0  0  0  0
  7  9  1  0  0  0  0
  7 10  1  0  0  0  0
 10 11  1  0  0  0  0
  1 12  1  0  0  0  0
 10 12  1  0  0  0  0
 12 13  1  0  0  0  0
 12 14  1  0  0  0  0
 10 15  1  0  0  0  0
 15 16  1  0  0  0  0
M  END
> <VConfSearch Rank>
418

> <Conf_Id>
59

> <Delta U+W>
0.000

> <U+W>
3.010

> <U>
5.843

> <W>
-2.833

> <W(PB)>
-4.568

> <W(SA)>
1.735

> <Valence>
13.789

> <Coulomb>
-8.574

> <VdW>
0.628

> <VdW6>
-3.284

> <VdW12>
3.912

> <Bond>
0.054

> <Angle>
4.034

> <Pdih>
9.702

> <Idih>
0.000

> <Tether>
0.000

$$$$
VeraChem MOL file


 16 16  0  0  0  0  0  0  0  0999 V2000     
   19.4417   18.1703   23.6581 C   0  0  0  0  0  0  0  0  0  0  0  0
   19.4463   17.2324   24.2300 H   0  0  0  0  0  0  0  0  0  0  0  0
   19.5758   19.0030   24.3626 H   0  0  0  0  0  0  0  0  0  0  0  0
   18.1402   18.3666   22.8687 C   0  0  0  0  0  0  0  0  0  0  0  0
   17.8188   17.4055   22.4436 H   0  0  0  0  0  0  0  0  0  0  0  0
   17.3251   18.7562   23.4936 H   0  0  0  0  0  0  0  0  0  0  0  0
   18.5214   19.3317   21.7311 C   0  0  0  0  0  0  0  0  0  0  0  0
   18.3674   20.3678   22.0597 H   0  0  0  0  0  0  0  0  0  0  0  0
   17.9026   19.1693   20.8385 H   0  0  0  0  0  0  0  0  0  0  0  0
   20.0223   19.1107   21.4512 C   0  0  0  0  0  0  0  0  0  0  0  0
   20.5416   20.0800   21.4680 H   0  0  0  0  0  0  0  0  0  0  0  0
   20.5484   18.2097   22.5884 C   0  0  0  0  0  0  0  0  0  0  0  0
   20.7294   17.1925   22.2153 H   0  0  0  0  0  0  0  0  0  0  0  0
   21.4917   18.5903   23.0010 H   0  0  0  0  0  0  0  0  0  0  0  0
   20.1974   18.4674   20.1944 O   0  0  0  0  0  0  0  0  0  0  0  0
   21.1625   18.3426   20.0744 H   0  0  0  0  0  0  0  0  0  0  0  0
  1  2  1  0  0  0  0
  1  3  1  0  0  0  0
  1  4  1  0  0  0  0
  4  5  1  0  0  0  0
  4  6  1  0  0  0  0
  4  7  1  0  0  0  0
  7  8  1  0  0  0  0
  7  9  1  0  0  0  0
  7 10  1  0  0  0  0
 10 11  1  0  0  0  0
  1 12  1  0  0  0  0
 10 12  1  0  0  0  0
 12 13  1  0  0  0  0
 12 14  1  0  0  0  0
 10 15  1  0  0  0  0
 15 16  1  0  0  0  0
M  END
> <VConfSearch Rank>
419

> <Conf_Id>
33

> <Delta U+W>
0.015

> <U+W>
3.025

> <U>
5.843

> <W>
-2.819

> <W(PB)>
-4.568

> <W(SA)>
1.750

> <Valence>
13.789

> <Coulomb>
-8.574

> <VdW>
0.628

> <VdW6>
-3.284

> <VdW12>
3.913

> <Bond>
0.054

> <Angle>
4.033

> <Pdih>
9.702

> <Idih>
0.000

> <Tether>
0.000

$$$$
VeraChem MOL file


 16 16  0  0  0  0  0  0  0  0999 V2000     
   18.1291   19.0239   22.0269 C   0  0  0  0  0  0  0  0  0  0  0  0
   17.9127   19.2412   20.9718 H   0  0  0  0  0  0  0  0  0  0  0  0
   17.2089   19.2032   22.5997 H   0  0  0  0  0  0  0  0  0  0  0  0
   19.2882   19.9173   22.5202 C   0  0  0  0  0  0  0  0  0  0  0  0
   19.6321   20.5677   21.7041 H   0  0  0  0  0  0  0  0  0  0  0  0
   18.9745   20.5633   23.3516 H   0  0  0  0  0  0  0  0  0  0  0  0
   20.4211   18.9637   22.9554 C   0  0  0  0  0  0  0  0  0  0  0  0
   20.3828   18.8210   24.0435 H   0  0  0  0  0  0  0  0  0  0  0  0
   21.4154   19.3568   22.7048 H   0  0  0  0  0  0  0  0  0  0  0  0
   20.1359   17.6223   22.2666 C   0  0  0  0  0  0  0  0  0  0  0  0
   20.5426   16.7778   22.8414 H   0  0  0  0  0  0  0  0  0  0  0  0
   18.6047   17.5639   22.1838 C   0  0  0  0  0  0  0  0  0  0  0  0
   18.2566   16.9223   21.3633 H   0  0  0  0  0  0  0  0  0  0  0  0
   18.2125   17.1491   23.1217 H   0  0  0  0  0  0  0  0  0  0  0  0
   20.6747   17.6473   20.9529 O   0  0  0  0  0  0  0  0  0  0  0  0
   20.2600   18.4230   20.5221 H   0  0  0  0  0  0  0  0  0  0  0  0
  1  2  1  0  0  0  0
  1  3  1  0  0  0  0
  1  4  1  0  0  0  0
  4  5  1  0  0  0  0
  4  6  1  0  0  0  0
  4  7  1  0  0  0  0
  7  8  1  0  0  0  0
  7  9  1  0  0  0  0
  7 10  1  0  0  0  0
 10 11  1  0  0  0  0
  1 12  1  0  0  0  0
 10 12  1  0  0  0  0
 12 13  1  0  0  0  0
 12 14  1  0  0  0  0
 10 15  1  0  0  0  0
 15 16  1  0  0  0  0
M  END
> <VConfSearch Rank>
420

> <Conf_Id>
20

> <Delta U+W>
-0.483

> <U+W>
2.527

> <U>
4.508

> <W>
-1.981

> <W(PB)>
-3.712

> <W(SA)>
1.732

> <Valence>
14.705

> <Coulomb>
-10.687

> <VdW>
0.490

> <VdW6>
-3.745

> <VdW12>
4.235

> <Bond>
0.068

> <Angle>
3.901

> <Pdih>
10.737

> <Idih>
0.000

> <Tether>
0.000

$$$$
VeraChem MOL file


 16 16  0  0  0  0  0  0  0  0999 V2000     
   18.8485   19.9147   22.3666 C   0  0  0  0  0  0  0  0  0  0  0  0
   18.4291   20.0999   21.3678 H   0  0  0  0  0  0  0  0  0  0  0  0
   18.6581   20.7994   22.9892 H   0  0  0  0  0  0  0  0  0  0  0  0
   20.3446   19.5946   22.2449 C   0  0  0  0  0  0  0  0  0  0  0  0
   20.8457   20.2186   21.4924 H   0  0  0  0  0  0  0  0  0  0  0  0
   20.8381   19.7605   23.2126 H   0  0  0  0  0  0  0  0  0  0  0  0
   20.3883   18.0975   21.8878 C   0  0  0  0  0  0  0  0  0  0  0  0
   21.3057   17.6231   22.2594 H   0  0  0  0  0  0  0  0  0  0  0  0
   20.3682   17.9839   20.7954 H   0  0  0  0  0  0  0  0  0  0  0  0
   19.1282   17.4641   22.5145 C   0  0  0  0  0  0  0  0  0  0  0  0
   19.4057   16.8661   23.3949 H   0  0  0  0  0  0  0  0  0  0  0  0
   18.2276   18.6355   22.9576 C   0  0  0  0  0  0  0  0  0  0  0  0
   17.1859   18.5055   22.6350 H   0  0  0  0  0  0  0  0  0  0  0  0
   18.2324   18.6961   24.0537 H   0  0  0  0  0  0  0  0  0  0  0  0
   18.4524   16.6617   21.5536 O   0  0  0  0  0  0  0  0  0  0  0  0
   19.0712   15.9443   21.3010 H   0  0  0  0  0  0  0  0  0  0  0  0
  1  2  1  0  0  0  0
  1  3  1  0  0  0  0
  1  4  1  0  0  0  0
  4  5  1  0  0  0  0
  4  6  1  0  0  0  0
  4  7  1  0  0  0  0
  7  8  1  0  0  0  0
  7  9  1  0  0  0  0
  7 10  1  0  0  0  0
 10 11  1  0  0  0  0
  1 12  1  0  0  0  0
 10 12  1  0  0  0  0
 12 13  1  0  0  0  0
 12 14  1  0  0  0  0
 10 15  1  0  0  0  0
 15 16  1  0  0  0  0
M  END
> <VConfSearch Rank>
421

> <Conf_Id>
59

> <Delta U+W>
0.000

> <U+W>
3.010

> <U>
5.843

> <W>
-2.833

> <W(PB)>
-4.568

> <W(SA)>
1.735

> <Valence>
13.789

> <Coulomb>
-8.574

> <VdW>
0.628

> <VdW6>
-3.284

> <VdW12>
3.912

> <Bond>
0.054

> <Angle>
4.034

> <Pdih>
9.702

> <Idih>
0.000

> <Tether>
0.000

$$$$
VeraChem MOL file


 16 16  0  0  0  0  0  0  0  0999 V2000     
   19.3528   18.6706   23.7232 C   0  0  0  0  0  0  0  0  0  0  0  0
   19.2760   19.4200   24.5228 H   0  0  0  0  0  0  0  0  0  0  0  0
   19.1996   17.6772   24.1675 H   0  0  0  0  0  0  0  0  0  0  0  0
   20.7117   18.7137   23.0110 C   0  0  0  0  0  0  0  0  0  0  0  0
   21.0278   19.7585   22.8838 H   0  0  0  0  0  0  0  0  0  0  0  0
   21.4948   18.1827   23.5690 H   0  0  0  0  0  0  0  0  0  0  0  0
   20.4437   18.0844   21.6314 C   0  0  0  0  0  0  0  0  0  0  0  0
   20.6108   17.0006   21.6821 H   0  0  0  0  0  0  0  0  0  0  0  0
   21.1165   18.4904   20.8643 H   0  0  0  0  0  0  0  0  0  0  0  0
   18.9589   18.3499   21.3079 C   0  0  0  0  0  0  0  0  0  0  0  0
   18.4738   17.4041   21.0257 H   0  0  0  0  0  0  0  0  0  0  0  0
   18.3245   18.9036   22.6012 C   0  0  0  0  0  0  0  0  0  0  0  0
   18.1342   19.9809   22.5008 H   0  0  0  0  0  0  0  0  0  0  0  0
   17.3689   18.4118   22.8244 H   0  0  0  0  0  0  0  0  0  0  0  0
   18.8485   19.3048   20.2591 O   0  0  0  0  0  0  0  0  0  0  0  0
   17.8901   19.4426   20.1040 H   0  0  0  0  0  0  0  0  0  0  0  0
  1  2  1  0  0  0  0
  1  3  1  0  0  0  0
  1  4  1  0  0  0  0
  4  5  1  0  0  0  0
  4  6  1  0  0  0  0
  4  7  1  0  0  0  0
  7  8  1  0  0  0  0
  7  9  1  0  0  0  0
  7 10  1  0  0  0  0
 10 11  1  0  0  0  0
  1 12  1  0  0  0  0
 10 12  1  0  0  0  0
 12 13  1  0  0  0  0
 12 14  1  0  0  0  0
 10 15  1  0  0  0  0
 15 16  1  0  0  0  0
M  END
> <VConfSearch Rank>
422

> <Conf_Id>
33

> <Delta U+W>
0.015

> <U+W>
3.025

> <U>
5.843

> <W>
-2.819

> <W(PB)>
-4.568

> <W(SA)>
1.750

> <Valence>
13.789

> <Coulomb>
-8.574

> <VdW>
0.628

> <VdW6>
-3.284

> <VdW12>
3.913

> <Bond>
0.054

> <Angle>
4.033

> <Pdih>
9.702

> <Idih>
0.000

> <Tether>
0.000

$$$$
VeraChem MOL file


 16 16  0  0  0  0  0  0  0  0999 V2000     
   20.4472   19.0915   21.6174 C   0  0  0  0  0  0  0  0  0  0  0  0
   21.2045   19.5401   22.2750 H   0  0  0  0  0  0  0  0  0  0  0  0
   20.8187   19.1605   20.5857 H   0  0  0  0  0  0  0  0  0  0  0  0
   19.1011   19.8293   21.7867 C   0  0  0  0  0  0  0  0  0  0  0  0
   19.2072   20.6356   22.5255 H   0  0  0  0  0  0  0  0  0  0  0  0
   18.7679   20.2834   20.8434 H   0  0  0  0  0  0  0  0  0  0  0  0
   18.0861   18.7790   22.2858 C   0  0  0  0  0  0  0  0  0  0  0  0
   17.5014   18.4015   21.4366 H   0  0  0  0  0  0  0  0  0  0  0  0
   17.3815   19.1961   23.0177 H   0  0  0  0  0  0  0  0  0  0  0  0
   18.9172   17.6285   22.8694 C   0  0  0  0  0  0  0  0  0  0  0  0
   18.3831   16.6696   22.8035 H   0  0  0  0  0  0  0  0  0  0  0  0
   20.1948   17.6228   22.0193 C   0  0  0  0  0  0  0  0  0  0  0  0
   21.0483   17.1850   22.5540 H   0  0  0  0  0  0  0  0  0  0  0  0
   20.0206   17.0205   21.1179 H   0  0  0  0  0  0  0  0  0  0  0  0
   19.2527   17.9300   24.2160 O   0  0  0  0  0  0  0  0  0  0  0  0
   19.7193   18.7902   24.1758 H   0  0  0  0  0  0  0  0  0  0  0  0
  1  2  1  0  0  0  0
  1  3  1  0  0  0  0
  1  4  1  0  0  0  0
  4  5  1  0  0  0  0
  4  6  1  0  0  0  0
  4  7  1  0  0  0  0
  7  8  1  0  0  0  0
  7  9  1  0  0  0  0
  7 10  1  0  0  0  0
 10 11  1  0  0  0  0
  1 12  1  0  0  0  0
 10 12  1  0  0  0  0
 12 13  1  0  0  0  0
 12 14  1  0  0  0  0
 10 15  1  0  0  0  0
 15 16  1  0  0  0  0
M  END
> <VConfSearch Rank>
423

> <Conf_Id>
20

> <Delta U+W>
-0.483

> <U+W>
2.527

> <U>
4.508

> <W>
-1.981

> <W(PB)>
-3.712

> <W(SA)>
1.732

> <Valence>
14.705

> <Coulomb>
-10.687

> <VdW>
0.490

> <VdW6>
-3.745

> <VdW12>
4.235

> <Bond>
0.068

> <Angle>
3.901

> <Pdih>
10.737

> <Idih>
0.000

> <Tether>
0.000

$$$$
VeraChem MOL file


 16 16  0  0  0  0  0  0  0  0999 V2000     
   20.0785   17.3527   21.9251 C   0  0  0  0  0  0  0  0  0  0  0  0
   20.8166   17.1928   22.7234 H   0  0  0  0  0  0  0  0  0  0  0  0
   20.1570   16.5207   21.2122 H   0  0  0  0  0  0  0  0  0  0  0  0
   20.3232   18.7161   21.2640 C   0  0  0  0  0  0  0  0  0  0  0  0
   21.3927   18.9356   21.1421 H   0  0  0  0  0  0  0  0  0  0  0  0
   19.8532   18.7350   20.2708 H   0  0  0  0  0  0  0  0  0  0  0  0
   19.6204   19.7236   22.1921 C   0  0  0  0  0  0  0  0  0  0  0  0
   19.2684   20.6026   21.6369 H   0  0  0  0  0  0  0  0  0  0  0  0
   20.3296   20.0692   22.9566 H   0  0  0  0  0  0  0  0  0  0  0  0
   18.4506   18.9638   22.8525 C   0  0  0  0  0  0  0  0  0  0  0  0
   17.4956   19.2893   22.4148 H   0  0  0  0  0  0  0  0  0  0  0  0
   18.6715   17.4694   22.5396 C   0  0  0  0  0  0  0  0  0  0  0  0
   18.5659   16.8369   23.4311 H   0  0  0  0  0  0  0  0  0  0  0  0
   17.9215   17.1424   21.8077 H   0  0  0  0  0  0  0  0  0  0  0  0
   18.4585   19.1770   24.2590 O   0  0  0  0  0  0  0  0  0  0  0  0
   18.3262   20.1385   24.3985 H   0  0  0  0  0  0  0  0  0  0  0  0
  1  2  1  0  0  0  0
  1  3  1  0  0  0  0
  1  4  1  0  0  0  0
  4  5  1  0  0  0  0
  4  6  1  0  0  0  0
  4  7  1  0  0  0  0
  7  8  1  0  0  0  0
  7  9  1  0  0  0  0
  7 10  1  0  0  0  0
 10 11  1  0  0  0  0
  1 12  1  0  0  0  0
 10 12  1  0  0  0  0
 12 13  1  0  0  0  0
 12 14  1  0  0  0  0
 10 15  1  0  0  0  0
 15 16  1  0  0  0  0
M  END
> <VConfSearch Rank>
424

> <Conf_Id>
59

> <Delta U+W>
0.000

> <U+W>
3.010

> <U>
5.843

> <W>
-2.833

> <W(PB)>
-4.568

> <W(SA)>
1.735

> <Valence>
13.789

> <Coulomb>
-8.574

> <VdW>
0.628

> <VdW6>
-3.284

> <VdW12>
3.912

> <Bond>
0.054

> <Angle>
4.034

> <Pdih>
9.702

> <Idih>
0.000

> <Tether>
0.000

$$$$
VeraChem MOL file


 16 16  0  0  0  0  0  0  0  0999 V2000     
   19.2786   17.2267   22.6254 C   0  0  0  0  0  0  0  0  0  0  0  0
   19.5057   16.5327   23.4461 H   0  0  0  0  0  0  0  0  0  0  0  0
   18.6343   16.7060   21.9034 H   0  0  0  0  0  0  0  0  0  0  0  0
   20.5449   17.7294   21.9185 C   0  0  0  0  0  0  0  0  0  0  0  0
   21.3310   17.9199   22.6625 H   0  0  0  0  0  0  0  0  0  0  0  0
   20.9314   17.0074   21.1865 H   0  0  0  0  0  0  0  0  0  0  0  0
   20.1201   19.0578   21.2657 C   0  0  0  0  0  0  0  0  0  0  0  0
   19.7441   18.8665   20.2522 H   0  0  0  0  0  0  0  0  0  0  0  0
   20.9640   19.7555   21.1825 H   0  0  0  0  0  0  0  0  0  0  0  0
   18.9740   19.6252   22.1286 C   0  0  0  0  0  0  0  0  0  0  0  0
   18.1202   19.8729   21.4812 H   0  0  0  0  0  0  0  0  0  0  0  0
   18.5804   18.5077   23.1175 C   0  0  0  0  0  0  0  0  0  0  0  0
   18.9368   18.7505   24.1278 H   0  0  0  0  0  0  0  0  0  0  0  0
   17.4915   18.3774   23.1664 H   0  0  0  0  0  0  0  0  0  0  0  0
   19.4178   20.7752   22.8387 O   0  0  0  0  0  0  0  0  0  0  0  0
   18.6578   21.0850   23.3753 H   0  0  0  0  0  0  0  0  0  0  0  0
  1  2  1  0  0  0  0
  1  3  1  0  0  0  0
  1  4  1  0  0  0  0
  4  5  1  0  0  0  0
  4  6  1  0  0  0  0
  4  7  1  0  0  0  0
  7  8  1  0  0  0  0
  7  9  1  0  0  0  0
  7 10  1  0  0  0  0
 10 11  1  0  0  0  0
  1 12  1  0  0  0  0
 10 12  1  0  0  0  0
 12 13  1  0  0  0  0
 12 14  1  0  0  0  0
 10 15  1  0  0  0  0
 15 16  1  0  0  0  0
M  END
> <VConfSearch Rank>
425

> <Conf_Id>
33

> <Delta U+W>
0.015

> <U+W>
3.025

> <U>
5.843

> <W>
-2.819

> <W(PB)>
-4.568

> <W(SA)>
1.750

> <Valence>
13.789

> <Coulomb>
-8.574

> <VdW>
0.628

> <VdW6>
-3.284

> <VdW12>
3.913

> <Bond>
0.054

> <Angle>
4.033

> <Pdih>
9.702

> <Idih>
0.000

> <Tether>
0.000

$$$$
VeraChem MOL file


 16 16  0  0  0  0  0  0  0  0999 V2000     
   19.8812   19.2835   23.2967 C   0  0  0  0  0  0  0  0  0  0  0  0
   20.3302   18.6484   24.0727 H   0  0  0  0  0  0  0  0  0  0  0  0
   20.0000   20.3292   23.6120 H   0  0  0  0  0  0  0  0  0  0  0  0
   18.3939   18.9123   23.1096 C   0  0  0  0  0  0  0  0  0  0  0  0
   18.1228   18.0981   23.7958 H   0  0  0  0  0  0  0  0  0  0  0  0
   17.7347   19.7641   23.3261 H   0  0  0  0  0  0  0  0  0  0  0  0
   18.2392   18.4492   21.6454 C   0  0  0  0  0  0  0  0  0  0  0  0
   17.8630   19.2810   21.0353 H   0  0  0  0  0  0  0  0  0  0  0  0
   17.5321   17.6149   21.5452 H   0  0  0  0  0  0  0  0  0  0  0  0
   19.6488   18.0773   21.1659 C   0  0  0  0  0  0  0  0  0  0  0  0
   19.7533   18.2053   20.0789 H   0  0  0  0  0  0  0  0  0  0  0  0
   20.5692   19.0320   21.9381 C   0  0  0  0  0  0  0  0  0  0  0  0
   21.5841   18.6287   22.0537 H   0  0  0  0  0  0  0  0  0  0  0  0
   20.6464   19.9776   21.3853 H   0  0  0  0  0  0  0  0  0  0  0  0
   19.9352   16.7400   21.5485 O   0  0  0  0  0  0  0  0  0  0  0  0
   19.8176   16.7223   22.5206 H   0  0  0  0  0  0  0  0  0  0  0  0
  1  2  1  0  0  0  0
  1  3  1  0  0  0  0
  1  4  1  0  0  0  0
  4  5  1  0  0  0  0
  4  6  1  0  0  0  0
  4  7  1  0  0  0  0
  7  8  1  0  0  0  0
  7  9  1  0  0  0  0
  7 10  1  0  0  0  0
 10 11  1  0  0  0  0
  1 12  1  0  0  0  0
 10 12  1  0  0  0  0
 12 13  1  0  0  0  0
 12 14  1  0  0  0  0
 10 15  1  0  0  0  0
 15 16  1  0  0  0  0
M  END
> <VConfSearch Rank>
426

> <Conf_Id>
20

> <Delta U+W>
-0.483

> <U+W>
2.527

> <U>
4.508

> <W>
-1.981

> <W(PB)>
-3.712

> <W(SA)>
1.732

> <Valence>
14.705

> <Coulomb>
-10.687

> <VdW>
0.490

> <VdW6>
-3.745

> <VdW12>
4.235

> <Bond>
0.068

> <Angle>
3.901

> <Pdih>
10.737

> <Idih>
0.000

> <Tether>
0.000

$$$$
VeraChem MOL file


 16 16  0  0  0  0  0  0  0  0999 V2000     
   18.8497   19.3508   23.4189 C   0  0  0  0  0  0  0  0  0  0  0  0
   19.7441   19.7557   23.9127 H   0  0  0  0  0  0  0  0  0  0  0  0
   17.9635   19.7576   23.9247 H   0  0  0  0  0  0  0  0  0  0  0  0
   18.8925   17.8169   23.4545 C   0  0  0  0  0  0  0  0  0  0  0  0
   19.2741   17.4315   24.4098 H   0  0  0  0  0  0  0  0  0  0  0  0
   17.8811   17.4153   23.3014 H   0  0  0  0  0  0  0  0  0  0  0  0
   19.7917   17.4311   22.2658 C   0  0  0  0  0  0  0  0  0  0  0  0
   19.5179   16.4496   21.8577 H   0  0  0  0  0  0  0  0  0  0  0  0
   20.8359   17.3772   22.6026 H   0  0  0  0  0  0  0  0  0  0  0  0
   19.6260   18.5487   21.2144 C   0  0  0  0  0  0  0  0  0  0  0  0
   19.0175   18.1866   20.3729 H   0  0  0  0  0  0  0  0  0  0  0  0
   18.8842   19.7026   21.9202 C   0  0  0  0  0  0  0  0  0  0  0  0
   19.3628   20.6752   21.7442 H   0  0  0  0  0  0  0  0  0  0  0  0
   17.8591   19.7599   21.5315 H   0  0  0  0  0  0  0  0  0  0  0  0
   20.9005   18.9893   20.7613 O   0  0  0  0  0  0  0  0  0  0  0  0
   21.3291   18.2179   20.3338 H   0  0  0  0  0  0  0  0  0  0  0  0
  1  2  1  0  0  0  0
  1  3  1  0  0  0  0
  1  4  1  0  0  0  0
  4  5  1  0  0  0  0
  4  6  1  0  0  0  0
  4  7  1  0  0  0  0
  7  8  1  0  0  0  0
  7  9  1  0  0  0  0
  7 10  1  0  0  0  0
 10 11  1  0  0  0  0
  1 12  1  0  0  0  0
 10 12  1  0  0  0  0
 12 13  1  0  0  0  0
 12 14  1  0  0  0  0
 10 15  1  0  0  0  0
 15 16  1  0  0  0  0
M  END
> <VConfSearch Rank>
427

> <Conf_Id>
59

> <Delta U+W>
0.000

> <U+W>
3.010

> <U>
5.843

> <W>
-2.833

> <W(PB)>
-4.568

> <W(SA)>
1.735

> <Valence>
13.789

> <Coulomb>
-8.574

> <VdW>
0.628

> <VdW6>
-3.284

> <VdW12>
3.912

> <Bond>
0.054

> <Angle>
4.034

> <Pdih>
9.702

> <Idih>
0.000

> <Tether>
0.000

$$$$
VeraChem MOL file


 16 16  0  0  0  0  0  0  0  0999 V2000     
   19.4050   19.0379   23.6625 C   0  0  0  0  0  0  0  0  0  0  0  0
   19.7926   18.7312   24.6436 H   0  0  0  0  0  0  0  0  0  0  0  0
   18.9323   20.0238   23.7727 H   0  0  0  0  0  0  0  0  0  0  0  0
   18.3871   18.0375   23.0980 C   0  0  0  0  0  0  0  0  0  0  0  0
   18.7180   17.0125   23.3165 H   0  0  0  0  0  0  0  0  0  0  0  0
   17.3841   18.1736   23.5246 H   0  0  0  0  0  0  0  0  0  0  0  0
   18.4160   18.2754   21.5769 C   0  0  0  0  0  0  0  0  0  0  0  0
   17.6732   19.0380   21.3091 H   0  0  0  0  0  0  0  0  0  0  0  0
   18.1713   17.3611   21.0200 H   0  0  0  0  0  0  0  0  0  0  0  0
   19.8251   18.8060   21.2414 C   0  0  0  0  0  0  0  0  0  0  0  0
   19.7346   19.7297   20.6515 H   0  0  0  0  0  0  0  0  0  0  0  0
   20.5093   19.1064   22.5917 C   0  0  0  0  0  0  0  0  0  0  0  0
   21.2732   18.3474   22.8086 H   0  0  0  0  0  0  0  0  0  0  0  0
   21.0013   20.0876   22.5852 H   0  0  0  0  0  0  0  0  0  0  0  0
   20.5623   17.8219   20.5258 O   0  0  0  0  0  0  0  0  0  0  0  0
   21.4473   18.2059   20.3502 H   0  0  0  0  0  0  0  0  0  0  0  0
  1  2  1  0  0  0  0
  1  3  1  0  0  0  0
  1  4  1  0  0  0  0
  4  5  1  0  0  0  0
  4  6  1  0  0  0  0
  4  7  1  0  0  0  0
  7  8  1  0  0  0  0
  7  9  1  0  0  0  0
  7 10  1  0  0  0  0
 10 11  1  0  0  0  0
  1 12  1  0  0  0  0
 10 12  1  0  0  0  0
 12 13  1  0  0  0  0
 12 14  1  0  0  0  0
 10 15  1  0  0  0  0
 15 16  1  0  0  0  0
M  END
> <VConfSearch Rank>
428

> <Conf_Id>
33

> <Delta U+W>
0.015

> <U+W>
3.025

> <U>
5.843

> <W>
-2.819

> <W(PB)>
-4.568

> <W(SA)>
1.750

> <Valence>
13.789

> <Coulomb>
-8.574

> <VdW>
0.628

> <VdW6>
-3.284

> <VdW12>
3.913

> <Bond>
0.054

> <Angle>
4.033

> <Pdih>
9.702

> <Idih>
0.000

> <Tether>
0.000

$$$$
VeraChem MOL file


 16 16  0  0  0  0  0  0  0  0999 V2000     
   18.5944   18.7720   21.1884 C   0  0  0  0  0  0  0  0  0  0  0  0
   19.1016   18.6091   20.2274 H   0  0  0  0  0  0  0  0  0  0  0  0
   17.5442   19.0133   20.9742 H   0  0  0  0  0  0  0  0  0  0  0  0
   19.2919   19.9107   21.9641 C   0  0  0  0  0  0  0  0  0  0  0  0
   20.1360   20.2997   21.3781 H   0  0  0  0  0  0  0  0  0  0  0  0
   18.6063   20.7473   22.1566 H   0  0  0  0  0  0  0  0  0  0  0  0
   19.7991   19.2938   23.2849 C   0  0  0  0  0  0  0  0  0  0  0  0
   19.0815   19.5064   24.0884 H   0  0  0  0  0  0  0  0  0  0  0  0
   20.7719   19.7029   23.5889 H   0  0  0  0  0  0  0  0  0  0  0  0
   19.8529   17.7778   23.0530 C   0  0  0  0  0  0  0  0  0  0  0  0
   19.7206   17.2200   23.9913 H   0  0  0  0  0  0  0  0  0  0  0  0
   18.7052   17.5100   22.0701 C   0  0  0  0  0  0  0  0  0  0  0  0
   18.8694   16.6007   21.4767 H   0  0  0  0  0  0  0  0  0  0  0  0
   17.7744   17.3756   22.6369 H   0  0  0  0  0  0  0  0  0  0  0  0
   21.0864   17.4428   22.4341 O   0  0  0  0  0  0  0  0  0  0  0  0
   21.1159   17.9814   21.6167 H   0  0  0  0  0  0  0  0  0  0  0  0
  1  2  1  0  0  0  0
  1  3  1  0  0  0  0
  1  4  1  0  0  0  0
  4  5  1  0  0  0  0
  4  6  1  0  0  0  0
  4  7  1  0  0  0  0
  7  8  1  0  0  0  0
  7  9  1  0  0  0  0
  7 10  1  0  0  0  0
 10 11  1  0  0  0  0
  1 12  1  0  0  0  0
 10 12  1  0  0  0  0
 12 13  1  0  0  0  0
 12 14  1  0  0  0  0
 10 15  1  0  0  0  0
 15 16  1  0  0  0  0
M  END
> <VConfSearch Rank>
429

> <Conf_Id>
20

> <Delta U+W>
-0.483

> <U+W>
2.527

> <U>
4.508

> <W>
-1.981

> <W(PB)>
-3.712

> <W(SA)>
1.732

> <Valence>
14.705

> <Coulomb>
-10.687

> <VdW>
0.490

> <VdW6>
-3.745

> <VdW12>
4.235

> <Bond>
0.068

> <Angle>
3.901

> <Pdih>
10.737

> <Idih>
0.000

> <Tether>
0.000

$$$$
VeraChem MOL file


 16 16  0  0  0  0  0  0  0  0999 V2000     
   18.8457   19.3677   21.2236 C   0  0  0  0  0  0  0  0  0  0  0  0
   19.5424   19.1983   20.3909 H   0  0  0  0  0  0  0  0  0  0  0  0
   18.0389   20.0237   20.8693 H   0  0  0  0  0  0  0  0  0  0  0  0
   19.6052   19.9645   22.4164 C   0  0  0  0  0  0  0  0  0  0  0  0
   20.3568   20.7031   22.1061 H   0  0  0  0  0  0  0  0  0  0  0  0
   18.8970   20.4594   23.0955 H   0  0  0  0  0  0  0  0  0  0  0  0
   20.2349   18.7469   23.1176 C   0  0  0  0  0  0  0  0  0  0  0  0
   20.3539   18.9215   24.1947 H   0  0  0  0  0  0  0  0  0  0  0  0
   21.2310   18.5589   22.6942 H   0  0  0  0  0  0  0  0  0  0  0  0
   19.3001   17.5516   22.8365 C   0  0  0  0  0  0  0  0  0  0  0  0
   18.7344   17.2947   23.7439 H   0  0  0  0  0  0  0  0  0  0  0  0
   18.3198   18.0154   21.7392 C   0  0  0  0  0  0  0  0  0  0  0  0
   18.2258   17.2820   20.9272 H   0  0  0  0  0  0  0  0  0  0  0  0
   17.3248   18.1518   22.1825 H   0  0  0  0  0  0  0  0  0  0  0  0
   20.0544   16.4350   22.3803 O   0  0  0  0  0  0  0  0  0  0  0  0
   20.6643   16.1913   23.1085 H   0  0  0  0  0  0  0  0  0  0  0  0
  1  2  1  0  0  0  0
  1  3  1  0  0  0  0
  1  4  1  0  0  0  0
  4  5  1  0  0  0  0
  4  6  1  0  0  0  0
  4  7  1  0  0  0  0
  7  8  1  0  0  0  0
  7  9  1  0  0  0  0
  7 10  1  0  0  0  0
 10 11  1  0  0  0  0
  1 12  1  0  0  0  0
 10 12  1  0  0  0  0
 12 13  1  0  0  0  0
 12 14  1  0  0  0  0
 10 15  1  0  0  0  0
 15 16  1  0  0  0  0
M  END
> <VConfSearch Rank>
430

> <Conf_Id>
59

> <Delta U+W>
0.000

> <U+W>
3.010

> <U>
5.843

> <W>
-2.833

> <W(PB)>
-4.568

> <W(SA)>
1.735

> <Valence>
13.789

> <Coulomb>
-8.574

> <VdW>
0.628

> <VdW6>
-3.284

> <VdW12>
3.912

> <Bond>
0.054

> <Angle>
4.034

> <Pdih>
9.702

> <Idih>
0.000

> <Tether>
0.000

$$$$
VeraChem MOL file


 16 16  0  0  0  0  0  0  0  0999 V2000     
   18.8445   17.3140   22.3702 C   0  0  0  0  0  0  0  0  0  0  0  0
   18.5968   16.5542   23.1239 H   0  0  0  0  0  0  0  0  0  0  0  0
   18.3864   17.0147   21.4172 H   0  0  0  0  0  0  0  0  0  0  0  0
   20.3589   17.4811   22.1851 C   0  0  0  0  0  0  0  0  0  0  0  0
   20.8580   17.4235   23.1625 H   0  0  0  0  0  0  0  0  0  0  0  0
   20.7895   16.7093   21.5328 H   0  0  0  0  0  0  0  0  0  0  0  0
   20.5221   18.8983   21.6055 C   0  0  0  0  0  0  0  0  0  0  0  0
   20.4883   18.8542   20.5091 H   0  0  0  0  0  0  0  0  0  0  0  0
   21.4841   19.3440   21.8920 H   0  0  0  0  0  0  0  0  0  0  0  0
   19.3207   19.7222   22.1131 C   0  0  0  0  0  0  0  0  0  0  0  0
   18.8325   20.2160   21.2602 H   0  0  0  0  0  0  0  0  0  0  0  0
   18.3500   18.7169   22.7679 C   0  0  0  0  0  0  0  0  0  0  0  0
   18.3798   18.8160   23.8615 H   0  0  0  0  0  0  0  0  0  0  0  0
   17.3152   18.8846   22.4422 H   0  0  0  0  0  0  0  0  0  0  0  0
   19.7532   20.6816   23.0703 O   0  0  0  0  0  0  0  0  0  0  0  0
   18.9528   21.1653   23.3650 H   0  0  0  0  0  0  0  0  0  0  0  0
  1  2  1  0  0  0  0
  1  3  1  0  0  0  0
  1  4  1  0  0  0  0
  4  5  1  0  0  0  0
  4  6  1  0  0  0  0
  4  7  1  0  0  0  0
  7  8  1  0  0  0  0
  7  9  1  0  0  0  0
  7 10  1  0  0  0  0
 10 11  1  0  0  0  0
  1 12  1  0  0  0  0
 10 12  1  0  0  0  0
 12 13  1  0  0  0  0
 12 14  1  0  0  0  0
 10 15  1  0  0  0  0
 15 16  1  0  0  0  0
M  END
> <VConfSearch Rank>
431

> <Conf_Id>
33

> <Delta U+W>
0.015

> <U+W>
3.025

> <U>
5.843

> <W>
-2.819

> <W(PB)>
-4.568

> <W(SA)>
1.750

> <Valence>
13.789

> <Coulomb>
-8.574

> <VdW>
0.628

> <VdW6>
-3.284

> <VdW12>
3.913

> <Bond>
0.054

> <Angle>
4.033

> <Pdih>
9.702

> <Idih>
0.000

> <Tether>
0.000

$$$$
VeraChem MOL file


 16 16  0  0  0  0  0  0  0  0999 V2000     
   19.7794   19.6495   21.5205 C   0  0  0  0  0  0  0  0  0  0  0  0
   20.0566   19.3916   20.4891 H   0  0  0  0  0  0  0  0  0  0  0  0
   19.9040   20.7347   21.6378 H   0  0  0  0  0  0  0  0  0  0  0  0
   20.6645   18.8655   22.5139 C   0  0  0  0  0  0  0  0  0  0  0  0
   21.3709   18.2291   21.9633 H   0  0  0  0  0  0  0  0  0  0  0  0
   21.2515   19.5407   23.1516 H   0  0  0  0  0  0  0  0  0  0  0  0
   19.7096   17.9953   23.3585 C   0  0  0  0  0  0  0  0  0  0  0  0
   19.4994   18.4997   24.3109 H   0  0  0  0  0  0  0  0  0  0  0  0
   20.1380   17.0108   23.5892 H   0  0  0  0  0  0  0  0  0  0  0  0
   18.4076   17.8886   22.5533 C   0  0  0  0  0  0  0  0  0  0  0  0
   17.5379   17.7366   23.2086 H   0  0  0  0  0  0  0  0  0  0  0  0
   18.3227   19.2245   21.8029 C   0  0  0  0  0  0  0  0  0  0  0  0
   17.7257   19.1484   20.8843 H   0  0  0  0  0  0  0  0  0  0  0  0
   17.8428   19.9684   22.4525 H   0  0  0  0  0  0  0  0  0  0  0  0
   18.5246   16.8307   21.6131 O   0  0  0  0  0  0  0  0  0  0  0  0
   19.3165   17.0498   21.0802 H   0  0  0  0  0  0  0  0  0  0  0  0
  1  2  1  0  0  0  0
  1  3  1  0  0  0  0
  1  4  1  0  0  0  0
  4  5  1  0  0  0  0
  4  6  1  0  0  0  0
  4  7  1  0  0  0  0
  7  8  1  0  0  0  0
  7  9  1  0  0  0  0
  7 10  1  0  0  0  0
 10 11  1  0  0  0  0
  1 12  1  0  0  0  0
 10 12  1  0  0  0  0
 12 13  1  0  0  0  0
 12 14  1  0  0  0  0
 10 15  1  0  0  0  0
 15 16  1  0  0  0  0
M  END
> <VConfSearch Rank>
432

> <Conf_Id>
20

> <Delta U+W>
-0.483

> <U+W>
2.527

> <U>
4.508

> <W>
-1.981

> <W(PB)>
-3.712

> <W(SA)>
1.732

> <Valence>
14.705

> <Coulomb>
-10.687

> <VdW>
0.490

> <VdW6>
-3.745

> <VdW12>
4.235

> <Bond>
0.068

> <Angle>
3.901

> <Pdih>
10.737

> <Idih>
0.000

> <Tether>
0.000

$$$$
VeraChem MOL file


 16 16  0  0  0  0  0  0  0  0999 V2000     
   18.3494   17.5780   21.9352 C   0  0  0  0  0  0  0  0  0  0  0  0
   18.8825   16.8449   21.3139 H   0  0  0  0  0  0  0  0  0  0  0  0
   17.3111   17.2393   22.0527 H   0  0  0  0  0  0  0  0  0  0  0  0
   18.4434   18.9663   21.2875 C   0  0  0  0  0  0  0  0  0  0  0  0
   18.3447   18.9249   20.1942 H   0  0  0  0  0  0  0  0  0  0  0  0
   17.6459   19.6123   21.6803 H   0  0  0  0  0  0  0  0  0  0  0  0
   19.8159   19.5043   21.7319 C   0  0  0  0  0  0  0  0  0  0  0  0
   19.8154   20.6000   21.7965 H   0  0  0  0  0  0  0  0  0  0  0  0
   20.5769   19.2100   20.9964 H   0  0  0  0  0  0  0  0  0  0  0  0
   20.1151   18.8555   23.0998 C   0  0  0  0  0  0  0  0  0  0  0  0
   19.9962   19.5978   23.9025 H   0  0  0  0  0  0  0  0  0  0  0  0
   19.0733   17.7330   23.2855 C   0  0  0  0  0  0  0  0  0  0  0  0
   19.5311   16.7888   23.6095 H   0  0  0  0  0  0  0  0  0  0  0  0
   18.3535   18.0367   24.0567 H   0  0  0  0  0  0  0  0  0  0  0  0
   21.4295   18.3112   23.1080 O   0  0  0  0  0  0  0  0  0  0  0  0
   22.0458   19.0624   22.9759 H   0  0  0  0  0  0  0  0  0  0  0  0
  1  2  1  0  0  0  0
  1  3  1  0  0  0  0
  1  4  1  0  0  0  0
  4  5  1  0  0  0  0
  4  6  1  0  0  0  0
  4  7  1  0  0  0  0
  7  8  1  0  0  0  0
  7  9  1  0  0  0  0
  7 10  1  0  0  0  0
 10 11  1  0  0  0  0
  1 12  1  0  0  0  0
 10 12  1  0  0  0  0
 12 13  1  0  0  0  0
 12 14  1  0  0  0  0
 10 15  1  0  0  0  0
 15 16  1  0  0  0  0
M  END
> <VConfSearch Rank>
433

> <Conf_Id>
59

> <Delta U+W>
0.000

> <U+W>
3.010

> <U>
5.843

> <W>
-2.833

> <W(PB)>
-4.568

> <W(SA)>
1.735

> <Valence>
13.789

> <Coulomb>
-8.574

> <VdW>
0.628

> <VdW6>
-3.284

> <VdW12>
3.912

> <Bond>
0.054

> <Angle>
4.034

> <Pdih>
9.702

> <Idih>
0.000

> <Tether>
0.000

$$$$
VeraChem MOL file


 16 16  0  0  0  0  0  0  0  0999 V2000     
   19.4214   18.3468   20.8820 C   0  0  0  0  0  0  0  0  0  0  0  0
   18.8837   17.7107   20.1658 H   0  0  0  0  0  0  0  0  0  0  0  0
   20.0388   19.0571   20.3146 H   0  0  0  0  0  0  0  0  0  0  0  0
   20.3111   17.5336   21.8321 C   0  0  0  0  0  0  0  0  0  0  0  0
   19.7905   16.6112   22.1251 H   0  0  0  0  0  0  0  0  0  0  0  0
   21.2705   17.2567   21.3744 H   0  0  0  0  0  0  0  0  0  0  0  0
   20.4878   18.4397   23.0646 C   0  0  0  0  0  0  0  0  0  0  0  0
   21.3731   19.0748   22.9310 H   0  0  0  0  0  0  0  0  0  0  0  0
   20.6337   17.8521   23.9808 H   0  0  0  0  0  0  0  0  0  0  0  0
   19.2331   19.3343   23.1362 C   0  0  0  0  0  0  0  0  0  0  0  0
   19.5415   20.3864   23.2228 H   0  0  0  0  0  0  0  0  0  0  0  0
   18.4671   19.1153   21.8144 C   0  0  0  0  0  0  0  0  0  0  0  0
   17.5672   18.5108   21.9916 H   0  0  0  0  0  0  0  0  0  0  0  0
   18.1513   20.0674   21.3687 H   0  0  0  0  0  0  0  0  0  0  0  0
   18.4224   18.9546   24.2420 O   0  0  0  0  0  0  0  0  0  0  0  0
   17.6392   19.5445   24.2322 H   0  0  0  0  0  0  0  0  0  0  0  0
  1  2  1  0  0  0  0
  1  3  1  0  0  0  0
  1  4  1  0  0  0  0
  4  5  1  0  0  0  0
  4  6  1  0  0  0  0
  4  7  1  0  0  0  0
  7  8  1  0  0  0  0
  7  9  1  0  0  0  0
  7 10  1  0  0  0  0
 10 11  1  0  0  0  0
  1 12  1  0  0  0  0
 10 12  1  0  0  0  0
 12 13  1  0  0  0  0
 12 14  1  0  0  0  0
 10 15  1  0  0  0  0
 15 16  1  0  0  0  0
M  END
> <VConfSearch Rank>
434

> <Conf_Id>
33

> <Delta U+W>
0.015

> <U+W>
3.025

> <U>
5.843

> <W>
-2.819

> <W(PB)>
-4.568

> <W(SA)>
1.750

> <Valence>
13.789

> <Coulomb>
-8.574

> <VdW>
0.628

> <VdW6>
-3.284

> <VdW12>
3.913

> <Bond>
0.054

> <Angle>
4.033

> <Pdih>
9.702

> <Idih>
0.000

> <Tether>
0.000

$$$$
VeraChem MOL file


 16 16  0  0  0  0  0  0  0  0999 V2000     
   18.1112   18.5063   21.8473 C   0  0  0  0  0  0  0  0  0  0  0  0
   17.6062   17.5845   22.1675 H   0  0  0  0  0  0  0  0  0  0  0  0
   17.3870   19.1013   21.2741 H   0  0  0  0  0  0  0  0  0  0  0  0
   19.3552   18.1571   21.0014 C   0  0  0  0  0  0  0  0  0  0  0  0
   19.4516   17.0663   20.9113 H   0  0  0  0  0  0  0  0  0  0  0  0
   19.2821   18.5702   19.9860 H   0  0  0  0  0  0  0  0  0  0  0  0
   20.5720   18.7398   21.7512 C   0  0  0  0  0  0  0  0  0  0  0  0
   20.8412   19.7108   21.3149 H   0  0  0  0  0  0  0  0  0  0  0  0
   21.4532   18.0878   21.6847 H   0  0  0  0  0  0  0  0  0  0  0  0
   20.1155   18.9541   23.2006 C   0  0  0  0  0  0  0  0  0  0  0  0
   20.6734   19.7689   23.6842 H   0  0  0  0  0  0  0  0  0  0  0  0
   18.6229   19.2881   23.0759 C   0  0  0  0  0  0  0  0  0  0  0  0
   18.0639   19.0418   23.9884 H   0  0  0  0  0  0  0  0  0  0  0  0
   18.5124   20.3658   22.8970 H   0  0  0  0  0  0  0  0  0  0  0  0
   20.2644   17.7401   23.9222 O   0  0  0  0  0  0  0  0  0  0  0  0
   19.7397   17.0809   23.4229 H   0  0  0  0  0  0  0  0  0  0  0  0
  1  2  1  0  0  0  0
  1  3  1  0  0  0  0
  1  4  1  0  0  0  0
  4  5  1  0  0  0  0
  4  6  1  0  0  0  0
  4  7  1  0  0  0  0
  7  8  1  0  0  0  0
  7  9  1  0  0  0  0
  7 10  1  0  0  0  0
 10 11  1  0  0  0  0
  1 12  1  0  0  0  0
 10 12  1  0  0  0  0
 12 13  1  0  0  0  0
 12 14  1  0  0  0  0
 10 15  1  0  0  0  0
 15 16  1  0  0  0  0
M  END
> <VConfSearch Rank>
435

> <Conf_Id>
20

> <Delta U+W>
-0.483

> <U+W>
2.527

> <U>
4.508

> <W>
-1.981

> <W(PB)>
-3.712

> <W(SA)>
1.732

> <Valence>
14.705

> <Coulomb>
-10.687

> <VdW>
0.490

> <VdW6>
-3.745

> <VdW12>
4.235

> <Bond>
0.068

> <Angle>
3.901

> <Pdih>
10.737

> <Idih>
0.000

> <Tether>
0.000

$$$$
VeraChem MOL file


 16 16  0  0  0  0  0  0  0  0999 V2000     
   19.9088   17.2391   22.0292 C   0  0  0  0  0  0  0  0  0  0  0  0
   19.4317   16.9288   21.0891 H   0  0  0  0  0  0  0  0  0  0  0  0
   20.6298   16.4636   22.3215 H   0  0  0  0  0  0  0  0  0  0  0  0
   18.8333   17.4728   23.0990 C   0  0  0  0  0  0  0  0  0  0  0  0
   18.0302   16.7246   23.0547 H   0  0  0  0  0  0  0  0  0  0  0  0
   19.2896   17.4283   24.0977 H   0  0  0  0  0  0  0  0  0  0  0  0
   18.3218   18.8985   22.8230 C   0  0  0  0  0  0  0  0  0  0  0  0
   17.9653   19.3817   23.7418 H   0  0  0  0  0  0  0  0  0  0  0  0
   17.4807   18.8525   22.1178 H   0  0  0  0  0  0  0  0  0  0  0  0
   19.5025   19.6706   22.1973 C   0  0  0  0  0  0  0  0  0  0  0  0
   19.9196   20.3778   22.9290 H   0  0  0  0  0  0  0  0  0  0  0  0
   20.5710   18.6165   21.8412 C   0  0  0  0  0  0  0  0  0  0  0  0
   20.9579   18.7432   20.8212 H   0  0  0  0  0  0  0  0  0  0  0  0
   21.4170   18.7162   22.5337 H   0  0  0  0  0  0  0  0  0  0  0  0
   19.0762   20.3530   21.0240 O   0  0  0  0  0  0  0  0  0  0  0  0
   18.3941   20.9984   21.3062 H   0  0  0  0  0  0  0  0  0  0  0  0
  1  2  1  0  0  0  0
  1  3  1  0  0  0  0
  1  4  1  0  0  0  0
  4  5  1  0  0  0  0
  4  6  1  0  0  0  0
  4  7  1  0  0  0  0
  7  8  1  0  0  0  0
  7  9  1  0  0  0  0
  7 10  1  0  0  0  0
 10 11  1  0  0  0  0
  1 12  1  0  0  0  0
 10 12  1  0  0  0  0
 12 13  1  0  0  0  0
 12 14  1  0  0  0  0
 10 15  1  0  0  0  0
 15 16  1  0  0  0  0
M  END
> <VConfSearch Rank>
436

> <Conf_Id>
59

> <Delta U+W>
0.000

> <U+W>
3.010

> <U>
5.843

> <W>
-2.833

> <W(PB)>
-4.568

> <W(SA)>
1.735

> <Valence>
13.789

> <Coulomb>
-8.574

> <VdW>
0.628

> <VdW6>
-3.284

> <VdW12>
3.912

> <Bond>
0.054

> <Angle>
4.034

> <Pdih>
9.702

> <Idih>
0.000

> <Tether>
0.000

$$$$
VeraChem MOL file


 16 16  0  0  0  0  0  0  0  0999 V2000     
   20.4937   19.2892   21.5732 C   0  0  0  0  0  0  0  0  0  0  0  0
   21.5256   19.1132   21.2399 H   0  0  0  0  0  0  0  0  0  0  0  0
   20.1405   20.2249   21.1180 H   0  0  0  0  0  0  0  0  0  0  0  0
   20.3817   19.3838   23.1010 C   0  0  0  0  0  0  0  0  0  0  0  0
   21.0411   18.6375   23.5656 H   0  0  0  0  0  0  0  0  0  0  0  0
   20.6622   20.3753   23.4817 H   0  0  0  0  0  0  0  0  0  0  0  0
   18.9129   19.0327   23.4021 C   0  0  0  0  0  0  0  0  0  0  0  0
   18.3066   19.9478   23.3953 H   0  0  0  0  0  0  0  0  0  0  0  0
   18.8029   18.5667   24.3904 H   0  0  0  0  0  0  0  0  0  0  0  0
   18.4394   18.1072   22.2623 C   0  0  0  0  0  0  0  0  0  0  0  0
   17.5012   18.4984   21.8427 H   0  0  0  0  0  0  0  0  0  0  0  0
   19.5495   18.1348   21.1905 C   0  0  0  0  0  0  0  0  0  0  0  0
   20.1095   17.1897   21.1980 H   0  0  0  0  0  0  0  0  0  0  0  0
   19.1348   18.2729   20.1837 H   0  0  0  0  0  0  0  0  0  0  0  0
   18.2596   16.7825   22.7488 O   0  0  0  0  0  0  0  0  0  0  0  0
   17.9715   16.2391   21.9851 H   0  0  0  0  0  0  0  0  0  0  0  0
  1  2  1  0  0  0  0
  1  3  1  0  0  0  0
  1  4  1  0  0  0  0
  4  5  1  0  0  0  0
  4  6  1  0  0  0  0
  4  7  1  0  0  0  0
  7  8  1  0  0  0  0
  7  9  1  0  0  0  0
  7 10  1  0  0  0  0
 10 11  1  0  0  0  0
  1 12  1  0  0  0  0
 10 12  1  0  0  0  0
 12 13  1  0  0  0  0
 12 14  1  0  0  0  0
 10 15  1  0  0  0  0
 15 16  1  0  0  0  0
M  END
> <VConfSearch Rank>
437

> <Conf_Id>
33

> <Delta U+W>
0.015

> <U+W>
3.025

> <U>
5.843

> <W>
-2.819

> <W(PB)>
-4.568

> <W(SA)>
1.750

> <Valence>
13.789

> <Coulomb>
-8.574

> <VdW>
0.628

> <VdW6>
-3.284

> <VdW12>
3.913

> <Bond>
0.054

> <Angle>
4.033

> <Pdih>
9.702

> <Idih>
0.000

> <Tether>
0.000

$$$$
VeraChem MOL file


 16 16  0  0  0  0  0  0  0  0999 V2000     
   19.2082   18.9412   20.9750 C   0  0  0  0  0  0  0  0  0  0  0  0
   18.1870   19.2573   20.7211 H   0  0  0  0  0  0  0  0  0  0  0  0
   19.8153   19.0107   20.0619 H   0  0  0  0  0  0  0  0  0  0  0  0
   19.1885   17.5024   21.5357 C   0  0  0  0  0  0  0  0  0  0  0  0
   18.1579   17.1218   21.5522 H   0  0  0  0  0  0  0  0  0  0  0  0
   19.7861   16.8194   20.9166 H   0  0  0  0  0  0  0  0  0  0  0  0
   19.7496   17.5844   22.9713 C   0  0  0  0  0  0  0  0  0  0  0  0
   20.8138   17.3140   22.9652 H   0  0  0  0  0  0  0  0  0  0  0  0
   19.2349   16.9003   23.6591 H   0  0  0  0  0  0  0  0  0  0  0  0
   19.6108   19.0517   23.3988 C   0  0  0  0  0  0  0  0  0  0  0  0
   20.3722   19.3305   24.1415 H   0  0  0  0  0  0  0  0  0  0  0  0
   19.7816   19.8385   22.0923 C   0  0  0  0  0  0  0  0  0  0  0  0
   19.2910   20.8202   22.1307 H   0  0  0  0  0  0  0  0  0  0  0  0
   20.8520   20.0066   21.9147 H   0  0  0  0  0  0  0  0  0  0  0  0
   18.3030   19.2689   23.9079 O   0  0  0  0  0  0  0  0  0  0  0  0
   17.7000   18.9959   23.1860 H   0  0  0  0  0  0  0  0  0  0  0  0
  1  2  1  0  0  0  0
  1  3  1  0  0  0  0
  1  4  1  0  0  0  0
  4  5  1  0  0  0  0
  4  6  1  0  0  0  0
  4  7  1  0  0  0  0
  7  8  1  0  0  0  0
  7  9  1  0  0  0  0
  7 10  1  0  0  0  0
 10 11  1  0  0  0  0
  1 12  1  0  0  0  0
 10 12  1  0  0  0  0
 12 13  1  0  0  0  0
 12 14  1  0  0  0  0
 10 15  1  0  0  0  0
 15 16  1  0  0  0  0
M  END
> <VConfSearch Rank>
438

> <Conf_Id>
20

> <Delta U+W>
-0.483

> <U+W>
2.527

> <U>
4.508

> <W>
-1.981

> <W(PB)>
-3.712

> <W(SA)>
1.732

> <Valence>
14.705

> <Coulomb>
-10.687

> <VdW>
0.490

> <VdW6>
-3.745

> <VdW12>
4.235

> <Bond>
0.068

> <Angle>
3.901

> <Pdih>
10.737

> <Idih>
0.000

> <Tether>
0.000

$$$$
VeraChem MOL file


 16 16  0  0  0  0  0  0  0  0999 V2000     
   19.7629   18.1620   20.9740 C   0  0  0  0  0  0  0  0  0  0  0  0
   19.7397   19.0907   20.3869 H   0  0  0  0  0  0  0  0  0  0  0  0
   20.1304   17.3545   20.3263 H   0  0  0  0  0  0  0  0  0  0  0  0
   18.3637   17.8729   21.5346 C   0  0  0  0  0  0  0  0  0  0  0  0
   17.5683   18.1043   20.8131 H   0  0  0  0  0  0  0  0  0  0  0  0
   18.2854   16.8102   21.8032 H   0  0  0  0  0  0  0  0  0  0  0  0
   18.2732   18.7391   22.8043 C   0  0  0  0  0  0  0  0  0  0  0  0
   17.6090   18.2867   23.5520 H   0  0  0  0  0  0  0  0  0  0  0  0
   17.8652   19.7250   22.5431 H   0  0  0  0  0  0  0  0  0  0  0  0
   19.7144   18.8809   23.3375 C   0  0  0  0  0  0  0  0  0  0  0  0
   19.8458   18.2613   24.2366 H   0  0  0  0  0  0  0  0  0  0  0  0
   20.6439   18.3621   22.2209 C   0  0  0  0  0  0  0  0  0  0  0  0
   21.4780   19.0478   22.0208 H   0  0  0  0  0  0  0  0  0  0  0  0
   21.0705   17.3987   22.5292 H   0  0  0  0  0  0  0  0  0  0  0  0
   20.0013   20.2454   23.6201 O   0  0  0  0  0  0  0  0  0  0  0  0
   19.3779   20.5239   24.3239 H   0  0  0  0  0  0  0  0  0  0  0  0
  1  2  1  0  0  0  0
  1  3  1  0  0  0  0
  1  4  1  0  0  0  0
  4  5  1  0  0  0  0
  4  6  1  0  0  0  0
  4  7  1  0  0  0  0
  7  8  1  0  0  0  0
  7  9  1  0  0  0  0
  7 10  1  0  0  0  0
 10 11  1  0  0  0  0
  1 12  1  0  0  0  0
 10 12  1  0  0  0  0
 12 13  1  0  0  0  0
 12 14  1  0  0  0  0
 10 15  1  0  0  0  0
 15 16  1  0  0  0  0
M  END
> <VConfSearch Rank>
439

> <Conf_Id>
59

> <Delta U+W>
0.000

> <U+W>
3.010

> <U>
5.843

> <W>
-2.833

> <W(PB)>
-4.568

> <W(SA)>
1.735

> <Valence>
13.789

> <Coulomb>
-8.574

> <VdW>
0.628

> <VdW6>
-3.284

> <VdW12>
3.912

> <Bond>
0.054

> <Angle>
4.034

> <Pdih>
9.702

> <Idih>
0.000

> <Tether>
0.000

$$$$
VeraChem MOL file


 16 16  0  0  0  0  0  0  0  0999 V2000     
   19.5544   20.0348   22.1302 C   0  0  0  0  0  0  0  0  0  0  0  0
   20.1023   20.8847   22.5595 H   0  0  0  0  0  0  0  0  0  0  0  0
   19.0078   20.3900   21.2455 H   0  0  0  0  0  0  0  0  0  0  0  0
   18.5703   19.4101   23.1287 C   0  0  0  0  0  0  0  0  0  0  0  0
   19.0265   19.3840   24.1281 H   0  0  0  0  0  0  0  0  0  0  0  0
   17.6277   19.9702   23.1951 H   0  0  0  0  0  0  0  0  0  0  0  0
   18.3645   17.9720   22.6182 C   0  0  0  0  0  0  0  0  0  0  0  0
   17.5210   17.9474   21.9160 H   0  0  0  0  0  0  0  0  0  0  0  0
   18.1351   17.2802   23.4397 H   0  0  0  0  0  0  0  0  0  0  0  0
   19.6550   17.5827   21.8680 C   0  0  0  0  0  0  0  0  0  0  0  0
   19.3940   17.1991   20.8709 H   0  0  0  0  0  0  0  0  0  0  0  0
   20.4874   18.8755   21.7353 C   0  0  0  0  0  0  0  0  0  0  0  0
   21.3443   18.8487   22.4222 H   0  0  0  0  0  0  0  0  0  0  0  0
   20.8758   19.0024   20.7165 H   0  0  0  0  0  0  0  0  0  0  0  0
   20.3781   16.6072   22.6093 O   0  0  0  0  0  0  0  0  0  0  0  0
   21.1885   16.4068   22.0949 H   0  0  0  0  0  0  0  0  0  0  0  0
  1  2  1  0  0  0  0
  1  3  1  0  0  0  0
  1  4  1  0  0  0  0
  4  5  1  0  0  0  0
  4  6  1  0  0  0  0
  4  7  1  0  0  0  0
  7  8  1  0  0  0  0
  7  9  1  0  0  0  0
  7 10  1  0  0  0  0
 10 11  1  0  0  0  0
  1 12  1  0  0  0  0
 10 12  1  0  0  0  0
 12 13  1  0  0  0  0
 12 14  1  0  0  0  0
 10 15  1  0  0  0  0
 15 16  1  0  0  0  0
M  END
> <VConfSearch Rank>
440

> <Conf_Id>
33

> <Delta U+W>
0.015

> <U+W>
3.025

> <U>
5.843

> <W>
-2.819

> <W(PB)>
-4.568

> <W(SA)>
1.750

> <Valence>
13.789

> <Coulomb>
-8.574

> <VdW>
0.628

> <VdW6>
-3.284

> <VdW12>
3.913

> <Bond>
0.054

> <Angle>
4.033

> <Pdih>
9.702

> <Idih>
0.000

> <Tether>
0.000

$$$$
VeraChem MOL file


 16 16  0  0  0  0  0  0  0  0999 V2000     
   19.1497   17.7726   21.2427 C   0  0  0  0  0  0  0  0  0  0  0  0
   18.1182   17.7911   20.8647 H   0  0  0  0  0  0  0  0  0  0  0  0
   19.7143   17.0518   20.6355 H   0  0  0  0  0  0  0  0  0  0  0  0
   19.1545   17.3832   22.7371 C   0  0  0  0  0  0  0  0  0  0  0  0
   18.1255   17.2121   23.0821 H   0  0  0  0  0  0  0  0  0  0  0  0
   19.7225   16.4591   22.9118 H   0  0  0  0  0  0  0  0  0  0  0  0
   19.7811   18.5716   23.4971 C   0  0  0  0  0  0  0  0  0  0  0  0
   20.8436   18.3679   23.6846 H   0  0  0  0  0  0  0  0  0  0  0  0
   19.2979   18.7462   24.4677 H   0  0  0  0  0  0  0  0  0  0  0  0
   19.6633   19.7833   22.5628 C   0  0  0  0  0  0  0  0  0  0  0  0
   20.4582   20.5190   22.7521 H   0  0  0  0  0  0  0  0  0  0  0  0
   19.7746   19.1812   21.1556 C   0  0  0  0  0  0  0  0  0  0  0  0
   19.2872   19.8066   20.3958 H   0  0  0  0  0  0  0  0  0  0  0  0
   20.8359   19.0958   20.8873 H   0  0  0  0  0  0  0  0  0  0  0  0
   18.3804   20.3718   22.7195 O   0  0  0  0  0  0  0  0  0  0  0  0
   17.7447   19.6504   22.5335 H   0  0  0  0  0  0  0  0  0  0  0  0
  1  2  1  0  0  0  0
  1  3  1  0  0  0  0
  1  4  1  0  0  0  0
  4  5  1  0  0  0  0
  4  6  1  0  0  0  0
  4  7  1  0  0  0  0
  7  8  1  0  0  0  0
  7  9  1  0  0  0  0
  7 10  1  0  0  0  0
 10 11  1  0  0  0  0
  1 12  1  0  0  0  0
 10 12  1  0  0  0  0
 12 13  1  0  0  0  0
 12 14  1  0  0  0  0
 10 15  1  0  0  0  0
 15 16  1  0  0  0  0
M  END
> <VConfSearch Rank>
441

> <Conf_Id>
20

> <Delta U+W>
-0.483

> <U+W>
2.527

> <U>
4.508

> <W>
-1.981

> <W(PB)>
-3.712

> <W(SA)>
1.732

> <Valence>
14.705

> <Coulomb>
-10.687

> <VdW>
0.490

> <VdW6>
-3.745

> <VdW12>
4.235

> <Bond>
0.068

> <Angle>
3.901

> <Pdih>
10.737

> <Idih>
0.000

> <Tether>
0.000

$$$$
VeraChem MOL file


 16 16  0  0  0  0  0  0  0  0999 V2000     
   20.5840   19.1769   21.8419 C   0  0  0  0  0  0  0  0  0  0  0  0
   20.2773   19.7959   20.9872 H   0  0  0  0  0  0  0  0  0  0  0  0
   21.6582   19.3317   22.0111 H   0  0  0  0  0  0  0  0  0  0  0  0
   20.2404   17.7074   21.5622 C   0  0  0  0  0  0  0  0  0  0  0  0
   20.4345   17.4241   20.5188 H   0  0  0  0  0  0  0  0  0  0  0  0
   20.8418   17.0570   22.2125 H   0  0  0  0  0  0  0  0  0  0  0  0
   18.7518   17.5843   21.9356 C   0  0  0  0  0  0  0  0  0  0  0  0
   18.5062   16.5702   22.2764 H   0  0  0  0  0  0  0  0  0  0  0  0
   18.1364   17.8015   21.0519 H   0  0  0  0  0  0  0  0  0  0  0  0
   18.4920   18.6319   23.0387 C   0  0  0  0  0  0  0  0  0  0  0  0
   18.3791   18.1331   24.0123 H   0  0  0  0  0  0  0  0  0  0  0  0
   19.7363   19.5431   23.0742 C   0  0  0  0  0  0  0  0  0  0  0  0
   19.4722   20.6091   23.0809 H   0  0  0  0  0  0  0  0  0  0  0  0
   20.3065   19.3348   23.9888 H   0  0  0  0  0  0  0  0  0  0  0  0
   17.3331   19.3959   22.7270 O   0  0  0  0  0  0  0  0  0  0  0  0
   16.5797   18.7686   22.7070 H   0  0  0  0  0  0  0  0  0  0  0  0
  1  2  1  0  0  0  0
  1  3  1  0  0  0  0
  1  4  1  0  0  0  0
  4  5  1  0  0  0  0
  4  6  1  0  0  0  0
  4  7  1  0  0  0  0
  7  8  1  0  0  0  0
  7  9  1  0  0  0  0
  7 10  1  0  0  0  0
 10 11  1  0  0  0  0
  1 12  1  0  0  0  0
 10 12  1  0  0  0  0
 12 13  1  0  0  0  0
 12 14  1  0  0  0  0
 10 15  1  0  0  0  0
 15 16  1  0  0  0  0
M  END
> <VConfSearch Rank>
442

> <Conf_Id>
59

> <Delta U+W>
0.000

> <U+W>
3.010

> <U>
5.843

> <W>
-2.833

> <W(PB)>
-4.568

> <W(SA)>
1.735

> <Valence>
13.789

> <Coulomb>
-8.574

> <VdW>
0.628

> <VdW6>
-3.284

> <VdW12>
3.912

> <Bond>
0.054

> <Angle>
4.034

> <Pdih>
9.702

> <Idih>
0.000

> <Tether>
0.000

$$$$
VeraChem MOL file


 16 16  0  0  0  0  0  0  0  0999 V2000     
   19.5926   17.1997   22.5054 C   0  0  0  0  0  0  0  0  0  0  0  0
   19.9381   16.5050   23.2832 H   0  0  0  0  0  0  0  0  0  0  0  0
   19.1217   16.6124   21.7048 H   0  0  0  0  0  0  0  0  0  0  0  0
   20.7370   18.0410   21.9238 C   0  0  0  0  0  0  0  0  0  0  0  0
   21.4219   18.3386   22.7300 H   0  0  0  0  0  0  0  0  0  0  0  0
   21.3149   17.4959   21.1651 H   0  0  0  0  0  0  0  0  0  0  0  0
   20.0434   19.2899   21.3490 C   0  0  0  0  0  0  0  0  0  0  0  0
   19.7694   19.1098   20.3014 H   0  0  0  0  0  0  0  0  0  0  0  0
   20.7036   20.1671   21.3754 H   0  0  0  0  0  0  0  0  0  0  0  0
   18.7583   19.4991   22.1763 C   0  0  0  0  0  0  0  0  0  0  0  0
   17.9007   19.6019   21.4955 H   0  0  0  0  0  0  0  0  0  0  0  0
   18.5923   18.2366   23.0482 C   0  0  0  0  0  0  0  0  0  0  0  0
   18.8355   18.4624   24.0954 H   0  0  0  0  0  0  0  0  0  0  0  0
   17.5631   17.8563   23.0156 H   0  0  0  0  0  0  0  0  0  0  0  0
   18.8877   20.6514   23.0006 O   0  0  0  0  0  0  0  0  0  0  0  0
   18.0526   20.7289   23.5087 H   0  0  0  0  0  0  0  0  0  0  0  0
  1  2  1  0  0  0  0
  1  3  1  0  0  0  0
  1  4  1  0  0  0  0
  4  5  1  0  0  0  0
  4  6  1  0  0  0  0
  4  7  1  0  0  0  0
  7  8  1  0  0  0  0
  7  9  1  0  0  0  0
  7 10  1  0  0  0  0
 10 11  1  0  0  0  0
  1 12  1  0  0  0  0
 10 12  1  0  0  0  0
 12 13  1  0  0  0  0
 12 14  1  0  0  0  0
 10 15  1  0  0  0  0
 15 16  1  0  0  0  0
M  END
> <VConfSearch Rank>
443

> <Conf_Id>
33

> <Delta U+W>
0.015

> <U+W>
3.025

> <U>
5.843

> <W>
-2.819

> <W(PB)>
-4.568

> <W(SA)>
1.750

> <Valence>
13.789

> <Coulomb>
-8.574

> <VdW>
0.628

> <VdW6>
-3.284

> <VdW12>
3.913

> <Bond>
0.054

> <Angle>
4.033

> <Pdih>
9.702

> <Idih>
0.000

> <Tether>
0.000

$$$$
VeraChem MOL file


 16 16  0  0  0  0  0  0  0  0999 V2000     
   19.9372   18.9846   21.1038 C   0  0  0  0  0  0  0  0  0  0  0  0
   20.7197   19.7490   21.2073 H   0  0  0  0  0  0  0  0  0  0  0  0
   19.8560   18.7330   20.0375 H   0  0  0  0  0  0  0  0  0  0  0  0
   18.6017   19.5209   21.6641 C   0  0  0  0  0  0  0  0  0  0  0  0
   18.7376   20.5452   22.0377 H   0  0  0  0  0  0  0  0  0  0  0  0
   17.8216   19.5488   20.8910 H   0  0  0  0  0  0  0  0  0  0  0  0
   18.2029   18.5799   22.8208 C   0  0  0  0  0  0  0  0  0  0  0  0
   17.4795   17.8381   22.4574 H   0  0  0  0  0  0  0  0  0  0  0  0
   17.7366   19.1205   23.6552 H   0  0  0  0  0  0  0  0  0  0  0  0
   19.4889   17.8566   23.2430 C   0  0  0  0  0  0  0  0  0  0  0  0
   19.2741   16.8693   23.6766 H   0  0  0  0  0  0  0  0  0  0  0  0
   20.2947   17.7390   21.9423 C   0  0  0  0  0  0  0  0  0  0  0  0
   21.3741   17.6576   22.1275 H   0  0  0  0  0  0  0  0  0  0  0  0
   19.9783   16.8337   21.4075 H   0  0  0  0  0  0  0  0  0  0  0  0
   20.2022   18.6698   24.1632 O   0  0  0  0  0  0  0  0  0  0  0  0
   20.3466   19.5178   23.6951 H   0  0  0  0  0  0  0  0  0  0  0  0
  1  2  1  0  0  0  0
  1  3  1  0  0  0  0
  1  4  1  0  0  0  0
  4  5  1  0  0  0  0
  4  6  1  0  0  0  0
  4  7  1  0  0  0  0
  7  8  1  0  0  0  0
  7  9  1  0  0  0  0
  7 10  1  0  0  0  0
 10 11  1  0  0  0  0
  1 12  1  0  0  0  0
 10 12  1  0  0  0  0
 12 13  1  0  0  0  0
 12 14  1  0  0  0  0
 10 15  1  0  0  0  0
 15 16  1  0  0  0  0
M  END
> <VConfSearch Rank>
444

> <Conf_Id>
20

> <Delta U+W>
-0.483

> <U+W>
2.527

> <U>
4.508

> <W>
-1.981

> <W(PB)>
-3.712

> <W(SA)>
1.732

> <Valence>
14.705

> <Coulomb>
-10.687

> <VdW>
0.490

> <VdW6>
-3.745

> <VdW12>
4.235

> <Bond>
0.068

> <Angle>
3.901

> <Pdih>
10.737

> <Idih>
0.000

> <Tether>
0.000

$$$$
VeraChem MOL file


 16 16  0  0  0  0  0  0  0  0999 V2000     
   18.9333   17.7864   21.1549 C   0  0  0  0  0  0  0  0  0  0  0  0
   17.8620   17.6005   21.3141 H   0  0  0  0  0  0  0  0  0  0  0  0
   19.2132   17.3704   20.1775 H   0  0  0  0  0  0  0  0  0  0  0  0
   19.7390   17.1701   22.3068 C   0  0  0  0  0  0  0  0  0  0  0  0
   19.3415   16.1951   22.6201 H   0  0  0  0  0  0  0  0  0  0  0  0
   20.7834   17.0311   21.9945 H   0  0  0  0  0  0  0  0  0  0  0  0
   19.6665   18.2206   23.4300 C   0  0  0  0  0  0  0  0  0  0  0  0
   20.5559   18.1833   24.0722 H   0  0  0  0  0  0  0  0  0  0  0  0
   18.7880   18.0206   24.0584 H   0  0  0  0  0  0  0  0  0  0  0  0
   19.5258   19.5914   22.7350 C   0  0  0  0  0  0  0  0  0  0  0  0
   20.4723   20.1472   22.8040 H   0  0  0  0  0  0  0  0  0  0  0  0
   19.2147   19.2971   21.2530 C   0  0  0  0  0  0  0  0  0  0  0  0
   18.3700   19.8908   20.8786 H   0  0  0  0  0  0  0  0  0  0  0  0
   20.0941   19.5483   20.6458 H   0  0  0  0  0  0  0  0  0  0  0  0
   18.4627   20.3325   23.3218 O   0  0  0  0  0  0  0  0  0  0  0  0
   18.7072   20.4804   24.2598 H   0  0  0  0  0  0  0  0  0  0  0  0
  1  2  1  0  0  0  0
  1  3  1  0  0  0  0
  1  4  1  0  0  0  0
  4  5  1  0  0  0  0
  4  6  1  0  0  0  0
  4  7  1  0  0  0  0
  7  8  1  0  0  0  0
  7  9  1  0  0  0  0
  7 10  1  0  0  0  0
 10 11  1  0  0  0  0
  1 12  1  0  0  0  0
 10 12  1  0  0  0  0
 12 13  1  0  0  0  0
 12 14  1  0  0  0  0
 10 15  1  0  0  0  0
 15 16  1  0  0  0  0
M  END
> <VConfSearch Rank>
445

> <Conf_Id>
59

> <Delta U+W>
0.000

> <U+W>
3.010

> <U>
5.843

> <W>
-2.833

> <W(PB)>
-4.568

> <W(SA)>
1.735

> <Valence>
13.789

> <Coulomb>
-8.574

> <VdW>
0.628

> <VdW6>
-3.284

> <VdW12>
3.912

> <Bond>
0.054

> <Angle>
4.034

> <Pdih>
9.702

> <Idih>
0.000

> <Tether>
0.000

$$$$
VeraChem MOL file


 16 16  0  0  0  0  0  0  0  0999 V2000     
   20.4160   19.0965   21.3454 C   0  0  0  0  0  0  0  0  0  0  0  0
   21.4325   18.8649   20.9993 H   0  0  0  0  0  0  0  0  0  0  0  0
   19.9934   19.8635   20.6815 H   0  0  0  0  0  0  0  0  0  0  0  0
   20.3933   19.5994   22.7953 C   0  0  0  0  0  0  0  0  0  0  0  0
   21.1131   19.0256   23.3955 H   0  0  0  0  0  0  0  0  0  0  0  0
   20.6511   20.6643   22.8742 H   0  0  0  0  0  0  0  0  0  0  0  0
   18.9631   19.3034   23.2834 C   0  0  0  0  0  0  0  0  0  0  0  0
   18.3165   20.1654   23.0737 H   0  0  0  0  0  0  0  0  0  0  0  0
   18.9350   19.1205   24.3659 H   0  0  0  0  0  0  0  0  0  0  0  0
   18.4635   18.0906   22.4714 C   0  0  0  0  0  0  0  0  0  0  0  0
   17.4845   18.3275   22.0298 H   0  0  0  0  0  0  0  0  0  0  0  0
   19.5036   17.8564   21.3556 C   0  0  0  0  0  0  0  0  0  0  0  0
   20.1054   16.9645   21.5773 H   0  0  0  0  0  0  0  0  0  0  0  0
   19.0223   17.7045   20.3809 H   0  0  0  0  0  0  0  0  0  0  0  0
   18.3742   16.9434   23.3080 O   0  0  0  0  0  0  0  0  0  0  0  0
   18.0650   16.2054   22.7412 H   0  0  0  0  0  0  0  0  0  0  0  0
  1  2  1  0  0  0  0
  1  3  1  0  0  0  0
  1  4  1  0  0  0  0
  4  5  1  0  0  0  0
  4  6  1  0  0  0  0
  4  7  1  0  0  0  0
  7  8  1  0  0  0  0
  7  9  1  0  0  0  0
  7 10  1  0  0  0  0
 10 11  1  0  0  0  0
  1 12  1  0  0  0  0
 10 12  1  0  0  0  0
 12 13  1  0  0  0  0
 12 14  1  0  0  0  0
 10 15  1  0  0  0  0
 15 16  1  0  0  0  0
M  END
> <VConfSearch Rank>
446

> <Conf_Id>
33

> <Delta U+W>
0.015

> <U+W>
3.025

> <U>
5.843

> <W>
-2.819

> <W(PB)>
-4.568

> <W(SA)>
1.750

> <Valence>
13.789

> <Coulomb>
-8.574

> <VdW>
0.628

> <VdW6>
-3.284

> <VdW12>
3.913

> <Bond>
0.054

> <Angle>
4.033

> <Pdih>
9.702

> <Idih>
0.000

> <Tether>
0.000

$$$$
VeraChem MOL file


 16 16  0  0  0  0  0  0  0  0999 V2000     
   18.5599   17.8902   23.0306 C   0  0  0  0  0  0  0  0  0  0  0  0
   18.6644   18.0868   24.1066 H   0  0  0  0  0  0  0  0  0  0  0  0
   17.7675   17.1397   22.9044 H   0  0  0  0  0  0  0  0  0  0  0  0
   19.9052   17.3981   22.4536 C   0  0  0  0  0  0  0  0  0  0  0  0
   20.6605   17.3556   23.2505 H   0  0  0  0  0  0  0  0  0  0  0  0
   19.8164   16.3906   22.0246 H   0  0  0  0  0  0  0  0  0  0  0  0
   20.3218   18.4242   21.3784 C   0  0  0  0  0  0  0  0  0  0  0  0
   20.0319   18.0539   20.3862 H   0  0  0  0  0  0  0  0  0  0  0  0
   21.4061   18.5978   21.3666 H   0  0  0  0  0  0  0  0  0  0  0  0
   19.5315   19.7038   21.6831 C   0  0  0  0  0  0  0  0  0  0  0  0
   19.3600   20.2995   20.7750 H   0  0  0  0  0  0  0  0  0  0  0  0
   18.2134   19.1944   22.2815 C   0  0  0  0  0  0  0  0  0  0  0  0
   17.7394   19.9374   22.9368 H   0  0  0  0  0  0  0  0  0  0  0  0
   17.5130   18.9737   21.4652 H   0  0  0  0  0  0  0  0  0  0  0  0
   20.2276   20.4615   22.6620 O   0  0  0  0  0  0  0  0  0  0  0  0
   20.3333   19.8564   23.4248 H   0  0  0  0  0  0  0  0  0  0  0  0
  1  2  1  0  0  0  0
  1  3  1  0  0  0  0
  1  4  1  0  0  0  0
  4  5  1  0  0  0  0
  4  6  1  0  0  0  0
  4  7  1  0  0  0  0
  7  8  1  0  0  0  0
  7  9  1  0  0  0  0
  7 10  1  0  0  0  0
 10 11  1  0  0  0  0
  1 12  1  0  0  0  0
 10 12  1  0  0  0  0
 12 13  1  0  0  0  0
 12 14  1  0  0  0  0
 10 15  1  0  0  0  0
 15 16  1  0  0  0  0
M  END
> <VConfSearch Rank>
447

> <Conf_Id>
20

> <Delta U+W>
-0.483

> <U+W>
2.527

> <U>
4.508

> <W>
-1.981

> <W(PB)>
-3.712

> <W(SA)>
1.732

> <Valence>
14.705

> <Coulomb>
-10.687

> <VdW>
0.490

> <VdW6>
-3.745

> <VdW12>
4.235

> <Bond>
0.068

> <Angle>
3.901

> <Pdih>
10.737

> <Idih>
0.000

> <Tether>
0.000

$$$$
VeraChem MOL file


 16 16  0  0  0  0  0  0  0  0999 V2000     
   20.5657   19.0235   22.9738 C   0  0  0  0  0  0  0  0  0  0  0  0
   20.3580   18.9278   24.0486 H   0  0  0  0  0  0  0  0  0  0  0  0
   21.6000   19.3733   22.8529 H   0  0  0  0  0  0  0  0  0  0  0  0
   19.5461   19.9771   22.3359 C   0  0  0  0  0  0  0  0  0  0  0  0
   19.3188   20.8376   22.9798 H   0  0  0  0  0  0  0  0  0  0  0  0
   19.9403   20.3559   21.3826 H   0  0  0  0  0  0  0  0  0  0  0  0
   18.3096   19.0974   22.0755 C   0  0  0  0  0  0  0  0  0  0  0  0
   17.7358   19.4575   21.2118 H   0  0  0  0  0  0  0  0  0  0  0  0
   17.6510   19.1272   22.9542 H   0  0  0  0  0  0  0  0  0  0  0  0
   18.8353   17.6641   21.8496 C   0  0  0  0  0  0  0  0  0  0  0  0
   18.7669   17.4017   20.7838 H   0  0  0  0  0  0  0  0  0  0  0  0
   20.3173   17.6723   22.2782 C   0  0  0  0  0  0  0  0  0  0  0  0
   20.5660   16.8279   22.9348 H   0  0  0  0  0  0  0  0  0  0  0  0
   20.9490   17.5968   21.3837 H   0  0  0  0  0  0  0  0  0  0  0  0
   18.1001   16.7407   22.6437 O   0  0  0  0  0  0  0  0  0  0  0  0
   17.1696   16.7850   22.3375 H   0  0  0  0  0  0  0  0  0  0  0  0
  1  2  1  0  0  0  0
  1  3  1  0  0  0  0
  1  4  1  0  0  0  0
  4  5  1  0  0  0  0
  4  6  1  0  0  0  0
  4  7  1  0  0  0  0
  7  8  1  0  0  0  0
  7  9  1  0  0  0  0
  7 10  1  0  0  0  0
 10 11  1  0  0  0  0
  1 12  1  0  0  0  0
 10 12  1  0  0  0  0
 12 13  1  0  0  0  0
 12 14  1  0  0  0  0
 10 15  1  0  0  0  0
 15 16  1  0  0  0  0
M  END
> <VConfSearch Rank>
448

> <Conf_Id>
59

> <Delta U+W>
0.000

> <U+W>
3.010

> <U>
5.843

> <W>
-2.833

> <W(PB)>
-4.568

> <W(SA)>
1.735

> <Valence>
13.789

> <Coulomb>
-8.574

> <VdW>
0.628

> <VdW6>
-3.284

> <VdW12>
3.912

> <Bond>
0.054

> <Angle>
4.034

> <Pdih>
9.702

> <Idih>
0.000

> <Tether>
0.000

$$$$
VeraChem MOL file


 16 16  0  0  0  0  0  0  0  0999 V2000     
   20.7425   18.2653   22.8166 C   0  0  0  0  0  0  0  0  0  0  0  0
   21.6547   17.7393   22.5035 H   0  0  0  0  0  0  0  0  0  0  0  0
   20.9409   18.7524   23.7815 H   0  0  0  0  0  0  0  0  0  0  0  0
   19.5409   17.3202   22.9528 C   0  0  0  0  0  0  0  0  0  0  0  0
   19.5566   16.5846   22.1365 H   0  0  0  0  0  0  0  0  0  0  0  0
   19.5414   16.7757   23.9068 H   0  0  0  0  0  0  0  0  0  0  0  0
   18.3119   18.2350   22.7989 C   0  0  0  0  0  0  0  0  0  0  0  0
   18.0072   18.6116   23.7840 H   0  0  0  0  0  0  0  0  0  0  0  0
   17.4574   17.6954   22.3690 H   0  0  0  0  0  0  0  0  0  0  0  0
   18.7554   19.4236   21.9212 C   0  0  0  0  0  0  0  0  0  0  0  0
   18.4868   20.3652   22.4220 H   0  0  0  0  0  0  0  0  0  0  0  0
   20.2890   19.3158   21.7863 C   0  0  0  0  0  0  0  0  0  0  0  0
   20.5595   18.9755   20.7775 H   0  0  0  0  0  0  0  0  0  0  0  0
   20.7781   20.2833   21.9582 H   0  0  0  0  0  0  0  0  0  0  0  0
   18.1431   19.3424   20.6396 O   0  0  0  0  0  0  0  0  0  0  0  0
   18.4672   20.1109   20.1239 H   0  0  0  0  0  0  0  0  0  0  0  0
  1  2  1  0  0  0  0
  1  3  1  0  0  0  0
  1  4  1  0  0  0  0
  4  5  1  0  0  0  0
  4  6  1  0  0  0  0
  4  7  1  0  0  0  0
  7  8  1  0  0  0  0
  7  9  1  0  0  0  0
  7 10  1  0  0  0  0
 10 11  1  0  0  0  0
  1 12  1  0  0  0  0
 10 12  1  0  0  0  0
 12 13  1  0  0  0  0
 12 14  1  0  0  0  0
 10 15  1  0  0  0  0
 15 16  1  0  0  0  0
M  END
> <VConfSearch Rank>
449

> <Conf_Id>
33

> <Delta U+W>
0.015

> <U+W>
3.025

> <U>
5.843

> <W>
-2.819

> <W(PB)>
-4.568

> <W(SA)>
1.750

> <Valence>
13.789

> <Coulomb>
-8.574

> <VdW>
0.628

> <VdW6>
-3.284

> <VdW12>
3.913

> <Bond>
0.054

> <Angle>
4.033

> <Pdih>
9.702

> <Idih>
0.000

> <Tether>
0.000

$$$$
VeraChem MOL file


 16 16  0  0  0  0  0  0  0  0999 V2000     
   18.5539   18.4317   23.2942 C   0  0  0  0  0  0  0  0  0  0  0  0
   19.0616   18.3233   24.2626 H   0  0  0  0  0  0  0  0  0  0  0  0
   17.4720   18.3755   23.4770 H   0  0  0  0  0  0  0  0  0  0  0  0
   19.0248   17.3236   22.3272 C   0  0  0  0  0  0  0  0  0  0  0  0
   19.7597   16.6781   22.8278 H   0  0  0  0  0  0  0  0  0  0  0  0
   18.1891   16.6882   22.0033 H   0  0  0  0  0  0  0  0  0  0  0  0
   19.6757   18.0396   21.1247 C   0  0  0  0  0  0  0  0  0  0  0  0
   18.9484   18.1161   20.3057 H   0  0  0  0  0  0  0  0  0  0  0  0
   20.5526   17.4995   20.7435 H   0  0  0  0  0  0  0  0  0  0  0  0
   20.0289   19.4516   21.6110 C   0  0  0  0  0  0  0  0  0  0  0  0
   20.0330   20.1754   20.7833 H   0  0  0  0  0  0  0  0  0  0  0  0
   18.9368   19.7759   22.6392 C   0  0  0  0  0  0  0  0  0  0  0  0
   19.2675   20.5192   23.3769 H   0  0  0  0  0  0  0  0  0  0  0  0
   18.0653   20.1900   22.1151 H   0  0  0  0  0  0  0  0  0  0  0  0
   21.2903   19.4200   22.2626 O   0  0  0  0  0  0  0  0  0  0  0  0
   21.1920   18.7561   22.9759 H   0  0  0  0  0  0  0  0  0  0  0  0
  1  2  1  0  0  0  0
  1  3  1  0  0  0  0
  1  4  1  0  0  0  0
  4  5  1  0  0  0  0
  4  6  1  0  0  0  0
  4  7  1  0  0  0  0
  7  8  1  0  0  0  0
  7  9  1  0  0  0  0
  7 10  1  0  0  0  0
 10 11  1  0  0  0  0
  1 12  1  0  0  0  0
 10 12  1  0  0  0  0
 12 13  1  0  0  0  0
 12 14  1  0  0  0  0
 10 15  1  0  0  0  0
 15 16  1  0  0  0  0
M  END
> <VConfSearch Rank>
450

> <Conf_Id>
20

> <Delta U+W>
-0.483

> <U+W>
2.527

> <U>
4.508

> <W>
-1.981

> <W(PB)>
-3.712

> <W(SA)>
1.732

> <Valence>
14.705

> <Coulomb>
-10.687

> <VdW>
0.490

> <VdW6>
-3.745

> <VdW12>
4.235

> <Bond>
0.068

> <Angle>
3.901

> <Pdih>
10.737

> <Idih>
0.000

> <Tether>
0.000

$$$$
VeraChem MOL file


 16 16  0  0  0  0  0  0  0  0999 V2000     
   18.2344   19.4527   22.5228 C   0  0  0  0  0  0  0  0  0  0  0  0
   18.0549   19.9158   21.5425 H   0  0  0  0  0  0  0  0  0  0  0  0
   17.4668   19.8148   23.2201 H   0  0  0  0  0  0  0  0  0  0  0  0
   19.6573   19.7822   22.9945 C   0  0  0  0  0  0  0  0  0  0  0  0
   19.9467   20.8155   22.7596 H   0  0  0  0  0  0  0  0  0  0  0  0
   19.7271   19.6448   24.0826 H   0  0  0  0  0  0  0  0  0  0  0  0
   20.5467   18.7478   22.2807 C   0  0  0  0  0  0  0  0  0  0  0  0
   21.4449   18.5177   22.8682 H   0  0  0  0  0  0  0  0  0  0  0  0
   20.8714   19.1541   21.3131 H   0  0  0  0  0  0  0  0  0  0  0  0
   19.6715   17.4947   22.0680 C   0  0  0  0  0  0  0  0  0  0  0  0
   19.9749   16.7008   22.7659 H   0  0  0  0  0  0  0  0  0  0  0  0
   18.2214   17.9196   22.3789 C   0  0  0  0  0  0  0  0  0  0  0  0
   17.5158   17.5923   21.6037 H   0  0  0  0  0  0  0  0  0  0  0  0
   17.9103   17.4631   23.3276 H   0  0  0  0  0  0  0  0  0  0  0  0
   19.7736   17.0474   20.7214 O   0  0  0  0  0  0  0  0  0  0  0  0
   20.7120   16.8024   20.5768 H   0  0  0  0  0  0  0  0  0  0  0  0
  1  2  1  0  0  0  0
  1  3  1  0  0  0  0
  1  4  1  0  0  0  0
  4  5  1  0  0  0  0
  4  6  1  0  0  0  0
  4  7  1  0  0  0  0
  7  8  1  0  0  0  0
  7  9  1  0  0  0  0
  7 10  1  0  0  0  0
 10 11  1  0  0  0  0
  1 12  1  0  0  0  0
 10 12  1  0  0  0  0
 12 13  1  0  0  0  0
 12 14  1  0  0  0  0
 10 15  1  0  0  0  0
 15 16  1  0  0  0  0
M  END
> <VConfSearch Rank>
451

> <Conf_Id>
59

> <Delta U+W>
0.000

> <U+W>
3.010

> <U>
5.843

> <W>
-2.833

> <W(PB)>
-4.568

> <W(SA)>
1.735

> <Valence>
13.789

> <Coulomb>
-8.574

> <VdW>
0.628

> <VdW6>
-3.284

> <VdW12>
3.912

> <Bond>
0.054

> <Angle>
4.034

> <Pdih>
9.702

> <Idih>
0.000

> <Tether>
0.000

$$$$
VeraChem MOL file


 16 16  0  0  0  0  0  0  0  0999 V2000     
   19.4975   18.1709   23.6576 C   0  0  0  0  0  0  0  0  0  0  0  0
   19.0774   18.4435   24.6353 H   0  0  0  0  0  0  0  0  0  0  0  0
   20.0192   17.2096   23.7637 H   0  0  0  0  0  0  0  0  0  0  0  0
   20.4713   19.2307   23.1243 C   0  0  0  0  0  0  0  0  0  0  0  0
   20.0835   20.2339   23.3499 H   0  0  0  0  0  0  0  0  0  0  0  0
   21.4725   19.1411   23.5673 H   0  0  0  0  0  0  0  0  0  0  0  0
   20.4813   19.0124   21.6001 C   0  0  0  0  0  0  0  0  0  0  0  0
   21.2675   18.2932   21.3361 H   0  0  0  0  0  0  0  0  0  0  0  0
   20.6874   19.9458   21.0594 H   0  0  0  0  0  0  0  0  0  0  0  0
   19.1079   18.4138   21.2324 C   0  0  0  0  0  0  0  0  0  0  0  0
   19.2569   17.5041   20.6325 H   0  0  0  0  0  0  0  0  0  0  0  0
   18.4171   18.0596   22.5663 C   0  0  0  0  0  0  0  0  0  0  0  0
   17.6108   18.7747   22.7790 H   0  0  0  0  0  0  0  0  0  0  0  0
   17.9773   17.0543   22.5383 H   0  0  0  0  0  0  0  0  0  0  0  0
   18.3328   19.3678   20.5163 O   0  0  0  0  0  0  0  0  0  0  0  0
   17.4723   18.9406   20.3199 H   0  0  0  0  0  0  0  0  0  0  0  0
  1  2  1  0  0  0  0
  1  3  1  0  0  0  0
  1  4  1  0  0  0  0
  4  5  1  0  0  0  0
  4  6  1  0  0  0  0
  4  7  1  0  0  0  0
  7  8  1  0  0  0  0
  7  9  1  0  0  0  0
  7 10  1  0  0  0  0
 10 11  1  0  0  0  0
  1 12  1  0  0  0  0
 10 12  1  0  0  0  0
 12 13  1  0  0  0  0
 12 14  1  0  0  0  0
 10 15  1  0  0  0  0
 15 16  1  0  0  0  0
M  END
> <VConfSearch Rank>
452

> <Conf_Id>
33

> <Delta U+W>
0.015

> <U+W>
3.025

> <U>
5.843

> <W>
-2.819

> <W(PB)>
-4.568

> <W(SA)>
1.750

> <Valence>
13.789

> <Coulomb>
-8.574

> <VdW>
0.628

> <VdW6>
-3.284

> <VdW12>
3.913

> <Bond>
0.054

> <Angle>
4.033

> <Pdih>
9.702

> <Idih>
0.000

> <Tether>
0.000

$$$$
VeraChem MOL file


 16 16  0  0  0  0  0  0  0  0999 V2000     
   19.1251   17.7837   23.2768 C   0  0  0  0  0  0  0  0  0  0  0  0
   18.7922   16.7814   22.9737 H   0  0  0  0  0  0  0  0  0  0  0  0
   19.1686   17.8027   24.3744 H   0  0  0  0  0  0  0  0  0  0  0  0
   18.1506   18.8488   22.7284 C   0  0  0  0  0  0  0  0  0  0  0  0
   17.3455   18.3620   22.1609 H   0  0  0  0  0  0  0  0  0  0  0  0
   17.6850   19.4259   23.5392 H   0  0  0  0  0  0  0  0  0  0  0  0
   18.9787   19.7636   21.8011 C   0  0  0  0  0  0  0  0  0  0  0  0
   19.2811   20.6653   22.3500 H   0  0  0  0  0  0  0  0  0  0  0  0
   18.4106   20.0849   20.9179 H   0  0  0  0  0  0  0  0  0  0  0  0
   20.2338   18.9643   21.4259 C   0  0  0  0  0  0  0  0  0  0  0  0
   21.0829   19.6260   21.2017 H   0  0  0  0  0  0  0  0  0  0  0  0
   20.5058   18.0955   22.6612 C   0  0  0  0  0  0  0  0  0  0  0  0
   21.0666   17.1843   22.4137 H   0  0  0  0  0  0  0  0  0  0  0  0
   21.1051   18.6724   23.3779 H   0  0  0  0  0  0  0  0  0  0  0  0
   19.9399   18.1246   20.3190 O   0  0  0  0  0  0  0  0  0  0  0  0
   19.1803   17.5783   20.6082 H   0  0  0  0  0  0  0  0  0  0  0  0
  1  2  1  0  0  0  0
  1  3  1  0  0  0  0
  1  4  1  0  0  0  0
  4  5  1  0  0  0  0
  4  6  1  0  0  0  0
  4  7  1  0  0  0  0
  7  8  1  0  0  0  0
  7  9  1  0  0  0  0
  7 10  1  0  0  0  0
 10 11  1  0  0  0  0
  1 12  1  0  0  0  0
 10 12  1  0  0  0  0
 12 13  1  0  0  0  0
 12 14  1  0  0  0  0
 10 15  1  0  0  0  0
 15 16  1  0  0  0  0
M  END
> <VConfSearch Rank>
453

> <Conf_Id>
20

> <Delta U+W>
-0.483

> <U+W>
2.527

> <U>
4.508

> <W>
-1.981

> <W(PB)>
-3.712

> <W(SA)>
1.732

> <Valence>
14.705

> <Coulomb>
-10.687

> <VdW>
0.490

> <VdW6>
-3.745

> <VdW12>
4.235

> <Bond>
0.068

> <Angle>
3.901

> <Pdih>
10.737

> <Idih>
0.000

> <Tether>
0.000

$$$$
VeraChem MOL file


 16 16  0  0  0  0  0  0  0  0999 V2000     
   19.8101   17.5631   23.2772 C   0  0  0  0  0  0  0  0  0  0  0  0
   18.8925   17.0770   23.6368 H   0  0  0  0  0  0  0  0  0  0  0  0
   20.6697   17.0654   23.7461 H   0  0  0  0  0  0  0  0  0  0  0  0
   19.7561   19.0636   23.5958 C   0  0  0  0  0  0  0  0  0  0  0  0
   19.3203   19.2656   24.5838 H   0  0  0  0  0  0  0  0  0  0  0  0
   20.7718   19.4825   23.5762 H   0  0  0  0  0  0  0  0  0  0  0  0
   18.9210   19.6682   22.4523 C   0  0  0  0  0  0  0  0  0  0  0  0
   19.2106   20.7075   22.2503 H   0  0  0  0  0  0  0  0  0  0  0  0
   17.8596   19.6627   22.7355 H   0  0  0  0  0  0  0  0  0  0  0  0
   19.1508   18.7657   21.2217 C   0  0  0  0  0  0  0  0  0  0  0  0
   19.8022   19.2759   20.4973 H   0  0  0  0  0  0  0  0  0  0  0  0
   19.8599   17.4973   21.7395 C   0  0  0  0  0  0  0  0  0  0  0  0
   19.3976   16.5767   21.3591 H   0  0  0  0  0  0  0  0  0  0  0  0
   20.9050   17.5092   21.4039 H   0  0  0  0  0  0  0  0  0  0  0  0
   17.9057   18.4228   20.6250 O   0  0  0  0  0  0  0  0  0  0  0  0
   17.4965   19.2622   20.3260 H   0  0  0  0  0  0  0  0  0  0  0  0
  1  2  1  0  0  0  0
  1  3  1  0  0  0  0
  1  4  1  0  0  0  0
  4  5  1  0  0  0  0
  4  6  1  0  0  0  0
  4  7  1  0  0  0  0
  7  8  1  0  0  0  0
  7  9  1  0  0  0  0
  7 10  1  0  0  0  0
 10 11  1  0  0  0  0
  1 12  1  0  0  0  0
 10 12  1  0  0  0  0
 12 13  1  0  0  0  0
 12 14  1  0  0  0  0
 10 15  1  0  0  0  0
 15 16  1  0  0  0  0
M  END
> <VConfSearch Rank>
454

> <Conf_Id>
59

> <Delta U+W>
0.000

> <U+W>
3.010

> <U>
5.843

> <W>
-2.833

> <W(PB)>
-4.568

> <W(SA)>
1.735

> <Valence>
13.789

> <Coulomb>
-8.574

> <VdW>
0.628

> <VdW6>
-3.284

> <VdW12>
3.912

> <Bond>
0.054

> <Angle>
4.034

> <Pdih>
9.702

> <Idih>
0.000

> <Tether>
0.000

$$$$
VeraChem MOL file


 16 16  0  0  0  0  0  0  0  0999 V2000     
   19.6754   18.8823   20.9004 C   0  0  0  0  0  0  0  0  0  0  0  0
   20.3055   19.5212   20.2667 H   0  0  0  0  0  0  0  0  0  0  0  0
   19.1424   18.1735   20.2514 H   0  0  0  0  0  0  0  0  0  0  0  0
   18.6629   19.6918   21.7221 C   0  0  0  0  0  0  0  0  0  0  0  0
   19.1374   20.6136   22.0866 H   0  0  0  0  0  0  0  0  0  0  0  0
   17.7750   19.9695   21.1381 H   0  0  0  0  0  0  0  0  0  0  0  0
   18.3200   18.7816   22.9158 C   0  0  0  0  0  0  0  0  0  0  0  0
   17.4621   18.1462   22.6601 H   0  0  0  0  0  0  0  0  0  0  0  0
   18.0492   19.3660   23.8053 H   0  0  0  0  0  0  0  0  0  0  0  0
   19.5541   17.8876   23.1560 C   0  0  0  0  0  0  0  0  0  0  0  0
   19.2380   16.8350   23.1961 H   0  0  0  0  0  0  0  0  0  0  0  0
   20.4937   18.1114   21.9524 C   0  0  0  0  0  0  0  0  0  0  0  0
   21.3602   18.7161   22.2531 H   0  0  0  0  0  0  0  0  0  0  0  0
   20.8688   17.1610   21.5512 H   0  0  0  0  0  0  0  0  0  0  0  0
   20.2050   18.2642   24.3636 O   0  0  0  0  0  0  0  0  0  0  0  0
   20.9829   17.6749   24.4594 H   0  0  0  0  0  0  0  0  0  0  0  0
  1  2  1  0  0  0  0
  1  3  1  0  0  0  0
  1  4  1  0  0  0  0
  4  5  1  0  0  0  0
  4  6  1  0  0  0  0
  4  7  1  0  0  0  0
  7  8  1  0  0  0  0
  7  9  1  0  0  0  0
  7 10  1  0  0  0  0
 10 11  1  0  0  0  0
  1 12  1  0  0  0  0
 10 12  1  0  0  0  0
 12 13  1  0  0  0  0
 12 14  1  0  0  0  0
 10 15  1  0  0  0  0
 15 16  1  0  0  0  0
M  END
> <VConfSearch Rank>
455

> <Conf_Id>
33

> <Delta U+W>
0.015

> <U+W>
3.025

> <U>
5.843

> <W>
-2.819

> <W(PB)>
-4.568

> <W(SA)>
1.750

> <Valence>
13.789

> <Coulomb>
-8.574

> <VdW>
0.628

> <VdW6>
-3.284

> <VdW12>
3.913

> <Bond>
0.054

> <Angle>
4.033

> <Pdih>
9.702

> <Idih>
0.000

> <Tether>
0.000

$$$$
VeraChem MOL file


 16 16  0  0  0  0  0  0  0  0999 V2000     
   20.1828   18.7301   21.1982 C   0  0  0  0  0  0  0  0  0  0  0  0
   20.1368   17.8849   20.4978 H   0  0  0  0  0  0  0  0  0  0  0  0
   20.8950   19.4613   20.7920 H   0  0  0  0  0  0  0  0  0  0  0  0
   20.6147   18.2321   22.5948 C   0  0  0  0  0  0  0  0  0  0  0  0
   20.7788   17.1460   22.5700 H   0  0  0  0  0  0  0  0  0  0  0  0
   21.5524   18.7035   22.9195 H   0  0  0  0  0  0  0  0  0  0  0  0
   19.4587   18.5748   23.5585 C   0  0  0  0  0  0  0  0  0  0  0  0
   19.6848   19.5120   24.0840 H   0  0  0  0  0  0  0  0  0  0  0  0
   19.3040   17.7955   24.3167 H   0  0  0  0  0  0  0  0  0  0  0  0
   18.2191   18.7835   22.6783 C   0  0  0  0  0  0  0  0  0  0  0  0
   17.5021   19.4733   23.1463 H   0  0  0  0  0  0  0  0  0  0  0  0
   18.7825   19.3562   21.3707 C   0  0  0  0  0  0  0  0  0  0  0  0
   18.1279   19.1548   20.5123 H   0  0  0  0  0  0  0  0  0  0  0  0
   18.8774   20.4455   21.4702 H   0  0  0  0  0  0  0  0  0  0  0  0
   17.6146   17.5256   22.4158 O   0  0  0  0  0  0  0  0  0  0  0  0
   18.3200   16.9847   22.0046 H   0  0  0  0  0  0  0  0  0  0  0  0
  1  2  1  0  0  0  0
  1  3  1  0  0  0  0
  1  4  1  0  0  0  0
  4  5  1  0  0  0  0
  4  6  1  0  0  0  0
  4  7  1  0  0  0  0
  7  8  1  0  0  0  0
  7  9  1  0  0  0  0
  7 10  1  0  0  0  0
 10 11  1  0  0  0  0
  1 12  1  0  0  0  0
 10 12  1  0  0  0  0
 12 13  1  0  0  0  0
 12 14  1  0  0  0  0
 10 15  1  0  0  0  0
 15 16  1  0  0  0  0
M  END
> <VConfSearch Rank>
456

> <Conf_Id>
20

> <Delta U+W>
-0.483

> <U+W>
2.527

> <U>
4.508

> <W>
-1.981

> <W(PB)>
-3.712

> <W(SA)>
1.732

> <Valence>
14.705

> <Coulomb>
-10.687

> <VdW>
0.490

> <VdW6>
-3.745

> <VdW12>
4.235

> <Bond>
0.068

> <Angle>
3.901

> <Pdih>
10.737

> <Idih>
0.000

> <Tether>
0.000

$$$$
VeraChem MOL file


 16 16  0  0  0  0  0  0  0  0999 V2000     
   18.1176   18.7380   23.0496 C   0  0  0  0  0  0  0  0  0  0  0  0
   17.5560   19.4889   22.4765 H   0  0  0  0  0  0  0  0  0  0  0  0
   17.4917   18.4075   23.8897 H   0  0  0  0  0  0  0  0  0  0  0  0
   19.4522   19.3375   23.5134 C   0  0  0  0  0  0  0  0  0  0  0  0
   19.3514   20.3829   23.8355 H   0  0  0  0  0  0  0  0  0  0  0  0
   19.8460   18.7543   24.3574 H   0  0  0  0  0  0  0  0  0  0  0  0
   20.3834   19.1865   22.2965 C   0  0  0  0  0  0  0  0  0  0  0  0
   21.4318   19.0819   22.6042 H   0  0  0  0  0  0  0  0  0  0  0  0
   20.3047   20.0823   21.6655 H   0  0  0  0  0  0  0  0  0  0  0  0
   19.8921   17.9438   21.5245 C   0  0  0  0  0  0  0  0  0  0  0  0
   20.5898   17.1071   21.6749 H   0  0  0  0  0  0  0  0  0  0  0  0
   18.5185   17.5757   22.1226 C   0  0  0  0  0  0  0  0  0  0  0  0
   17.7610   17.3967   21.3479 H   0  0  0  0  0  0  0  0  0  0  0  0
   18.6194   16.6539   22.7100 H   0  0  0  0  0  0  0  0  0  0  0  0
   19.7595   18.2463   20.1407 O   0  0  0  0  0  0  0  0  0  0  0  0
   20.6546   18.4824   19.8174 H   0  0  0  0  0  0  0  0  0  0  0  0
  1  2  1  0  0  0  0
  1  3  1  0  0  0  0
  1  4  1  0  0  0  0
  4  5  1  0  0  0  0
  4  6  1  0  0  0  0
  4  7  1  0  0  0  0
  7  8  1  0  0  0  0
  7  9  1  0  0  0  0
  7 10  1  0  0  0  0
 10 11  1  0  0  0  0
  1 12  1  0  0  0  0
 10 12  1  0  0  0  0
 12 13  1  0  0  0  0
 12 14  1  0  0  0  0
 10 15  1  0  0  0  0
 15 16  1  0  0  0  0
M  END
> <VConfSearch Rank>
457

> <Conf_Id>
59

> <Delta U+W>
0.000

> <U+W>
3.010

> <U>
5.843

> <W>
-2.833

> <W(PB)>
-4.568

> <W(SA)>
1.735

> <Valence>
13.789

> <Coulomb>
-8.574

> <VdW>
0.628

> <VdW6>
-3.284

> <VdW12>
3.912

> <Bond>
0.054

> <Angle>
4.034

> <Pdih>
9.702

> <Idih>
0.000

> <Tether>
0.000

$$$$
VeraChem MOL file


 16 16  0  0  0  0  0  0  0  0999 V2000     
   19.5065   18.8148   23.7125 C   0  0  0  0  0  0  0  0  0  0  0  0
   20.0845   19.3875   24.4505 H   0  0  0  0  0  0  0  0  0  0  0  0
   18.6559   18.3486   24.2290 H   0  0  0  0  0  0  0  0  0  0  0  0
   20.3487   17.7321   23.0238 C   0  0  0  0  0  0  0  0  0  0  0  0
   21.3562   18.1220   22.8222 H   0  0  0  0  0  0  0  0  0  0  0  0
   20.4467   16.8248   23.6351 H   0  0  0  0  0  0  0  0  0  0  0  0
   19.6221   17.4679   21.6921 C   0  0  0  0  0  0  0  0  0  0  0  0
   18.8802   16.6704   21.8291 H   0  0  0  0  0  0  0  0  0  0  0  0
   20.3197   17.1438   20.9083 H   0  0  0  0  0  0  0  0  0  0  0  0
   18.8922   18.7757   21.3222 C   0  0  0  0  0  0  0  0  0  0  0  0
   17.8372   18.5540   21.1050 H   0  0  0  0  0  0  0  0  0  0  0  0
   18.9954   19.6952   22.5574 C   0  0  0  0  0  0  0  0  0  0  0  0
   19.7152   20.5038   22.3709 H   0  0  0  0  0  0  0  0  0  0  0  0
   18.0284   20.1542   22.8005 H   0  0  0  0  0  0  0  0  0  0  0  0
   19.5193   19.3872   20.2012 O   0  0  0  0  0  0  0  0  0  0  0  0
   19.0247   20.2140   20.0187 H   0  0  0  0  0  0  0  0  0  0  0  0
  1  2  1  0  0  0  0
  1  3  1  0  0  0  0
  1  4  1  0  0  0  0
  4  5  1  0  0  0  0
  4  6  1  0  0  0  0
  4  7  1  0  0  0  0
  7  8  1  0  0  0  0
  7  9  1  0  0  0  0
  7 10  1  0  0  0  0
 10 11  1  0  0  0  0
  1 12  1  0  0  0  0
 10 12  1  0  0  0  0
 12 13  1  0  0  0  0
 12 14  1  0  0  0  0
 10 15  1  0  0  0  0
 15 16  1  0  0  0  0
M  END
> <VConfSearch Rank>
458

> <Conf_Id>
33

> <Delta U+W>
0.015

> <U+W>
3.025

> <U>
5.843

> <W>
-2.819

> <W(PB)>
-4.568

> <W(SA)>
1.750

> <Valence>
13.789

> <Coulomb>
-8.574

> <VdW>
0.628

> <VdW6>
-3.284

> <VdW12>
3.913

> <Bond>
0.054

> <Angle>
4.033

> <Pdih>
9.702

> <Idih>
0.000

> <Tether>
0.000

$$$$
VeraChem MOL file


 16 16  0  0  0  0  0  0  0  0999 V2000     
   19.4529   18.6440   20.9246 C   0  0  0  0  0  0  0  0  0  0  0  0
   18.4820   18.5708   20.4154 H   0  0  0  0  0  0  0  0  0  0  0  0
   20.2276   18.7445   20.1522 H   0  0  0  0  0  0  0  0  0  0  0  0
   19.6826   17.3926   21.7999 C   0  0  0  0  0  0  0  0  0  0  0  0
   18.8234   16.7132   21.7135 H   0  0  0  0  0  0  0  0  0  0  0  0
   20.5781   16.8390   21.4860 H   0  0  0  0  0  0  0  0  0  0  0  0
   19.8216   17.8944   23.2530 C   0  0  0  0  0  0  0  0  0  0  0  0
   20.8853   17.9791   23.5116 H   0  0  0  0  0  0  0  0  0  0  0  0
   19.3554   17.2113   23.9756 H   0  0  0  0  0  0  0  0  0  0  0  0
   19.1887   19.2921   23.2825 C   0  0  0  0  0  0  0  0  0  0  0  0
   19.6346   19.9217   24.0659 H   0  0  0  0  0  0  0  0  0  0  0  0
   19.4629   19.8551   21.8815 C   0  0  0  0  0  0  0  0  0  0  0  0
   18.7319   20.6214   21.5907 H   0  0  0  0  0  0  0  0  0  0  0  0
   20.4569   20.3213   21.8728 H   0  0  0  0  0  0  0  0  0  0  0  0
   17.7866   19.1667   23.4700 O   0  0  0  0  0  0  0  0  0  0  0  0
   17.4812   18.5965   22.7347 H   0  0  0  0  0  0  0  0  0  0  0  0
  1  2  1  0  0  0  0
  1  3  1  0  0  0  0
  1  4  1  0  0  0  0
  4  5  1  0  0  0  0
  4  6  1  0  0  0  0
  4  7  1  0  0  0  0
  7  8  1  0  0  0  0
  7  9  1  0  0  0  0
  7 10  1  0  0  0  0
 10 11  1  0  0  0  0
  1 12  1  0  0  0  0
 10 12  1  0  0  0  0
 12 13  1  0  0  0  0
 12 14  1  0  0  0  0
 10 15  1  0  0  0  0
 15 16  1  0  0  0  0
M  END
> <VConfSearch Rank>
459

> <Conf_Id>
20

> <Delta U+W>
-0.483

> <U+W>
2.527

> <U>
4.508

> <W>
-1.981

> <W(PB)>
-3.712

> <W(SA)>
1.732

> <Valence>
14.705

> <Coulomb>
-10.687

> <VdW>
0.490

> <VdW6>
-3.745

> <VdW12>
4.235

> <Bond>
0.068

> <Angle>
3.901

> <Pdih>
10.737

> <Idih>
0.000

> <Tether>
0.000

$$$$
VeraChem MOL file


 16 16  0  0  0  0  0  0  0  0999 V2000     
   19.9731   17.5059   21.5162 C   0  0  0  0  0  0  0  0  0  0  0  0
   19.6816   17.7290   20.4804 H   0  0  0  0  0  0  0  0  0  0  0  0
   20.6410   16.6338   21.5055 H   0  0  0  0  0  0  0  0  0  0  0  0
   18.7161   17.2712   22.3651 C   0  0  0  0  0  0  0  0  0  0  0  0
   17.9471   16.7025   21.8248 H   0  0  0  0  0  0  0  0  0  0  0  0
   18.9823   16.7122   23.2731 H   0  0  0  0  0  0  0  0  0  0  0  0
   18.2406   18.6855   22.7447 C   0  0  0  0  0  0  0  0  0  0  0  0
   17.7139   18.6866   23.7077 H   0  0  0  0  0  0  0  0  0  0  0  0
   17.5439   19.0522   21.9786 H   0  0  0  0  0  0  0  0  0  0  0  0
   19.5032   19.5719   22.7876 C   0  0  0  0  0  0  0  0  0  0  0  0
   19.7675   19.8002   23.8304 H   0  0  0  0  0  0  0  0  0  0  0  0
   20.6360   18.7460   22.1439 C   0  0  0  0  0  0  0  0  0  0  0  0
   21.2011   19.3226   21.3995 H   0  0  0  0  0  0  0  0  0  0  0  0
   21.3389   18.4317   22.9263 H   0  0  0  0  0  0  0  0  0  0  0  0
   19.2881   20.7687   22.0492 O   0  0  0  0  0  0  0  0  0  0  0  0
   18.5553   21.2454   22.4934 H   0  0  0  0  0  0  0  0  0  0  0  0
  1  2  1  0  0  0  0
  1  3  1  0  0  0  0
  1  4  1  0  0  0  0
  4  5  1  0  0  0  0
  4  6  1  0  0  0  0
  4  7  1  0  0  0  0
  7  8  1  0  0  0  0
  7  9  1  0  0  0  0
  7 10  1  0  0  0  0
 10 11  1  0  0  0  0
  1 12  1  0  0  0  0
 10 12  1  0  0  0  0
 12 13  1  0  0  0  0
 12 14  1  0  0  0  0
 10 15  1  0  0  0  0
 15 16  1  0  0  0  0
M  END
> <VConfSearch Rank>
460

> <Conf_Id>
59

> <Delta U+W>
0.000

> <U+W>
3.010

> <U>
5.843

> <W>
-2.833

> <W(PB)>
-4.568

> <W(SA)>
1.735

> <Valence>
13.789

> <Coulomb>
-8.574

> <VdW>
0.628

> <VdW6>
-3.284

> <VdW12>
3.912

> <Bond>
0.054

> <Angle>
4.034

> <Pdih>
9.702

> <Idih>
0.000

> <Tether>
0.000

$$$$
VeraChem MOL file


 16 16  0  0  0  0  0  0  0  0999 V2000     
   18.6547   18.8043   23.4705 C   0  0  0  0  0  0  0  0  0  0  0  0
   18.3818   18.2659   24.3883 H   0  0  0  0  0  0  0  0  0  0  0  0
   18.2783   19.8336   23.5512 H   0  0  0  0  0  0  0  0  0  0  0  0
   18.0791   18.1413   22.2116 C   0  0  0  0  0  0  0  0  0  0  0  0
   18.1476   17.0486   22.3067 H   0  0  0  0  0  0  0  0  0  0  0  0
   17.0268   18.4066   22.0415 H   0  0  0  0  0  0  0  0  0  0  0  0
   18.9971   18.6182   21.0710 C   0  0  0  0  0  0  0  0  0  0  0  0
   18.6027   19.5503   20.6459 H   0  0  0  0  0  0  0  0  0  0  0  0
   19.0526   17.8790   20.2607 H   0  0  0  0  0  0  0  0  0  0  0  0
   20.3758   18.8979   21.7039 C   0  0  0  0  0  0  0  0  0  0  0  0
   20.7097   19.9057   21.4169 H   0  0  0  0  0  0  0  0  0  0  0  0
   20.1757   18.8230   23.2323 C   0  0  0  0  0  0  0  0  0  0  0  0
   20.6169   17.8986   23.6292 H   0  0  0  0  0  0  0  0  0  0  0  0
   20.6513   19.6700   23.7434 H   0  0  0  0  0  0  0  0  0  0  0  0
   21.3167   17.9171   21.2834 O   0  0  0  0  0  0  0  0  0  0  0  0
   22.1660   18.1359   21.7218 H   0  0  0  0  0  0  0  0  0  0  0  0
  1  2  1  0  0  0  0
  1  3  1  0  0  0  0
  1  4  1  0  0  0  0
  4  5  1  0  0  0  0
  4  6  1  0  0  0  0
  4  7  1  0  0  0  0
  7  8  1  0  0  0  0
  7  9  1  0  0  0  0
  7 10  1  0  0  0  0
 10 11  1  0  0  0  0
  1 12  1  0  0  0  0
 10 12  1  0  0  0  0
 12 13  1  0  0  0  0
 12 14  1  0  0  0  0
 10 15  1  0  0  0  0
 15 16  1  0  0  0  0
M  END
> <VConfSearch Rank>
461

> <Conf_Id>
33

> <Delta U+W>
0.015

> <U+W>
3.025

> <U>
5.843

> <W>
-2.819

> <W(PB)>
-4.568

> <W(SA)>
1.750

> <Valence>
13.789

> <Coulomb>
-8.574

> <VdW>
0.628

> <VdW6>
-3.284

> <VdW12>
3.913

> <Bond>
0.054

> <Angle>
4.033

> <Pdih>
9.702

> <Idih>
0.000

> <Tether>
0.000

$$$$
VeraChem MOL file


 16 16  0  0  0  0  0  0  0  0999 V2000     
   20.2163   18.0516   23.1359 C   0  0  0  0  0  0  0  0  0  0  0  0
   19.7616   17.2711   23.7614 H   0  0  0  0  0  0  0  0  0  0  0  0
   21.2747   18.1315   23.4195 H   0  0  0  0  0  0  0  0  0  0  0  0
   19.4711   19.3887   23.3400 C   0  0  0  0  0  0  0  0  0  0  0  0
   18.6564   19.2556   24.0652 H   0  0  0  0  0  0  0  0  0  0  0  0
   20.1399   20.1684   23.7295 H   0  0  0  0  0  0  0  0  0  0  0  0
   18.8991   19.7858   21.9625 C   0  0  0  0  0  0  0  0  0  0  0  0
   19.5718   20.5071   21.4801 H   0  0  0  0  0  0  0  0  0  0  0  0
   17.9089   20.2539   22.0422 H   0  0  0  0  0  0  0  0  0  0  0  0
   18.8680   18.4983   21.1280 C   0  0  0  0  0  0  0  0  0  0  0  0
   18.9544   18.7109   20.0527 H   0  0  0  0  0  0  0  0  0  0  0  0
   20.0677   17.6914   21.6424 C   0  0  0  0  0  0  0  0  0  0  0  0
   19.9413   16.6119   21.4850 H   0  0  0  0  0  0  0  0  0  0  0  0
   20.9682   18.0052   21.0980 H   0  0  0  0  0  0  0  0  0  0  0  0
   17.6711   17.7874   21.4093 O   0  0  0  0  0  0  0  0  0  0  0  0
   17.6812   17.6449   22.3782 H   0  0  0  0  0  0  0  0  0  0  0  0
  1  2  1  0  0  0  0
  1  3  1  0  0  0  0
  1  4  1  0  0  0  0
  4  5  1  0  0  0  0
  4  6  1  0  0  0  0
  4  7  1  0  0  0  0
  7  8  1  0  0  0  0
  7  9  1  0  0  0  0
  7 10  1  0  0  0  0
 10 11  1  0  0  0  0
  1 12  1  0  0  0  0
 10 12  1  0  0  0  0
 12 13  1  0  0  0  0
 12 14  1  0  0  0  0
 10 15  1  0  0  0  0
 15 16  1  0  0  0  0
M  END
> <VConfSearch Rank>
462

> <Conf_Id>
20

> <Delta U+W>
-0.483

> <U+W>
2.527

> <U>
4.508

> <W>
-1.981

> <W(PB)>
-3.712

> <W(SA)>
1.732

> <Valence>
14.705

> <Coulomb>
-10.687

> <VdW>
0.490

> <VdW6>
-3.745

> <VdW12>
4.235

> <Bond>
0.068

> <Angle>
3.901

> <Pdih>
10.737

> <Idih>
0.000

> <Tether>
0.000

$$$$
VeraChem MOL file


 16 16  0  0  0  0  0  0  0  0999 V2000     
   18.1647   19.1813   21.7700 C   0  0  0  0  0  0  0  0  0  0  0  0
   18.5024   20.1576   21.3951 H   0  0  0  0  0  0  0  0  0  0  0  0
   17.0989   19.0699   21.5285 H   0  0  0  0  0  0  0  0  0  0  0  0
   18.4371   19.0872   23.2776 C   0  0  0  0  0  0  0  0  0  0  0  0
   18.2313   20.0317   23.7993 H   0  0  0  0  0  0  0  0  0  0  0  0
   17.8037   18.3054   23.7195 H   0  0  0  0  0  0  0  0  0  0  0  0
   19.9173   18.6748   23.3744 C   0  0  0  0  0  0  0  0  0  0  0  0
   20.1128   18.0923   24.2840 H   0  0  0  0  0  0  0  0  0  0  0  0
   20.5440   19.5764   23.4099 H   0  0  0  0  0  0  0  0  0  0  0  0
   20.2257   17.8591   22.1011 C   0  0  0  0  0  0  0  0  0  0  0  0
   20.3126   16.7914   22.3500 H   0  0  0  0  0  0  0  0  0  0  0  0
   19.0270   18.0652   21.1522 C   0  0  0  0  0  0  0  0  0  0  0  0
   19.3425   18.3166   20.1308 H   0  0  0  0  0  0  0  0  0  0  0  0
   18.4458   17.1353   21.1025 H   0  0  0  0  0  0  0  0  0  0  0  0
   21.4208   18.3330   21.4920 O   0  0  0  0  0  0  0  0  0  0  0  0
   22.1430   18.1883   22.1394 H   0  0  0  0  0  0  0  0  0  0  0  0
  1  2  1  0  0  0  0
  1  3  1  0  0  0  0
  1  4  1  0  0  0  0
  4  5  1  0  0  0  0
  4  6  1  0  0  0  0
  4  7  1  0  0  0  0
  7  8  1  0  0  0  0
  7  9  1  0  0  0  0
  7 10  1  0  0  0  0
 10 11  1  0  0  0  0
  1 12  1  0  0  0  0
 10 12  1  0  0  0  0
 12 13  1  0  0  0  0
 12 14  1  0  0  0  0
 10 15  1  0  0  0  0
 15 16  1  0  0  0  0
M  END
> <VConfSearch Rank>
463

> <Conf_Id>
59

> <Delta U+W>
0.000

> <U+W>
3.010

> <U>
5.843

> <W>
-2.833

> <W(PB)>
-4.568

> <W(SA)>
1.735

> <Valence>
13.789

> <Coulomb>
-8.574

> <VdW>
0.628

> <VdW6>
-3.284

> <VdW12>
3.912

> <Bond>
0.054

> <Angle>
4.034

> <Pdih>
9.702

> <Idih>
0.000

> <Tether>
0.000

$$$$
VeraChem MOL file


 16 16  0  0  0  0  0  0  0  0999 V2000     
   18.4838   18.6819   23.3498 C   0  0  0  0  0  0  0  0  0  0  0  0
   18.4193   18.5090   24.4327 H   0  0  0  0  0  0  0  0  0  0  0  0
   17.5443   19.1466   23.0196 H   0  0  0  0  0  0  0  0  0  0  0  0
   18.7221   17.3848   22.5645 C   0  0  0  0  0  0  0  0  0  0  0  0
   19.4312   16.7481   23.1117 H   0  0  0  0  0  0  0  0  0  0  0  0
   17.7971   16.8136   22.4074 H   0  0  0  0  0  0  0  0  0  0  0  0
   19.3592   17.8473   21.2412 C   0  0  0  0  0  0  0  0  0  0  0  0
   18.5720   18.0397   20.5007 H   0  0  0  0  0  0  0  0  0  0  0  0
   20.0285   17.0822   20.8256 H   0  0  0  0  0  0  0  0  0  0  0  0
   20.0968   19.1675   21.5459 C   0  0  0  0  0  0  0  0  0  0  0  0
   19.7847   19.9336   20.8212 H   0  0  0  0  0  0  0  0  0  0  0  0
   19.6726   19.5836   22.9702 C   0  0  0  0  0  0  0  0  0  0  0  0
   20.4964   19.4155   23.6771 H   0  0  0  0  0  0  0  0  0  0  0  0
   19.4007   20.6461   23.0159 H   0  0  0  0  0  0  0  0  0  0  0  0
   21.5042   18.9669   21.4918 O   0  0  0  0  0  0  0  0  0  0  0  0
   21.9196   19.8297   21.7030 H   0  0  0  0  0  0  0  0  0  0  0  0
  1  2  1  0  0  0  0
  1  3  1  0  0  0  0
  1  4  1  0  0  0  0
  4  5  1  0  0  0  0
  4  6  1  0  0  0  0
  4  7  1  0  0  0  0
  7  8  1  0  0  0  0
  7  9  1  0  0  0  0
  7 10  1  0  0  0  0
 10 11  1  0  0  0  0
  1 12  1  0  0  0  0
 10 12  1  0  0  0  0
 12 13  1  0  0  0  0
 12 14  1  0  0  0  0
 10 15  1  0  0  0  0
 15 16  1  0  0  0  0
M  END
> <VConfSearch Rank>
464

> <Conf_Id>
33

> <Delta U+W>
0.015

> <U+W>
3.025

> <U>
5.843

> <W>
-2.819

> <W(PB)>
-4.568

> <W(SA)>
1.750

> <Valence>
13.789

> <Coulomb>
-8.574

> <VdW>
0.628

> <VdW6>
-3.284

> <VdW12>
3.913

> <Bond>
0.054

> <Angle>
4.033

> <Pdih>
9.702

> <Idih>
0.000

> <Tether>
0.000

$$$$
VeraChem MOL file


 16 16  0  0  0  0  0  0  0  0999 V2000     
   20.4830   19.2893   21.9364 C   0  0  0  0  0  0  0  0  0  0  0  0
   20.4031   19.8679   21.0058 H   0  0  0  0  0  0  0  0  0  0  0  0
   21.4852   19.4625   22.3517 H   0  0  0  0  0  0  0  0  0  0  0  0
   20.2394   17.7920   21.6465 C   0  0  0  0  0  0  0  0  0  0  0  0
   20.0428   17.6460   20.5754 H   0  0  0  0  0  0  0  0  0  0  0  0
   21.1140   17.1820   21.9110 H   0  0  0  0  0  0  0  0  0  0  0  0
   19.0046   17.3808   22.4762 C   0  0  0  0  0  0  0  0  0  0  0  0
   19.3320   16.9032   23.4092 H   0  0  0  0  0  0  0  0  0  0  0  0
   18.3635   16.6666   21.9424 H   0  0  0  0  0  0  0  0  0  0  0  0
   18.2672   18.6832   22.8152 C   0  0  0  0  0  0  0  0  0  0  0  0
   17.6984   18.5940   23.7520 H   0  0  0  0  0  0  0  0  0  0  0  0
   19.3869   19.7262   22.9315 C   0  0  0  0  0  0  0  0  0  0  0  0
   19.0281   20.7453   22.7346 H   0  0  0  0  0  0  0  0  0  0  0  0
   19.7891   19.7051   23.9529 H   0  0  0  0  0  0  0  0  0  0  0  0
   17.4134   19.0319   21.7353 O   0  0  0  0  0  0  0  0  0  0  0  0
   18.0010   19.0879   20.9538 H   0  0  0  0  0  0  0  0  0  0  0  0
  1  2  1  0  0  0  0
  1  3  1  0  0  0  0
  1  4  1  0  0  0  0
  4  5  1  0  0  0  0
  4  6  1  0  0  0  0
  4  7  1  0  0  0  0
  7  8  1  0  0  0  0
  7  9  1  0  0  0  0
  7 10  1  0  0  0  0
 10 11  1  0  0  0  0
  1 12  1  0  0  0  0
 10 12  1  0  0  0  0
 12 13  1  0  0  0  0
 12 14  1  0  0  0  0
 10 15  1  0  0  0  0
 15 16  1  0  0  0  0
M  END
> <VConfSearch Rank>
465

> <Conf_Id>
20

> <Delta U+W>
-0.483

> <U+W>
2.527

> <U>
4.508

> <W>
-1.981

> <W(PB)>
-3.712

> <W(SA)>
1.732

> <Valence>
14.705

> <Coulomb>
-10.687

> <VdW>
0.490

> <VdW6>
-3.745

> <VdW12>
4.235

> <Bond>
0.068

> <Angle>
3.901

> <Pdih>
10.737

> <Idih>
0.000

> <Tether>
0.000

$$$$
VeraChem MOL file


 16 16  0  0  0  0  0  0  0  0999 V2000     
   20.2139   19.2385   23.2696 C   0  0  0  0  0  0  0  0  0  0  0  0
   19.5361   19.5809   24.0640 H   0  0  0  0  0  0  0  0  0  0  0  0
   21.2409   19.5034   23.5556 H   0  0  0  0  0  0  0  0  0  0  0  0
   19.7975   19.8663   21.9323 C   0  0  0  0  0  0  0  0  0  0  0  0
   19.4853   20.9138   22.0415 H   0  0  0  0  0  0  0  0  0  0  0  0
   20.6408   19.8306   21.2287 H   0  0  0  0  0  0  0  0  0  0  0  0
   18.6571   18.9650   21.4247 C   0  0  0  0  0  0  0  0  0  0  0  0
   18.6115   18.9551   20.3280 H   0  0  0  0  0  0  0  0  0  0  0  0
   17.6977   19.3476   21.7988 H   0  0  0  0  0  0  0  0  0  0  0  0
   18.9296   17.5566   21.9938 C   0  0  0  0  0  0  0  0  0  0  0  0
   19.2906   16.8915   21.1957 H   0  0  0  0  0  0  0  0  0  0  0  0
   20.0353   17.7240   23.0565 C   0  0  0  0  0  0  0  0  0  0  0  0
   19.7919   17.2096   23.9958 H   0  0  0  0  0  0  0  0  0  0  0  0
   20.9691   17.2933   22.6725 H   0  0  0  0  0  0  0  0  0  0  0  0
   17.7501   17.0319   22.5914 O   0  0  0  0  0  0  0  0  0  0  0  0
   17.0822   16.9574   21.8773 H   0  0  0  0  0  0  0  0  0  0  0  0
  1  2  1  0  0  0  0
  1  3  1  0  0  0  0
  1  4  1  0  0  0  0
  4  5  1  0  0  0  0
  4  6  1  0  0  0  0
  4  7  1  0  0  0  0
  7  8  1  0  0  0  0
  7  9  1  0  0  0  0
  7 10  1  0  0  0  0
 10 11  1  0  0  0  0
  1 12  1  0  0  0  0
 10 12  1  0  0  0  0
 12 13  1  0  0  0  0
 12 14  1  0  0  0  0
 10 15  1  0  0  0  0
 15 16  1  0  0  0  0
M  END
> <VConfSearch Rank>
466

> <Conf_Id>
59

> <Delta U+W>
0.000

> <U+W>
3.010

> <U>
5.843

> <W>
-2.833

> <W(PB)>
-4.568

> <W(SA)>
1.735

> <Valence>
13.789

> <Coulomb>
-8.574

> <VdW>
0.628

> <VdW6>
-3.284

> <VdW12>
3.912

> <Bond>
0.054

> <Angle>
4.034

> <Pdih>
9.702

> <Idih>
0.000

> <Tether>
0.000

$$$$
VeraChem MOL file


 16 16  0  0  0  0  0  0  0  0999 V2000     
   18.6040   17.8066   21.4603 C   0  0  0  0  0  0  0  0  0  0  0  0
   18.1946   16.7878   21.4273 H   0  0  0  0  0  0  0  0  0  0  0  0
   18.1227   18.3962   20.6676 H   0  0  0  0  0  0  0  0  0  0  0  0
   20.1267   17.8305   21.2691 C   0  0  0  0  0  0  0  0  0  0  0  0
   20.5789   16.9866   21.8086 H   0  0  0  0  0  0  0  0  0  0  0  0
   20.4181   17.7593   20.2124 H   0  0  0  0  0  0  0  0  0  0  0  0
   20.5753   19.1547   21.9144 C   0  0  0  0  0  0  0  0  0  0  0  0
   20.5630   19.9540   21.1620 H   0  0  0  0  0  0  0  0  0  0  0  0
   21.5969   19.0855   22.3112 H   0  0  0  0  0  0  0  0  0  0  0  0
   19.5417   19.4814   23.0120 C   0  0  0  0  0  0  0  0  0  0  0  0
   19.1808   20.5114   22.8763 H   0  0  0  0  0  0  0  0  0  0  0  0
   18.3783   18.4849   22.8239 C   0  0  0  0  0  0  0  0  0  0  0  0
   18.3973   17.7238   23.6158 H   0  0  0  0  0  0  0  0  0  0  0  0
   17.4044   18.9895   22.8646 H   0  0  0  0  0  0  0  0  0  0  0  0
   20.1249   19.3178   24.2993 O   0  0  0  0  0  0  0  0  0  0  0  0
   19.4249   19.5260   24.9537 H   0  0  0  0  0  0  0  0  0  0  0  0
  1  2  1  0  0  0  0
  1  3  1  0  0  0  0
  1  4  1  0  0  0  0
  4  5  1  0  0  0  0
  4  6  1  0  0  0  0
  4  7  1  0  0  0  0
  7  8  1  0  0  0  0
  7  9  1  0  0  0  0
  7 10  1  0  0  0  0
 10 11  1  0  0  0  0
  1 12  1  0  0  0  0
 10 12  1  0  0  0  0
 12 13  1  0  0  0  0
 12 14  1  0  0  0  0
 10 15  1  0  0  0  0
 15 16  1  0  0  0  0
M  END
> <VConfSearch Rank>
467

> <Conf_Id>
33

> <Delta U+W>
0.015

> <U+W>
3.025

> <U>
5.843

> <W>
-2.819

> <W(PB)>
-4.568

> <W(SA)>
1.750

> <Valence>
13.789

> <Coulomb>
-8.574

> <VdW>
0.628

> <VdW6>
-3.284

> <VdW12>
3.913

> <Bond>
0.054

> <Angle>
4.033

> <Pdih>
9.702

> <Idih>
0.000

> <Tether>
0.000

$$$$
VeraChem MOL file


 16 16  0  0  0  0  0  0  0  0999 V2000     
   19.8921   18.2190   23.4276 C   0  0  0  0  0  0  0  0  0  0  0  0
   19.1533   18.1162   24.2344 H   0  0  0  0  0  0  0  0  0  0  0  0
   20.8731   17.9411   23.8367 H   0  0  0  0  0  0  0  0  0  0  0  0
   19.8891   19.6683   22.8943 C   0  0  0  0  0  0  0  0  0  0  0  0
   19.1497   20.2672   23.4436 H   0  0  0  0  0  0  0  0  0  0  0  0
   20.8689   20.1482   23.0234 H   0  0  0  0  0  0  0  0  0  0  0  0
   19.5048   19.5846   21.4017 C   0  0  0  0  0  0  0  0  0  0  0  0
   20.4140   19.6118   20.7867 H   0  0  0  0  0  0  0  0  0  0  0  0
   18.8649   20.4205   21.0892 H   0  0  0  0  0  0  0  0  0  0  0  0
   18.8176   18.2252   21.2153 C   0  0  0  0  0  0  0  0  0  0  0  0
   18.9382   17.8481   20.1895 H   0  0  0  0  0  0  0  0  0  0  0  0
   19.5107   17.3138   22.2371 C   0  0  0  0  0  0  0  0  0  0  0  0
   18.8753   16.4714   22.5414 H   0  0  0  0  0  0  0  0  0  0  0  0
   20.4213   16.8991   21.7850 H   0  0  0  0  0  0  0  0  0  0  0  0
   17.4434   18.3457   21.5525 O   0  0  0  0  0  0  0  0  0  0  0  0
   17.4352   18.6837   22.4716 H   0  0  0  0  0  0  0  0  0  0  0  0
  1  2  1  0  0  0  0
  1  3  1  0  0  0  0
  1  4  1  0  0  0  0
  4  5  1  0  0  0  0
  4  6  1  0  0  0  0
  4  7  1  0  0  0  0
  7  8  1  0  0  0  0
  7  9  1  0  0  0  0
  7 10  1  0  0  0  0
 10 11  1  0  0  0  0
  1 12  1  0  0  0  0
 10 12  1  0  0  0  0
 12 13  1  0  0  0  0
 12 14  1  0  0  0  0
 10 15  1  0  0  0  0
 15 16  1  0  0  0  0
M  END
> <VConfSearch Rank>
468

> <Conf_Id>
20

> <Delta U+W>
-0.483

> <U+W>
2.527

> <U>
4.508

> <W>
-1.981

> <W(PB)>
-3.712

> <W(SA)>
1.732

> <Valence>
14.705

> <Coulomb>
-10.687

> <VdW>
0.490

> <VdW6>
-3.745

> <VdW12>
4.235

> <Bond>
0.068

> <Angle>
3.901

> <Pdih>
10.737

> <Idih>
0.000

> <Tether>
0.000

$$$$
VeraChem MOL file


 16 16  0  0  0  0  0  0  0  0999 V2000     
   18.0610   19.1971   22.1802 C   0  0  0  0  0  0  0  0  0  0  0  0
   17.3417   18.3707   22.0941 H   0  0  0  0  0  0  0  0  0  0  0  0
   17.5007   20.1419   22.1860 H   0  0  0  0  0  0  0  0  0  0  0  0
   19.0713   19.1217   21.0272 C   0  0  0  0  0  0  0  0  0  0  0  0
   18.6004   18.8356   20.0769 H   0  0  0  0  0  0  0  0  0  0  0  0
   19.5514   20.1009   20.8917 H   0  0  0  0  0  0  0  0  0  0  0  0
   20.1138   18.0911   21.4981 C   0  0  0  0  0  0  0  0  0  0  0  0
   21.1028   18.2959   21.0683 H   0  0  0  0  0  0  0  0  0  0  0  0
   19.8057   17.0881   21.1728 H   0  0  0  0  0  0  0  0  0  0  0  0
   20.1377   18.1697   23.0391 C   0  0  0  0  0  0  0  0  0  0  0  0
   21.0543   18.6755   23.3761 H   0  0  0  0  0  0  0  0  0  0  0  0
   18.9113   19.0103   23.4504 C   0  0  0  0  0  0  0  0  0  0  0  0
   18.3345   18.5390   24.2573 H   0  0  0  0  0  0  0  0  0  0  0  0
   19.2531   19.9888   23.8121 H   0  0  0  0  0  0  0  0  0  0  0  0
   20.0480   16.8648   23.5987 O   0  0  0  0  0  0  0  0  0  0  0  0
   20.8420   16.3745   23.2976 H   0  0  0  0  0  0  0  0  0  0  0  0
  1  2  1  0  0  0  0
  1  3  1  0  0  0  0
  1  4  1  0  0  0  0
  4  5  1  0  0  0  0
  4  6  1  0  0  0  0
  4  7  1  0  0  0  0
  7  8  1  0  0  0  0
  7  9  1  0  0  0  0
  7 10  1  0  0  0  0
 10 11  1  0  0  0  0
  1 12  1  0  0  0  0
 10 12  1  0  0  0  0
 12 13  1  0  0  0  0
 12 14  1  0  0  0  0
 10 15  1  0  0  0  0
 15 16  1  0  0  0  0
M  END
> <VConfSearch Rank>
469

> <Conf_Id>
59

> <Delta U+W>
0.000

> <U+W>
3.010

> <U>
5.843

> <W>
-2.833

> <W(PB)>
-4.568

> <W(SA)>
1.735

> <Valence>
13.789

> <Coulomb>
-8.574

> <VdW>
0.628

> <VdW6>
-3.284

> <VdW12>
3.912

> <Bond>
0.054

> <Angle>
4.034

> <Pdih>
9.702

> <Idih>
0.000

> <Tether>
0.000

$$$$
VeraChem MOL file


 16 16  0  0  0  0  0  0  0  0999 V2000     
   19.8575   19.9356   21.9118 C   0  0  0  0  0  0  0  0  0  0  0  0
   20.7158   20.4436   21.4513 H   0  0  0  0  0  0  0  0  0  0  0  0
   19.0368   20.6609   22.0017 H   0  0  0  0  0  0  0  0  0  0  0  0
   20.1923   19.3608   23.2950 C   0  0  0  0  0  0  0  0  0  0  0  0
   21.2038   18.9315   23.2803 H   0  0  0  0  0  0  0  0  0  0  0  0
   20.1528   20.1216   24.0863 H   0  0  0  0  0  0  0  0  0  0  0  0
   19.1590   18.2388   23.5063 C   0  0  0  0  0  0  0  0  0  0  0  0
   18.2661   18.6479   23.9967 H   0  0  0  0  0  0  0  0  0  0  0  0
   19.5552   17.4397   24.1469 H   0  0  0  0  0  0  0  0  0  0  0  0
   18.7723   17.7270   22.1033 C   0  0  0  0  0  0  0  0  0  0  0  0
   17.6768   17.7245   22.0067 H   0  0  0  0  0  0  0  0  0  0  0  0
   19.3894   18.7181   21.0939 C   0  0  0  0  0  0  0  0  0  0  0  0
   20.2545   18.2623   20.5933 H   0  0  0  0  0  0  0  0  0  0  0  0
   18.6667   19.0084   20.3204 H   0  0  0  0  0  0  0  0  0  0  0  0
   19.2992   16.4221   21.8947 O   0  0  0  0  0  0  0  0  0  0  0  0
   19.0344   16.1533   20.9897 H   0  0  0  0  0  0  0  0  0  0  0  0
  1  2  1  0  0  0  0
  1  3  1  0  0  0  0
  1  4  1  0  0  0  0
  4  5  1  0  0  0  0
  4  6  1  0  0  0  0
  4  7  1  0  0  0  0
  7  8  1  0  0  0  0
  7  9  1  0  0  0  0
  7 10  1  0  0  0  0
 10 11  1  0  0  0  0
  1 12  1  0  0  0  0
 10 12  1  0  0  0  0
 12 13  1  0  0  0  0
 12 14  1  0  0  0  0
 10 15  1  0  0  0  0
 15 16  1  0  0  0  0
M  END
> <VConfSearch Rank>
470

> <Conf_Id>
33

> <Delta U+W>
0.015

> <U+W>
3.025

> <U>
5.843

> <W>
-2.819

> <W(PB)>
-4.568

> <W(SA)>
1.750

> <Valence>
13.789

> <Coulomb>
-8.574

> <VdW>
0.628

> <VdW6>
-3.284

> <VdW12>
3.913

> <Bond>
0.054

> <Angle>
4.033

> <Pdih>
9.702

> <Idih>
0.000

> <Tether>
0.000

$$$$
VeraChem MOL file


 16 16  0  0  0  0  0  0  0  0999 V2000     
   20.4601   18.8843   22.9926 C   0  0  0  0  0  0  0  0  0  0  0  0
   20.7741   19.9367   22.9597 H   0  0  0  0  0  0  0  0  0  0  0  0
   21.1493   18.3516   23.6620 H   0  0  0  0  0  0  0  0  0  0  0  0
   20.4760   18.2867   21.5686 C   0  0  0  0  0  0  0  0  0  0  0  0
   20.7988   19.0495   20.8468 H   0  0  0  0  0  0  0  0  0  0  0  0
   21.1729   17.4407   21.4935 H   0  0  0  0  0  0  0  0  0  0  0  0
   19.0295   17.8427   21.2641 C   0  0  0  0  0  0  0  0  0  0  0  0
   18.9274   16.7668   21.4583 H   0  0  0  0  0  0  0  0  0  0  0  0
   18.7510   18.0211   20.2169 H   0  0  0  0  0  0  0  0  0  0  0  0
   18.1333   18.6130   22.2431 C   0  0  0  0  0  0  0  0  0  0  0  0
   17.2078   18.0619   22.4638 H   0  0  0  0  0  0  0  0  0  0  0  0
   19.0047   18.7779   23.4955 C   0  0  0  0  0  0  0  0  0  0  0  0
   18.7077   19.6470   24.0975 H   0  0  0  0  0  0  0  0  0  0  0  0
   18.8982   17.8840   24.1241 H   0  0  0  0  0  0  0  0  0  0  0  0
   17.8436   19.8941   21.7030 O   0  0  0  0  0  0  0  0  0  0  0  0
   18.7173   20.3056   21.5403 H   0  0  0  0  0  0  0  0  0  0  0  0
  1  2  1  0  0  0  0
  1  3  1  0  0  0  0
  1  4  1  0  0  0  0
  4  5  1  0  0  0  0
  4  6  1  0  0  0  0
  4  7  1  0  0  0  0
  7  8  1  0  0  0  0
  7  9  1  0  0  0  0
  7 10  1  0  0  0  0
 10 11  1  0  0  0  0
  1 12  1  0  0  0  0
 10 12  1  0  0  0  0
 12 13  1  0  0  0  0
 12 14  1  0  0  0  0
 10 15  1  0  0  0  0
 15 16  1  0  0  0  0
M  END
> <VConfSearch Rank>
471

> <Conf_Id>
20

> <Delta U+W>
-0.483

> <U+W>
2.527

> <U>
4.508

> <W>
-1.981

> <W(PB)>
-3.712

> <W(SA)>
1.732

> <Valence>
14.705

> <Coulomb>
-10.687

> <VdW>
0.490

> <VdW6>
-3.745

> <VdW12>
4.235

> <Bond>
0.068

> <Angle>
3.901

> <Pdih>
10.737

> <Idih>
0.000

> <Tether>
0.000

$$$$
VeraChem MOL file


 16 16  0  0  0  0  0  0  0  0999 V2000     
   19.7164   17.1452   22.3326 C   0  0  0  0  0  0  0  0  0  0  0  0
   18.8111   16.6262   22.6773 H   0  0  0  0  0  0  0  0  0  0  0  0
   20.4779   16.3893   22.0973 H   0  0  0  0  0  0  0  0  0  0  0  0
   20.1844   18.1332   23.4099 C   0  0  0  0  0  0  0  0  0  0  0  0
   20.0785   17.7262   24.4247 H   0  0  0  0  0  0  0  0  0  0  0  0
   21.2425   18.3823   23.2484 H   0  0  0  0  0  0  0  0  0  0  0  0
   19.3148   19.3839   23.1865 C   0  0  0  0  0  0  0  0  0  0  0  0
   19.8398   20.2976   23.4936 H   0  0  0  0  0  0  0  0  0  0  0  0
   18.3995   19.3022   23.7885 H   0  0  0  0  0  0  0  0  0  0  0  0
   18.9658   19.4081   21.6834 C   0  0  0  0  0  0  0  0  0  0  0  0
   19.5441   20.1936   21.1753 H   0  0  0  0  0  0  0  0  0  0  0  0
   19.3731   18.0308   21.1206 C   0  0  0  0  0  0  0  0  0  0  0  0
   18.5832   17.5826   20.5032 H   0  0  0  0  0  0  0  0  0  0  0  0
   20.2626   18.1512   20.4885 H   0  0  0  0  0  0  0  0  0  0  0  0
   17.5697   19.6169   21.5068 O   0  0  0  0  0  0  0  0  0  0  0  0
   17.3662   20.4963   21.8900 H   0  0  0  0  0  0  0  0  0  0  0  0
  1  2  1  0  0  0  0
  1  3  1  0  0  0  0
  1  4  1  0  0  0  0
  4  5  1  0  0  0  0
  4  6  1  0  0  0  0
  4  7  1  0  0  0  0
  7  8  1  0  0  0  0
  7  9  1  0  0  0  0
  7 10  1  0  0  0  0
 10 11  1  0  0  0  0
  1 12  1  0  0  0  0
 10 12  1  0  0  0  0
 12 13  1  0  0  0  0
 12 14  1  0  0  0  0
 10 15  1  0  0  0  0
 15 16  1  0  0  0  0
M  END
> <VConfSearch Rank>
472

> <Conf_Id>
59

> <Delta U+W>
0.000

> <U+W>
3.010

> <U>
5.843

> <W>
-2.833

> <W(PB)>
-4.568

> <W(SA)>
1.735

> <Valence>
13.789

> <Coulomb>
-8.574

> <VdW>
0.628

> <VdW6>
-3.284

> <VdW12>
3.912

> <Bond>
0.054

> <Angle>
4.034

> <Pdih>
9.702

> <Idih>
0.000

> <Tether>
0.000

$$$$
VeraChem MOL file


 16 16  0  0  0  0  0  0  0  0999 V2000     
   18.1002   18.2122   22.5625 C   0  0  0  0  0  0  0  0  0  0  0  0
   17.1001   18.6592   22.6450 H   0  0  0  0  0  0  0  0  0  0  0  0
   17.9918   17.1191   22.5961 H   0  0  0  0  0  0  0  0  0  0  0  0
   19.0400   18.6726   23.6852 C   0  0  0  0  0  0  0  0  0  0  0  0
   18.8771   19.7404   23.8872 H   0  0  0  0  0  0  0  0  0  0  0  0
   18.8809   18.1174   24.6197 H   0  0  0  0  0  0  0  0  0  0  0  0
   20.4544   18.4660   23.1126 C   0  0  0  0  0  0  0  0  0  0  0  0
   20.8079   17.4564   23.3592 H   0  0  0  0  0  0  0  0  0  0  0  0
   21.1706   19.1830   23.5357 H   0  0  0  0  0  0  0  0  0  0  0  0
   20.3318   18.5957   21.5803 C   0  0  0  0  0  0  0  0  0  0  0  0
   20.7989   17.7219   21.1032 H   0  0  0  0  0  0  0  0  0  0  0  0
   18.8211   18.6246   21.2661 C   0  0  0  0  0  0  0  0  0  0  0  0
   18.5101   19.6399   20.9847 H   0  0  0  0  0  0  0  0  0  0  0  0
   18.5689   17.9525   20.4357 H   0  0  0  0  0  0  0  0  0  0  0  0
   20.9480   19.7997   21.1391 O   0  0  0  0  0  0  0  0  0  0  0  0
   20.8309   19.8354   20.1662 H   0  0  0  0  0  0  0  0  0  0  0  0
  1  2  1  0  0  0  0
  1  3  1  0  0  0  0
  1  4  1  0  0  0  0
  4  5  1  0  0  0  0
  4  6  1  0  0  0  0
  4  7  1  0  0  0  0
  7  8  1  0  0  0  0
  7  9  1  0  0  0  0
  7 10  1  0  0  0  0
 10 11  1  0  0  0  0
  1 12  1  0  0  0  0
 10 12  1  0  0  0  0
 12 13  1  0  0  0  0
 12 14  1  0  0  0  0
 10 15  1  0  0  0  0
 15 16  1  0  0  0  0
M  END
> <VConfSearch Rank>
473

> <Conf_Id>
33

> <Delta U+W>
0.015

> <U+W>
3.025

> <U>
5.843

> <W>
-2.819

> <W(PB)>
-4.568

> <W(SA)>
1.750

> <Valence>
13.789

> <Coulomb>
-8.574

> <VdW>
0.628

> <VdW6>
-3.284

> <VdW12>
3.913

> <Bond>
0.054

> <Angle>
4.033

> <Pdih>
9.702

> <Idih>
0.000

> <Tether>
0.000

$$$$
VeraChem MOL file


 16 16  0  0  0  0  0  0  0  0999 V2000     
   19.0681   17.3197   22.4109 C   0  0  0  0  0  0  0  0  0  0  0  0
   19.1554   16.7220   21.4931 H   0  0  0  0  0  0  0  0  0  0  0  0
   18.7543   16.6452   23.2193 H   0  0  0  0  0  0  0  0  0  0  0  0
   18.0516   18.4628   22.1984 C   0  0  0  0  0  0  0  0  0  0  0  0
   17.6463   18.4177   21.1782 H   0  0  0  0  0  0  0  0  0  0  0  0
   17.2066   18.3869   22.8964 H   0  0  0  0  0  0  0  0  0  0  0  0
   18.8262   19.7816   22.4065 C   0  0  0  0  0  0  0  0  0  0  0  0
   18.6628   20.1455   23.4295 H   0  0  0  0  0  0  0  0  0  0  0  0
   18.4994   20.5698   21.7153 H   0  0  0  0  0  0  0  0  0  0  0  0
   20.3109   19.4346   22.2323 C   0  0  0  0  0  0  0  0  0  0  0  0
   20.9556   20.1150   22.8071 H   0  0  0  0  0  0  0  0  0  0  0  0
   20.4184   17.9906   22.7406 C   0  0  0  0  0  0  0  0  0  0  0  0
   21.2685   17.4555   22.2966 H   0  0  0  0  0  0  0  0  0  0  0  0
   20.5646   18.0056   23.8287 H   0  0  0  0  0  0  0  0  0  0  0  0
   20.6406   19.4701   20.8514 O   0  0  0  0  0  0  0  0  0  0  0  0
   20.0224   18.8410   20.4256 H   0  0  0  0  0  0  0  0  0  0  0  0
  1  2  1  0  0  0  0
  1  3  1  0  0  0  0
  1  4  1  0  0  0  0
  4  5  1  0  0  0  0
  4  6  1  0  0  0  0
  4  7  1  0  0  0  0
  7  8  1  0  0  0  0
  7  9  1  0  0  0  0
  7 10  1  0  0  0  0
 10 11  1  0  0  0  0
  1 12  1  0  0  0  0
 10 12  1  0  0  0  0
 12 13  1  0  0  0  0
 12 14  1  0  0  0  0
 10 15  1  0  0  0  0
 15 16  1  0  0  0  0
M  END
> <VConfSearch Rank>
474

> <Conf_Id>
20

> <Delta U+W>
-0.483

> <U+W>
2.527

> <U>
4.508

> <W>
-1.981

> <W(PB)>
-3.712

> <W(SA)>
1.732

> <Valence>
14.705

> <Coulomb>
-10.687

> <VdW>
0.490

> <VdW6>
-3.745

> <VdW12>
4.235

> <Bond>
0.068

> <Angle>
3.901

> <Pdih>
10.737

> <Idih>
0.000

> <Tether>
0.000

$$$$
VeraChem MOL file


 16 16  0  0  0  0  0  0  0  0999 V2000     
   18.7754   17.2990   22.7602 C   0  0  0  0  0  0  0  0  0  0  0  0
   17.6900   17.4379   22.6598 H   0  0  0  0  0  0  0  0  0  0  0  0
   18.9611   16.2694   23.0951 H   0  0  0  0  0  0  0  0  0  0  0  0
   19.3396   18.3428   23.7339 C   0  0  0  0  0  0  0  0  0  0  0  0
   18.6768   18.5143   24.5930 H   0  0  0  0  0  0  0  0  0  0  0  0
   20.3141   18.0054   24.1137 H   0  0  0  0  0  0  0  0  0  0  0  0
   19.5246   19.6072   22.8751 C   0  0  0  0  0  0  0  0  0  0  0  0
   20.3469   20.2301   23.2502 H   0  0  0  0  0  0  0  0  0  0  0  0
   18.6047   20.2068   22.9084 H   0  0  0  0  0  0  0  0  0  0  0  0
   19.7933   19.1198   21.4357 C   0  0  0  0  0  0  0  0  0  0  0  0
   20.8541   19.2614   21.1822 H   0  0  0  0  0  0  0  0  0  0  0  0
   19.4619   17.6132   21.4182 C   0  0  0  0  0  0  0  0  0  0  0  0
   18.8283   17.3357   20.5652 H   0  0  0  0  0  0  0  0  0  0  0  0
   20.3961   17.0421   21.3396 H   0  0  0  0  0  0  0  0  0  0  0  0
   18.9590   19.8164   20.5177 O   0  0  0  0  0  0  0  0  0  0  0  0
   19.2037   20.7640   20.5785 H   0  0  0  0  0  0  0  0  0  0  0  0
  1  2  1  0  0  0  0
  1  3  1  0  0  0  0
  1  4  1  0  0  0  0
  4  5  1  0  0  0  0
  4  6  1  0  0  0  0
  4  7  1  0  0  0  0
  7  8  1  0  0  0  0
  7  9  1  0  0  0  0
  7 10  1  0  0  0  0
 10 11  1  0  0  0  0
  1 12  1  0  0  0  0
 10 12  1  0  0  0  0
 12 13  1  0  0  0  0
 12 14  1  0  0  0  0
 10 15  1  0  0  0  0
 15 16  1  0  0  0  0
M  END
> <VConfSearch Rank>
475

> <Conf_Id>
59

> <Delta U+W>
0.000

> <U+W>
3.010

> <U>
5.843

> <W>
-2.833

> <W(PB)>
-4.568

> <W(SA)>
1.735

> <Valence>
13.789

> <Coulomb>
-8.574

> <VdW>
0.628

> <VdW6>
-3.284

> <VdW12>
3.912

> <Bond>
0.054

> <Angle>
4.034

> <Pdih>
9.702

> <Idih>
0.000

> <Tether>
0.000

$$$$
VeraChem MOL file


 16 16  0  0  0  0  0  0  0  0999 V2000     
   18.4289   18.9547   23.2393 C   0  0  0  0  0  0  0  0  0  0  0  0
   17.6916   19.7492   23.4178 H   0  0  0  0  0  0  0  0  0  0  0  0
   18.2346   18.1395   23.9502 H   0  0  0  0  0  0  0  0  0  0  0  0
   19.8723   19.4499   23.4037 C   0  0  0  0  0  0  0  0  0  0  0  0
   19.9661   20.4592   22.9790 H   0  0  0  0  0  0  0  0  0  0  0  0
   20.1852   19.4890   24.4560 H   0  0  0  0  0  0  0  0  0  0  0  0
   20.7152   18.4620   22.5763 C   0  0  0  0  0  0  0  0  0  0  0  0
   21.0302   17.6242   23.2119 H   0  0  0  0  0  0  0  0  0  0  0  0
   21.6213   18.9381   22.1784 H   0  0  0  0  0  0  0  0  0  0  0  0
   19.7956   17.9276   21.4590 C   0  0  0  0  0  0  0  0  0  0  0  0
   19.8273   16.8283   21.4570 H   0  0  0  0  0  0  0  0  0  0  0  0
   18.3710   18.4144   21.7987 C   0  0  0  0  0  0  0  0  0  0  0  0
   18.0731   19.2241   21.1187 H   0  0  0  0  0  0  0  0  0  0  0  0
   17.6348   17.6058   21.7029 H   0  0  0  0  0  0  0  0  0  0  0  0
   20.2036   18.4453   20.1983 O   0  0  0  0  0  0  0  0  0  0  0  0
   19.5818   18.0845   19.5315 H   0  0  0  0  0  0  0  0  0  0  0  0
  1  2  1  0  0  0  0
  1  3  1  0  0  0  0
  1  4  1  0  0  0  0
  4  5  1  0  0  0  0
  4  6  1  0  0  0  0
  4  7  1  0  0  0  0
  7  8  1  0  0  0  0
  7  9  1  0  0  0  0
  7 10  1  0  0  0  0
 10 11  1  0  0  0  0
  1 12  1  0  0  0  0
 10 12  1  0  0  0  0
 12 13  1  0  0  0  0
 12 14  1  0  0  0  0
 10 15  1  0  0  0  0
 15 16  1  0  0  0  0
M  END
> <VConfSearch Rank>
476

> <Conf_Id>
33

> <Delta U+W>
0.015

> <U+W>
3.025

> <U>
5.843

> <W>
-2.819

> <W(PB)>
-4.568

> <W(SA)>
1.750

> <Valence>
13.789

> <Coulomb>
-8.574

> <VdW>
0.628

> <VdW6>
-3.284

> <VdW12>
3.913

> <Bond>
0.054

> <Angle>
4.033

> <Pdih>
9.702

> <Idih>
0.000

> <Tether>
0.000

$$$$
VeraChem MOL file


 16 16  0  0  0  0  0  0  0  0999 V2000     
   20.6963   18.7482   22.0890 C   0  0  0  0  0  0  0  0  0  0  0  0
   20.9983   19.7122   21.6571 H   0  0  0  0  0  0  0  0  0  0  0  0
   21.6092   18.1665   22.2768 H   0  0  0  0  0  0  0  0  0  0  0  0
   19.7442   18.0137   21.1200 C   0  0  0  0  0  0  0  0  0  0  0  0
   19.5863   18.6218   20.2186 H   0  0  0  0  0  0  0  0  0  0  0  0
   20.1586   17.0473   20.8016 H   0  0  0  0  0  0  0  0  0  0  0  0
   18.4117   17.8240   21.8755 C   0  0  0  0  0  0  0  0  0  0  0  0
   18.3730   16.8135   22.3031 H   0  0  0  0  0  0  0  0  0  0  0  0
   17.5400   17.9423   21.2181 H   0  0  0  0  0  0  0  0  0  0  0  0
   18.4212   18.8485   23.0180 C   0  0  0  0  0  0  0  0  0  0  0  0
   17.8148   18.5097   23.8703 H   0  0  0  0  0  0  0  0  0  0  0  0
   19.9037   18.9737   23.3941 C   0  0  0  0  0  0  0  0  0  0  0  0
   20.1346   19.9413   23.8594 H   0  0  0  0  0  0  0  0  0  0  0  0
   20.1558   18.1867   24.1171 H   0  0  0  0  0  0  0  0  0  0  0  0
   17.9554   20.0981   22.5297 O   0  0  0  0  0  0  0  0  0  0  0  0
   18.5486   20.3164   21.7816 H   0  0  0  0  0  0  0  0  0  0  0  0
  1  2  1  0  0  0  0
  1  3  1  0  0  0  0
  1  4  1  0  0  0  0
  4  5  1  0  0  0  0
  4  6  1  0  0  0  0
  4  7  1  0  0  0  0
  7  8  1  0  0  0  0
  7  9  1  0  0  0  0
  7 10  1  0  0  0  0
 10 11  1  0  0  0  0
  1 12  1  0  0  0  0
 10 12  1  0  0  0  0
 12 13  1  0  0  0  0
 12 14  1  0  0  0  0
 10 15  1  0  0  0  0
 15 16  1  0  0  0  0
M  END
> <VConfSearch Rank>
477

> <Conf_Id>
20

> <Delta U+W>
-0.483

> <U+W>
2.527

> <U>
4.508

> <W>
-1.981

> <W(PB)>
-3.712

> <W(SA)>
1.732

> <Valence>
14.705

> <Coulomb>
-10.687

> <VdW>
0.490

> <VdW6>
-3.745

> <VdW12>
4.235

> <Bond>
0.068

> <Angle>
3.901

> <Pdih>
10.737

> <Idih>
0.000

> <Tether>
0.000

$$$$
VeraChem MOL file


 16 16  0  0  0  0  0  0  0  0999 V2000     
   19.9682   19.4445   21.3402 C   0  0  0  0  0  0  0  0  0  0  0  0
   20.9577   19.0106   21.1390 H   0  0  0  0  0  0  0  0  0  0  0  0
   19.8377   20.3200   20.6897 H   0  0  0  0  0  0  0  0  0  0  0  0
   19.8549   19.7984   22.8293 C   0  0  0  0  0  0  0  0  0  0  0  0
   20.7860   20.2216   23.2304 H   0  0  0  0  0  0  0  0  0  0  0  0
   19.0524   20.5350   22.9742 H   0  0  0  0  0  0  0  0  0  0  0  0
   19.4733   18.4715   23.5105 C   0  0  0  0  0  0  0  0  0  0  0  0
   18.8801   18.6426   24.4181 H   0  0  0  0  0  0  0  0  0  0  0  0
   20.3876   17.9361   23.8009 H   0  0  0  0  0  0  0  0  0  0  0  0
   18.6858   17.6559   22.4635 C   0  0  0  0  0  0  0  0  0  0  0  0
   17.6162   17.6480   22.7194 H   0  0  0  0  0  0  0  0  0  0  0  0
   18.8815   18.3772   21.1140 C   0  0  0  0  0  0  0  0  0  0  0  0
   19.1567   17.6847   20.3073 H   0  0  0  0  0  0  0  0  0  0  0  0
   17.9401   18.8646   20.8288 H   0  0  0  0  0  0  0  0  0  0  0  0
   19.1955   16.3298   22.3895 O   0  0  0  0  0  0  0  0  0  0  0  0
   19.0558   15.9251   23.2717 H   0  0  0  0  0  0  0  0  0  0  0  0
  1  2  1  0  0  0  0
  1  3  1  0  0  0  0
  1  4  1  0  0  0  0
  4  5  1  0  0  0  0
  4  6  1  0  0  0  0
  4  7  1  0  0  0  0
  7  8  1  0  0  0  0
  7  9  1  0  0  0  0
  7 10  1  0  0  0  0
 10 11  1  0  0  0  0
  1 12  1  0  0  0  0
 10 12  1  0  0  0  0
 12 13  1  0  0  0  0
 12 14  1  0  0  0  0
 10 15  1  0  0  0  0
 15 16  1  0  0  0  0
M  END
> <VConfSearch Rank>
478

> <Conf_Id>
59

> <Delta U+W>
0.000

> <U+W>
3.010

> <U>
5.843

> <W>
-2.833

> <W(PB)>
-4.568

> <W(SA)>
1.735

> <Valence>
13.789

> <Coulomb>
-8.574

> <VdW>
0.628

> <VdW6>
-3.284

> <VdW12>
3.912

> <Bond>
0.054

> <Angle>
4.034

> <Pdih>
9.702

> <Idih>
0.000

> <Tether>
0.000

$$$$
VeraChem MOL file


 16 16  0  0  0  0  0  0  0  0999 V2000     
   18.7796   17.9686   21.1997 C   0  0  0  0  0  0  0  0  0  0  0  0
   18.3888   16.9780   20.9296 H   0  0  0  0  0  0  0  0  0  0  0  0
   18.4529   18.6870   20.4350 H   0  0  0  0  0  0  0  0  0  0  0  0
   20.3110   17.9841   21.3019 C   0  0  0  0  0  0  0  0  0  0  0  0
   20.6580   17.0550   21.7752 H   0  0  0  0  0  0  0  0  0  0  0  0
   20.7961   18.0723   20.3203 H   0  0  0  0  0  0  0  0  0  0  0  0
   20.6236   19.1791   22.2214 C   0  0  0  0  0  0  0  0  0  0  0  0
   20.7489   20.0865   21.6164 H   0  0  0  0  0  0  0  0  0  0  0  0
   21.5528   19.0230   22.7855 H   0  0  0  0  0  0  0  0  0  0  0  0
   19.4004   19.3552   23.1448 C   0  0  0  0  0  0  0  0  0  0  0  0
   19.0663   20.4024   23.1095 H   0  0  0  0  0  0  0  0  0  0  0  0
   18.2982   18.4299   22.5874 C   0  0  0  0  0  0  0  0  0  0  0  0
   18.1718   17.5538   23.2379 H   0  0  0  0  0  0  0  0  0  0  0  0
   17.3315   18.9460   22.5255 H   0  0  0  0  0  0  0  0  0  0  0  0
   19.7321   18.9772   24.4756 O   0  0  0  0  0  0  0  0  0  0  0  0
   18.9206   19.0976   25.0127 H   0  0  0  0  0  0  0  0  0  0  0  0
  1  2  1  0  0  0  0
  1  3  1  0  0  0  0
  1  4  1  0  0  0  0
  4  5  1  0  0  0  0
  4  6  1  0  0  0  0
  4  7  1  0  0  0  0
  7  8  1  0  0  0  0
  7  9  1  0  0  0  0
  7 10  1  0  0  0  0
 10 11  1  0  0  0  0
  1 12  1  0  0  0  0
 10 12  1  0  0  0  0
 12 13  1  0  0  0  0
 12 14  1  0  0  0  0
 10 15  1  0  0  0  0
 15 16  1  0  0  0  0
M  END
> <VConfSearch Rank>
479

> <Conf_Id>
33

> <Delta U+W>
0.015

> <U+W>
3.025

> <U>
5.843

> <W>
-2.819

> <W(PB)>
-4.568

> <W(SA)>
1.750

> <Valence>
13.789

> <Coulomb>
-8.574

> <VdW>
0.628

> <VdW6>
-3.284

> <VdW12>
3.913

> <Bond>
0.054

> <Angle>
4.033

> <Pdih>
9.702

> <Idih>
0.000

> <Tether>
0.000

$$$$
VeraChem MOL file


 16 16  0  0  0  0  0  0  0  0999 V2000     
   19.5087   19.7783   21.6229 C   0  0  0  0  0  0  0  0  0  0  0  0
   20.5330   20.1759   21.6134 H   0  0  0  0  0  0  0  0  0  0  0  0
   18.8729   20.4821   21.0685 H   0  0  0  0  0  0  0  0  0  0  0  0
   19.0265   19.6036   23.0796 C   0  0  0  0  0  0  0  0  0  0  0  0
   19.8170   19.9176   23.7751 H   0  0  0  0  0  0  0  0  0  0  0  0
   18.1378   20.2153   23.2869 H   0  0  0  0  0  0  0  0  0  0  0  0
   18.7213   18.1016   23.2624 C   0  0  0  0  0  0  0  0  0  0  0  0
   17.6445   17.9280   23.1355 H   0  0  0  0  0  0  0  0  0  0  0  0
   19.0032   17.7380   24.2595 H   0  0  0  0  0  0  0  0  0  0  0  0
   19.4785   17.3746   22.1430 C   0  0  0  0  0  0  0  0  0  0  0  0
   18.9848   16.4318   21.8667 H   0  0  0  0  0  0  0  0  0  0  0  0
   19.4756   18.3756   20.9798 C   0  0  0  0  0  0  0  0  0  0  0  0
   20.3146   18.2140   20.2898 H   0  0  0  0  0  0  0  0  0  0  0  0
   18.5455   18.2557   20.4086 H   0  0  0  0  0  0  0  0  0  0  0  0
   20.8169   17.1432   22.5575 O   0  0  0  0  0  0  0  0  0  0  0  0
   21.1712   18.0285   22.7808 H   0  0  0  0  0  0  0  0  0  0  0  0
  1  2  1  0  0  0  0
  1  3  1  0  0  0  0
  1  4  1  0  0  0  0
  4  5  1  0  0  0  0
  4  6  1  0  0  0  0
  4  7  1  0  0  0  0
  7  8  1  0  0  0  0
  7  9  1  0  0  0  0
  7 10  1  0  0  0  0
 10 11  1  0  0  0  0
  1 12  1  0  0  0  0
 10 12  1  0  0  0  0
 12 13  1  0  0  0  0
 12 14  1  0  0  0  0
 10 15  1  0  0  0  0
 15 16  1  0  0  0  0
M  END
> <VConfSearch Rank>
480

> <Conf_Id>
20

> <Delta U+W>
-0.483

> <U+W>
2.527

> <U>
4.508

> <W>
-1.981

> <W(PB)>
-3.712

> <W(SA)>
1.732

> <Valence>
14.705

> <Coulomb>
-10.687

> <VdW>
0.490

> <VdW6>
-3.745

> <VdW12>
4.235

> <Bond>
0.068

> <Angle>
3.901

> <Pdih>
10.737

> <Idih>
0.000

> <Tether>
0.000

$$$$
VeraChem MOL file


 16 16  0  0  0  0  0  0  0  0999 V2000     
   18.0227   18.3122   22.8357 C   0  0  0  0  0  0  0  0  0  0  0  0
   17.8311   19.1467   23.5246 H   0  0  0  0  0  0  0  0  0  0  0  0
   17.1188   17.6897   22.7894 H   0  0  0  0  0  0  0  0  0  0  0  0
   19.2524   17.5257   23.3100 C   0  0  0  0  0  0  0  0  0  0  0  0
   19.2837   17.4180   24.4028 H   0  0  0  0  0  0  0  0  0  0  0  0
   19.2423   16.5205   22.8659 H   0  0  0  0  0  0  0  0  0  0  0  0
   20.4511   18.3238   22.7654 C   0  0  0  0  0  0  0  0  0  0  0  0
   21.3121   17.6714   22.5704 H   0  0  0  0  0  0  0  0  0  0  0  0
   20.7568   19.0727   23.5087 H   0  0  0  0  0  0  0  0  0  0  0  0
   19.9621   19.0179   21.4767 C   0  0  0  0  0  0  0  0  0  0  0  0
   20.3887   18.5182   20.5949 H   0  0  0  0  0  0  0  0  0  0  0  0
   18.4272   18.8646   21.4564 C   0  0  0  0  0  0  0  0  0  0  0  0
   17.9166   19.8113   21.2345 H   0  0  0  0  0  0  0  0  0  0  0  0
   18.1496   18.1448   20.6754 H   0  0  0  0  0  0  0  0  0  0  0  0
   20.3173   20.3953   21.4960 O   0  0  0  0  0  0  0  0  0  0  0  0
   21.2969   20.4328   21.5196 H   0  0  0  0  0  0  0  0  0  0  0  0
  1  2  1  0  0  0  0
  1  3  1  0  0  0  0
  1  4  1  0  0  0  0
  4  5  1  0  0  0  0
  4  6  1  0  0  0  0
  4  7  1  0  0  0  0
  7  8  1  0  0  0  0
  7  9  1  0  0  0  0
  7 10  1  0  0  0  0
 10 11  1  0  0  0  0
  1 12  1  0  0  0  0
 10 12  1  0  0  0  0
 12 13  1  0  0  0  0
 12 14  1  0  0  0  0
 10 15  1  0  0  0  0
 15 16  1  0  0  0  0
M  END
> <VConfSearch Rank>
481

> <Conf_Id>
59

> <Delta U+W>
0.000

> <U+W>
3.010

> <U>
5.843

> <W>
-2.833

> <W(PB)>
-4.568

> <W(SA)>
1.735

> <Valence>
13.789

> <Coulomb>
-8.574

> <VdW>
0.628

> <VdW6>
-3.284

> <VdW12>
3.912

> <Bond>
0.054

> <Angle>
4.034

> <Pdih>
9.702

> <Idih>
0.000

> <Tether>
0.000

$$$$
VeraChem MOL file


 16 16  0  0  0  0  0  0  0  0999 V2000     
   18.4377   19.6264   22.3489 C   0  0  0  0  0  0  0  0  0  0  0  0
   18.0918   20.4916   21.7671 H   0  0  0  0  0  0  0  0  0  0  0  0
   17.7106   19.4390   23.1513 H   0  0  0  0  0  0  0  0  0  0  0  0
   19.8298   19.8495   22.9556 C   0  0  0  0  0  0  0  0  0  0  0  0
   20.4669   20.3767   22.2317 H   0  0  0  0  0  0  0  0  0  0  0  0
   19.7947   20.4429   23.8793 H   0  0  0  0  0  0  0  0  0  0  0  0
   20.3801   18.4305   23.1893 C   0  0  0  0  0  0  0  0  0  0  0  0
   20.1008   18.0878   24.1941 H   0  0  0  0  0  0  0  0  0  0  0  0
   21.4759   18.4054   23.1207 H   0  0  0  0  0  0  0  0  0  0  0  0
   19.7069   17.5197   22.1420 C   0  0  0  0  0  0  0  0  0  0  0  0
   19.2678   16.6473   22.6477 H   0  0  0  0  0  0  0  0  0  0  0  0
   18.5951   18.3631   21.4830 C   0  0  0  0  0  0  0  0  0  0  0  0
   18.8906   18.6544   20.4658 H   0  0  0  0  0  0  0  0  0  0  0  0
   17.6527   17.8047   21.4133 H   0  0  0  0  0  0  0  0  0  0  0  0
   20.6566   17.1101   21.1652 O   0  0  0  0  0  0  0  0  0  0  0  0
   20.1747   16.5468   20.5232 H   0  0  0  0  0  0  0  0  0  0  0  0
  1  2  1  0  0  0  0
  1  3  1  0  0  0  0
  1  4  1  0  0  0  0
  4  5  1  0  0  0  0
  4  6  1  0  0  0  0
  4  7  1  0  0  0  0
  7  8  1  0  0  0  0
  7  9  1  0  0  0  0
  7 10  1  0  0  0  0
 10 11  1  0  0  0  0
  1 12  1  0  0  0  0
 10 12  1  0  0  0  0
 12 13  1  0  0  0  0
 12 14  1  0  0  0  0
 10 15  1  0  0  0  0
 15 16  1  0  0  0  0
M  END
> <VConfSearch Rank>
482

> <Conf_Id>
33

> <Delta U+W>
0.015

> <U+W>
3.025

> <U>
5.843

> <W>
-2.819

> <W(PB)>
-4.568

> <W(SA)>
1.750

> <Valence>
13.789

> <Coulomb>
-8.574

> <VdW>
0.628

> <VdW6>
-3.284

> <VdW12>
3.913

> <Bond>
0.054

> <Angle>
4.033

> <Pdih>
9.702

> <Idih>
0.000

> <Tether>
0.000

$$$$
VeraChem MOL file


 16 16  0  0  0  0  0  0  0  0999 V2000     
   20.2081   18.0579   23.1476 C   0  0  0  0  0  0  0  0  0  0  0  0
   20.4919   17.0215   22.9184 H   0  0  0  0  0  0  0  0  0  0  0  0
   20.7272   18.3491   24.0710 H   0  0  0  0  0  0  0  0  0  0  0  0
   18.6749   18.1608   23.3014 C   0  0  0  0  0  0  0  0  0  0  0  0
   18.2167   17.1741   23.1477 H   0  0  0  0  0  0  0  0  0  0  0  0
   18.3920   18.5069   24.3050 H   0  0  0  0  0  0  0  0  0  0  0  0
   18.1916   19.1478   22.2176 C   0  0  0  0  0  0  0  0  0  0  0  0
   18.0649   20.1449   22.6595 H   0  0  0  0  0  0  0  0  0  0  0  0
   17.2278   18.8499   21.7834 H   0  0  0  0  0  0  0  0  0  0  0  0
   19.3090   19.2065   21.1673 C   0  0  0  0  0  0  0  0  0  0  0  0
   19.3210   20.1728   20.6430 H   0  0  0  0  0  0  0  0  0  0  0  0
   20.5938   18.9874   21.9773 C   0  0  0  0  0  0  0  0  0  0  0  0
   21.4055   18.5716   21.3655 H   0  0  0  0  0  0  0  0  0  0  0  0
   20.9349   19.9532   22.3730 H   0  0  0  0  0  0  0  0  0  0  0  0
   19.1457   18.1344   20.2503 O   0  0  0  0  0  0  0  0  0  0  0  0
   19.1468   17.3251   20.8018 H   0  0  0  0  0  0  0  0  0  0  0  0
  1  2  1  0  0  0  0
  1  3  1  0  0  0  0
  1  4  1  0  0  0  0
  4  5  1  0  0  0  0
  4  6  1  0  0  0  0
  4  7  1  0  0  0  0
  7  8  1  0  0  0  0
  7  9  1  0  0  0  0
  7 10  1  0  0  0  0
 10 11  1  0  0  0  0
  1 12  1  0  0  0  0
 10 12  1  0  0  0  0
 12 13  1  0  0  0  0
 12 14  1  0  0  0  0
 10 15  1  0  0  0  0
 15 16  1  0  0  0  0
M  END
> <VConfSearch Rank>
483

> <Conf_Id>
20

> <Delta U+W>
-0.483

> <U+W>
2.527

> <U>
4.508

> <W>
-1.981

> <W(PB)>
-3.712

> <W(SA)>
1.732

> <Valence>
14.705

> <Coulomb>
-10.687

> <VdW>
0.490

> <VdW6>
-3.745

> <VdW12>
4.235

> <Bond>
0.068

> <Angle>
3.901

> <Pdih>
10.737

> <Idih>
0.000

> <Tether>
0.000

$$$$
VeraChem MOL file


 16 16  0  0  0  0  0  0  0  0999 V2000     
   18.6694   17.4775   21.6211 C   0  0  0  0  0  0  0  0  0  0  0  0
   17.6635   17.4527   22.0629 H   0  0  0  0  0  0  0  0  0  0  0  0
   18.7108   16.7297   20.8175 H   0  0  0  0  0  0  0  0  0  0  0  0
   19.7172   17.2228   22.7134 C   0  0  0  0  0  0  0  0  0  0  0  0
   19.3971   16.4526   23.4283 H   0  0  0  0  0  0  0  0  0  0  0  0
   20.6590   16.8937   22.2526 H   0  0  0  0  0  0  0  0  0  0  0  0
   19.9159   18.5958   23.3812 C   0  0  0  0  0  0  0  0  0  0  0  0
   20.9303   18.7014   23.7870 H   0  0  0  0  0  0  0  0  0  0  0  0
   19.2068   18.7009   24.2136 H   0  0  0  0  0  0  0  0  0  0  0  0
   19.6265   19.6535   22.2953 C   0  0  0  0  0  0  0  0  0  0  0  0
   20.5667   20.1135   21.9578 H   0  0  0  0  0  0  0  0  0  0  0  0
   18.9762   18.8997   21.1169 C   0  0  0  0  0  0  0  0  0  0  0  0
   18.0717   19.4021   20.7489 H   0  0  0  0  0  0  0  0  0  0  0  0
   19.6915   18.8496   20.2856 H   0  0  0  0  0  0  0  0  0  0  0  0
   18.7346   20.6415   22.7977 O   0  0  0  0  0  0  0  0  0  0  0  0
   19.1921   21.0786   23.5468 H   0  0  0  0  0  0  0  0  0  0  0  0
  1  2  1  0  0  0  0
  1  3  1  0  0  0  0
  1  4  1  0  0  0  0
  4  5  1  0  0  0  0
  4  6  1  0  0  0  0
  4  7  1  0  0  0  0
  7  8  1  0  0  0  0
  7  9  1  0  0  0  0
  7 10  1  0  0  0  0
 10 11  1  0  0  0  0
  1 12  1  0  0  0  0
 10 12  1  0  0  0  0
 12 13  1  0  0  0  0
 12 14  1  0  0  0  0
 10 15  1  0  0  0  0
 15 16  1  0  0  0  0
M  END
> <VConfSearch Rank>
484

> <Conf_Id>
59

> <Delta U+W>
0.000

> <U+W>
3.010

> <U>
5.843

> <W>
-2.833

> <W(PB)>
-4.568

> <W(SA)>
1.735

> <Valence>
13.789

> <Coulomb>
-8.574

> <VdW>
0.628

> <VdW6>
-3.284

> <VdW12>
3.912

> <Bond>
0.054

> <Angle>
4.034

> <Pdih>
9.702

> <Idih>
0.000

> <Tether>
0.000

$$$$
VeraChem MOL file


 16 16  0  0  0  0  0  0  0  0999 V2000     
   18.2986   19.0102   23.0485 C   0  0  0  0  0  0  0  0  0  0  0  0
   17.2389   18.7408   23.1548 H   0  0  0  0  0  0  0  0  0  0  0  0
   18.5520   19.7275   23.8416 H   0  0  0  0  0  0  0  0  0  0  0  0
   18.6101   19.6252   21.6773 C   0  0  0  0  0  0  0  0  0  0  0  0
   18.0476   19.0921   20.8981 H   0  0  0  0  0  0  0  0  0  0  0  0
   18.3454   20.6901   21.6251 H   0  0  0  0  0  0  0  0  0  0  0  0
   20.1182   19.3843   21.4806 C   0  0  0  0  0  0  0  0  0  0  0  0
   20.6829   20.2344   21.8850 H   0  0  0  0  0  0  0  0  0  0  0  0
   20.3769   19.2870   20.4178 H   0  0  0  0  0  0  0  0  0  0  0  0
   20.4700   18.1173   22.2873 C   0  0  0  0  0  0  0  0  0  0  0  0
   21.3282   18.3297   22.9414 H   0  0  0  0  0  0  0  0  0  0  0  0
   19.2265   17.7848   23.1386 C   0  0  0  0  0  0  0  0  0  0  0  0
   18.7089   16.9064   22.7297 H   0  0  0  0  0  0  0  0  0  0  0  0
   19.4974   17.5625   24.1788 H   0  0  0  0  0  0  0  0  0  0  0  0
   20.7635   17.0401   21.4055 O   0  0  0  0  0  0  0  0  0  0  0  0
   20.9675   16.2635   21.9683 H   0  0  0  0  0  0  0  0  0  0  0  0
  1  2  1  0  0  0  0
  1  3  1  0  0  0  0
  1  4  1  0  0  0  0
  4  5  1  0  0  0  0
  4  6  1  0  0  0  0
  4  7  1  0  0  0  0
  7  8  1  0  0  0  0
  7  9  1  0  0  0  0
  7 10  1  0  0  0  0
 10 11  1  0  0  0  0
  1 12  1  0  0  0  0
 10 12  1  0  0  0  0
 12 13  1  0  0  0  0
 12 14  1  0  0  0  0
 10 15  1  0  0  0  0
 15 16  1  0  0  0  0
M  END
> <VConfSearch Rank>
485

> <Conf_Id>
33

> <Delta U+W>
0.015

> <U+W>
3.025

> <U>
5.843

> <W>
-2.819

> <W(PB)>
-4.568

> <W(SA)>
1.750

> <Valence>
13.789

> <Coulomb>
-8.574

> <VdW>
0.628

> <VdW6>
-3.284

> <VdW12>
3.913

> <Bond>
0.054

> <Angle>
4.033

> <Pdih>
9.702

> <Idih>
0.000

> <Tether>
0.000

$$$$
VeraChem MOL file


 16 16  0  0  0  0  0  0  0  0999 V2000     
   20.5914   18.8460   22.7656 C   0  0  0  0  0  0  0  0  0  0  0  0
   21.2506   17.9673   22.7885 H   0  0  0  0  0  0  0  0  0  0  0  0
   21.1569   19.6974   23.1687 H   0  0  0  0  0  0  0  0  0  0  0  0
   19.3168   18.5683   23.5922 C   0  0  0  0  0  0  0  0  0  0  0  0
   19.3595   17.5555   24.0160 H   0  0  0  0  0  0  0  0  0  0  0  0
   19.2150   19.2751   24.4271 H   0  0  0  0  0  0  0  0  0  0  0  0
   18.1273   18.6879   22.6158 C   0  0  0  0  0  0  0  0  0  0  0  0
   17.6801   19.6869   22.7032 H   0  0  0  0  0  0  0  0  0  0  0  0
   17.3411   17.9504   22.8253 H   0  0  0  0  0  0  0  0  0  0  0  0
   18.7153   18.5266   21.2076 C   0  0  0  0  0  0  0  0  0  0  0  0
   18.1118   19.0533   20.4543 H   0  0  0  0  0  0  0  0  0  0  0  0
   20.1242   19.1243   21.3211 C   0  0  0  0  0  0  0  0  0  0  0  0
   20.8134   18.7095   20.5734 H   0  0  0  0  0  0  0  0  0  0  0  0
   20.0659   20.2083   21.1567 H   0  0  0  0  0  0  0  0  0  0  0  0
   18.8172   17.1441   20.8989 O   0  0  0  0  0  0  0  0  0  0  0  0
   19.3652   16.7628   21.6154 H   0  0  0  0  0  0  0  0  0  0  0  0
  1  2  1  0  0  0  0
  1  3  1  0  0  0  0
  1  4  1  0  0  0  0
  4  5  1  0  0  0  0
  4  6  1  0  0  0  0
  4  7  1  0  0  0  0
  7  8  1  0  0  0  0
  7  9  1  0  0  0  0
  7 10  1  0  0  0  0
 10 11  1  0  0  0  0
  1 12  1  0  0  0  0
 10 12  1  0  0  0  0
 12 13  1  0  0  0  0
 12 14  1  0  0  0  0
 10 15  1  0  0  0  0
 15 16  1  0  0  0  0
M  END
> <VConfSearch Rank>
486

> <Conf_Id>
20

> <Delta U+W>
-0.483

> <U+W>
2.527

> <U>
4.508

> <W>
-1.981

> <W(PB)>
-3.712

> <W(SA)>
1.732

> <Valence>
14.705

> <Coulomb>
-10.687

> <VdW>
0.490

> <VdW6>
-3.745

> <VdW12>
4.235

> <Bond>
0.068

> <Angle>
3.901

> <Pdih>
10.737

> <Idih>
0.000

> <Tether>
0.000

$$$$
VeraChem MOL file


 16 16  0  0  0  0  0  0  0  0999 V2000     
   20.0907   19.1811   23.4022 C   0  0  0  0  0  0  0  0  0  0  0  0
   20.6892   19.9695   22.9248 H   0  0  0  0  0  0  0  0  0  0  0  0
   20.2523   19.2359   24.4874 H   0  0  0  0  0  0  0  0  0  0  0  0
   20.4804   17.8156   22.8197 C   0  0  0  0  0  0  0  0  0  0  0  0
   21.5624   17.7261   22.6522 H   0  0  0  0  0  0  0  0  0  0  0  0
   20.1724   17.0178   23.5099 H   0  0  0  0  0  0  0  0  0  0  0  0
   19.6745   17.7129   21.5119 C   0  0  0  0  0  0  0  0  0  0  0  0
   19.4427   16.6689   21.2645 H   0  0  0  0  0  0  0  0  0  0  0  0
   20.2664   18.1318   20.6866 H   0  0  0  0  0  0  0  0  0  0  0  0
   18.3915   18.5436   21.7252 C   0  0  0  0  0  0  0  0  0  0  0  0
   17.5280   17.8754   21.8565 H   0  0  0  0  0  0  0  0  0  0  0  0
   18.6094   19.3548   23.0192 C   0  0  0  0  0  0  0  0  0  0  0  0
   18.3450   20.4137   22.8968 H   0  0  0  0  0  0  0  0  0  0  0  0
   17.9728   18.9415   23.8123 H   0  0  0  0  0  0  0  0  0  0  0  0
   18.1863   19.4213   20.6246 O   0  0  0  0  0  0  0  0  0  0  0  0
   18.0654   18.8558   19.8327 H   0  0  0  0  0  0  0  0  0  0  0  0
  1  2  1  0  0  0  0
  1  3  1  0  0  0  0
  1  4  1  0  0  0  0
  4  5  1  0  0  0  0
  4  6  1  0  0  0  0
  4  7  1  0  0  0  0
  7  8  1  0  0  0  0
  7  9  1  0  0  0  0
  7 10  1  0  0  0  0
 10 11  1  0  0  0  0
  1 12  1  0  0  0  0
 10 12  1  0  0  0  0
 12 13  1  0  0  0  0
 12 14  1  0  0  0  0
 10 15  1  0  0  0  0
 15 16  1  0  0  0  0
M  END
> <VConfSearch Rank>
487

> <Conf_Id>
59

> <Delta U+W>
0.000

> <U+W>
3.010

> <U>
5.843

> <W>
-2.833

> <W(PB)>
-4.568

> <W(SA)>
1.735

> <Valence>
13.789

> <Coulomb>
-8.574

> <VdW>
0.628

> <VdW6>
-3.284

> <VdW12>
3.912

> <Bond>
0.054

> <Angle>
4.034

> <Pdih>
9.702

> <Idih>
0.000

> <Tether>
0.000

$$$$
VeraChem MOL file


 16 16  0  0  0  0  0  0  0  0999 V2000     
   19.2435   18.5571   20.8732 C   0  0  0  0  0  0  0  0  0  0  0  0
   18.5627   18.9674   20.1150 H   0  0  0  0  0  0  0  0  0  0  0  0
   20.0626   18.0389   20.3553 H   0  0  0  0  0  0  0  0  0  0  0  0
   18.5373   17.5830   21.8262 C   0  0  0  0  0  0  0  0  0  0  0  0
   17.5349   17.9642   22.0661 H   0  0  0  0  0  0  0  0  0  0  0  0
   18.4294   16.5784   21.3952 H   0  0  0  0  0  0  0  0  0  0  0  0
   19.4081   17.5871   23.0962 C   0  0  0  0  0  0  0  0  0  0  0  0
   20.1761   16.8066   23.0188 H   0  0  0  0  0  0  0  0  0  0  0  0
   18.8124   17.3814   23.9955 H   0  0  0  0  0  0  0  0  0  0  0  0
   20.0967   18.9664   23.1528 C   0  0  0  0  0  0  0  0  0  0  0  0
   21.1791   18.8268   23.2886 H   0  0  0  0  0  0  0  0  0  0  0  0
   19.8180   19.6474   21.7962 C   0  0  0  0  0  0  0  0  0  0  0  0
   19.0762   20.4485   21.9176 H   0  0  0  0  0  0  0  0  0  0  0  0
   20.7282   20.0920   21.3735 H   0  0  0  0  0  0  0  0  0  0  0  0
   19.5523   19.7433   24.2130 O   0  0  0  0  0  0  0  0  0  0  0  0
   20.0154   20.6074   24.1950 H   0  0  0  0  0  0  0  0  0  0  0  0
  1  2  1  0  0  0  0
  1  3  1  0  0  0  0
  1  4  1  0  0  0  0
  4  5  1  0  0  0  0
  4  6  1  0  0  0  0
  4  7  1  0  0  0  0
  7  8  1  0  0  0  0
  7  9  1  0  0  0  0
  7 10  1  0  0  0  0
 10 11  1  0  0  0  0
  1 12  1  0  0  0  0
 10 12  1  0  0  0  0
 12 13  1  0  0  0  0
 12 14  1  0  0  0  0
 10 15  1  0  0  0  0
 15 16  1  0  0  0  0
M  END
> <VConfSearch Rank>
488

> <Conf_Id>
33

> <Delta U+W>
0.015

> <U+W>
3.025

> <U>
5.843

> <W>
-2.819

> <W(PB)>
-4.568

> <W(SA)>
1.750

> <Valence>
13.789

> <Coulomb>
-8.574

> <VdW>
0.628

> <VdW6>
-3.284

> <VdW12>
3.913

> <Bond>
0.054

> <Angle>
4.033

> <Pdih>
9.702

> <Idih>
0.000

> <Tether>
0.000

$$$$
VeraChem MOL file


 16 16  0  0  0  0  0  0  0  0999 V2000     
   19.2704   17.3722   21.7675 C   0  0  0  0  0  0  0  0  0  0  0  0
   19.1461   17.3274   20.6768 H   0  0  0  0  0  0  0  0  0  0  0  0
   19.2866   16.3402   22.1438 H   0  0  0  0  0  0  0  0  0  0  0  0
   18.1182   18.1873   22.3944 C   0  0  0  0  0  0  0  0  0  0  0  0
   17.4356   18.5360   21.6071 H   0  0  0  0  0  0  0  0  0  0  0  0
   17.5322   17.5819   23.0994 H   0  0  0  0  0  0  0  0  0  0  0  0
   18.7706   19.3915   23.1062 C   0  0  0  0  0  0  0  0  0  0  0  0
   18.8796   19.1702   24.1762 H   0  0  0  0  0  0  0  0  0  0  0  0
   18.1691   20.3056   23.0137 H   0  0  0  0  0  0  0  0  0  0  0  0
   20.1652   19.5479   22.4851 C   0  0  0  0  0  0  0  0  0  0  0  0
   20.8731   20.0066   23.1905 H   0  0  0  0  0  0  0  0  0  0  0  0
   20.5760   18.1138   22.1251 C   0  0  0  0  0  0  0  0  0  0  0  0
   21.3090   18.0839   21.3079 H   0  0  0  0  0  0  0  0  0  0  0  0
   21.0362   17.6435   23.0041 H   0  0  0  0  0  0  0  0  0  0  0  0
   20.0640   20.3179   21.2962 O   0  0  0  0  0  0  0  0  0  0  0  0
   19.4198   19.8380   20.7359 H   0  0  0  0  0  0  0  0  0  0  0  0
  1  2  1  0  0  0  0
  1  3  1  0  0  0  0
  1  4  1  0  0  0  0
  4  5  1  0  0  0  0
  4  6  1  0  0  0  0
  4  7  1  0  0  0  0
  7  8  1  0  0  0  0
  7  9  1  0  0  0  0
  7 10  1  0  0  0  0
 10 11  1  0  0  0  0
  1 12  1  0  0  0  0
 10 12  1  0  0  0  0
 12 13  1  0  0  0  0
 12 14  1  0  0  0  0
 10 15  1  0  0  0  0
 15 16  1  0  0  0  0
M  END
> <VConfSearch Rank>
489

> <Conf_Id>
20

> <Delta U+W>
-0.483

> <U+W>
2.527

> <U>
4.508

> <W>
-1.981

> <W(PB)>
-3.712

> <W(SA)>
1.732

> <Valence>
14.705

> <Coulomb>
-10.687

> <VdW>
0.490

> <VdW6>
-3.745

> <VdW12>
4.235

> <Bond>
0.068

> <Angle>
3.901

> <Pdih>
10.737

> <Idih>
0.000

> <Tether>
0.000

$$$$
VeraChem MOL file


 16 16  0  0  0  0  0  0  0  0999 V2000     
   19.3663   18.3498   20.8747 C   0  0  0  0  0  0  0  0  0  0  0  0
   19.6109   17.2869   20.7399 H   0  0  0  0  0  0  0  0  0  0  0  0
   19.1786   18.7880   19.8851 H   0  0  0  0  0  0  0  0  0  0  0  0
   20.5114   19.0507   21.6185 C   0  0  0  0  0  0  0  0  0  0  0  0
   21.4995   18.7018   21.2887 H   0  0  0  0  0  0  0  0  0  0  0  0
   20.4549   20.1346   21.4469 H   0  0  0  0  0  0  0  0  0  0  0  0
   20.2477   18.7440   23.1041 C   0  0  0  0  0  0  0  0  0  0  0  0
   20.6291   19.5433   23.7526 H   0  0  0  0  0  0  0  0  0  0  0  0
   20.7608   17.8125   23.3794 H   0  0  0  0  0  0  0  0  0  0  0  0
   18.7204   18.5762   23.2490 C   0  0  0  0  0  0  0  0  0  0  0  0
   18.2915   19.4544   23.7533 H   0  0  0  0  0  0  0  0  0  0  0  0
   18.1555   18.4848   21.8164 C   0  0  0  0  0  0  0  0  0  0  0  0
   17.4552   17.6474   21.6972 H   0  0  0  0  0  0  0  0  0  0  0  0
   17.6113   19.4101   21.5866 H   0  0  0  0  0  0  0  0  0  0  0  0
   18.4235   17.3865   23.9703 O   0  0  0  0  0  0  0  0  0  0  0  0
   18.8130   17.4946   24.8637 H   0  0  0  0  0  0  0  0  0  0  0  0
  1  2  1  0  0  0  0
  1  3  1  0  0  0  0
  1  4  1  0  0  0  0
  4  5  1  0  0  0  0
  4  6  1  0  0  0  0
  4  7  1  0  0  0  0
  7  8  1  0  0  0  0
  7  9  1  0  0  0  0
  7 10  1  0  0  0  0
 10 11  1  0  0  0  0
  1 12  1  0  0  0  0
 10 12  1  0  0  0  0
 12 13  1  0  0  0  0
 12 14  1  0  0  0  0
 10 15  1  0  0  0  0
 15 16  1  0  0  0  0
M  END
> <VConfSearch Rank>
490

> <Conf_Id>
59

> <Delta U+W>
0.000

> <U+W>
3.010

> <U>
5.843

> <W>
-2.833

> <W(PB)>
-4.568

> <W(SA)>
1.735

> <Valence>
13.789

> <Coulomb>
-8.574

> <VdW>
0.628

> <VdW6>
-3.284

> <VdW12>
3.912

> <Bond>
0.054

> <Angle>
4.034

> <Pdih>
9.702

> <Idih>
0.000

> <Tether>
0.000

$$$$
VeraChem MOL file


 16 16  0  0  0  0  0  0  0  0999 V2000     
   19.0013   17.3079   21.8974 C   0  0  0  0  0  0  0  0  0  0  0  0
   19.3876   16.4093   21.3974 H   0  0  0  0  0  0  0  0  0  0  0  0
   18.0048   17.0762   22.2987 H   0  0  0  0  0  0  0  0  0  0  0  0
   18.9086   18.5102   20.9479 C   0  0  0  0  0  0  0  0  0  0  0  0
   19.7853   18.5247   20.2854 H   0  0  0  0  0  0  0  0  0  0  0  0
   18.0056   18.4828   20.3231 H   0  0  0  0  0  0  0  0  0  0  0  0
   18.9437   19.7380   21.8765 C   0  0  0  0  0  0  0  0  0  0  0  0
   17.9205   20.0091   22.1676 H   0  0  0  0  0  0  0  0  0  0  0  0
   19.3908   20.6088   21.3787 H   0  0  0  0  0  0  0  0  0  0  0  0
   19.7295   19.3154   23.1350 C   0  0  0  0  0  0  0  0  0  0  0  0
   19.1411   19.5624   24.0307 H   0  0  0  0  0  0  0  0  0  0  0  0
   19.9221   17.7875   23.0343 C   0  0  0  0  0  0  0  0  0  0  0  0
   20.9647   17.5512   22.7815 H   0  0  0  0  0  0  0  0  0  0  0  0
   19.6833   17.2875   23.9818 H   0  0  0  0  0  0  0  0  0  0  0  0
   20.9929   19.9685   23.1667 O   0  0  0  0  0  0  0  0  0  0  0  0
   21.4507   19.6563   23.9757 H   0  0  0  0  0  0  0  0  0  0  0  0
  1  2  1  0  0  0  0
  1  3  1  0  0  0  0
  1  4  1  0  0  0  0
  4  5  1  0  0  0  0
  4  6  1  0  0  0  0
  4  7  1  0  0  0  0
  7  8  1  0  0  0  0
  7  9  1  0  0  0  0
  7 10  1  0  0  0  0
 10 11  1  0  0  0  0
  1 12  1  0  0  0  0
 10 12  1  0  0  0  0
 12 13  1  0  0  0  0
 12 14  1  0  0  0  0
 10 15  1  0  0  0  0
 15 16  1  0  0  0  0
M  END
> <VConfSearch Rank>
491

> <Conf_Id>
33

> <Delta U+W>
0.015

> <U+W>
3.025

> <U>
5.843

> <W>
-2.819

> <W(PB)>
-4.568

> <W(SA)>
1.750

> <Valence>
13.789

> <Coulomb>
-8.574

> <VdW>
0.628

> <VdW6>
-3.284

> <VdW12>
3.913

> <Bond>
0.054

> <Angle>
4.033

> <Pdih>
9.702

> <Idih>
0.000

> <Tether>
0.000

$$$$
VeraChem MOL file


 16 16  0  0  0  0  0  0  0  0999 V2000     
   18.1815   18.5094   22.8434 C   0  0  0  0  0  0  0  0  0  0  0  0
   17.3372   18.4655   22.1415 H   0  0  0  0  0  0  0  0  0  0  0  0
   17.7732   18.4371   23.8608 H   0  0  0  0  0  0  0  0  0  0  0  0
   18.9669   19.8232   22.6386 C   0  0  0  0  0  0  0  0  0  0  0  0
   18.5022   20.4156   21.8384 H   0  0  0  0  0  0  0  0  0  0  0  0
   18.9704   20.4378   23.5493 H   0  0  0  0  0  0  0  0  0  0  0  0
   20.4012   19.4177   22.2375 C   0  0  0  0  0  0  0  0  0  0  0  0
   21.0510   19.4447   23.1222 H   0  0  0  0  0  0  0  0  0  0  0  0
   20.8305   20.0945   21.4868 H   0  0  0  0  0  0  0  0  0  0  0  0
   20.3084   17.9719   21.7313 C   0  0  0  0  0  0  0  0  0  0  0  0
   21.2536   17.4301   21.8790 H   0  0  0  0  0  0  0  0  0  0  0  0
   19.1709   17.3593   22.5595 C   0  0  0  0  0  0  0  0  0  0  0  0
   18.6914   16.5146   22.0469 H   0  0  0  0  0  0  0  0  0  0  0  0
   19.5810   16.9858   23.5071 H   0  0  0  0  0  0  0  0  0  0  0  0
   19.9374   17.9792   20.3605 O   0  0  0  0  0  0  0  0  0  0  0  0
   19.0949   18.4775   20.3272 H   0  0  0  0  0  0  0  0  0  0  0  0
  1  2  1  0  0  0  0
  1  3  1  0  0  0  0
  1  4  1  0  0  0  0
  4  5  1  0  0  0  0
  4  6  1  0  0  0  0
  4  7  1  0  0  0  0
  7  8  1  0  0  0  0
  7  9  1  0  0  0  0
  7 10  1  0  0  0  0
 10 11  1  0  0  0  0
  1 12  1  0  0  0  0
 10 12  1  0  0  0  0
 12 13  1  0  0  0  0
 12 14  1  0  0  0  0
 10 15  1  0  0  0  0
 15 16  1  0  0  0  0
M  END
> <VConfSearch Rank>
492

> <Conf_Id>
20

> <Delta U+W>
-0.483

> <U+W>
2.527

> <U>
4.508

> <W>
-1.981

> <W(PB)>
-3.712

> <W(SA)>
1.732

> <Valence>
14.705

> <Coulomb>
-10.687

> <VdW>
0.490

> <VdW6>
-3.745

> <VdW12>
4.235

> <Bond>
0.068

> <Angle>
3.901

> <Pdih>
10.737

> <Idih>
0.000

> <Tether>
0.000

$$$$
VeraChem MOL file


 16 16  0  0  0  0  0  0  0  0999 V2000     
   19.3024   17.1975   21.7942 C   0  0  0  0  0  0  0  0  0  0  0  0
   18.6677   17.2619   20.8994 H   0  0  0  0  0  0  0  0  0  0  0  0
   19.6667   16.1651   21.8842 H   0  0  0  0  0  0  0  0  0  0  0  0
   18.5030   17.6464   23.0252 C   0  0  0  0  0  0  0  0  0  0  0  0
   17.4644   17.2894   23.0021 H   0  0  0  0  0  0  0  0  0  0  0  0
   18.9793   17.2590   23.9366 H   0  0  0  0  0  0  0  0  0  0  0  0
   18.5950   19.1831   23.0022 C   0  0  0  0  0  0  0  0  0  0  0  0
   18.5396   19.6035   24.0147 H   0  0  0  0  0  0  0  0  0  0  0  0
   17.7549   19.5887   22.4220 H   0  0  0  0  0  0  0  0  0  0  0  0
   19.9341   19.5285   22.3171 C   0  0  0  0  0  0  0  0  0  0  0  0
   20.6591   19.8821   23.0647 H   0  0  0  0  0  0  0  0  0  0  0  0
   20.4501   18.2184   21.6868 C   0  0  0  0  0  0  0  0  0  0  0  0
   20.7731   18.3556   20.6462 H   0  0  0  0  0  0  0  0  0  0  0  0
   21.3154   17.8618   22.2605 H   0  0  0  0  0  0  0  0  0  0  0  0
   19.7306   20.5112   21.3088 O   0  0  0  0  0  0  0  0  0  0  0  0
   19.3943   21.3133   21.7617 H   0  0  0  0  0  0  0  0  0  0  0  0
  1  2  1  0  0  0  0
  1  3  1  0  0  0  0
  1  4  1  0  0  0  0
  4  5  1  0  0  0  0
  4  6  1  0  0  0  0
  4  7  1  0  0  0  0
  7  8  1  0  0  0  0
  7  9  1  0  0  0  0
  7 10  1  0  0  0  0
 10 11  1  0  0  0  0
  1 12  1  0  0  0  0
 10 12  1  0  0  0  0
 12 13  1  0  0  0  0
 12 14  1  0  0  0  0
 10 15  1  0  0  0  0
 15 16  1  0  0  0  0
M  END
> <VConfSearch Rank>
493

> <Conf_Id>
59

> <Delta U+W>
0.000

> <U+W>
3.010

> <U>
5.843

> <W>
-2.833

> <W(PB)>
-4.568

> <W(SA)>
1.735

> <Valence>
13.789

> <Coulomb>
-8.574

> <VdW>
0.628

> <VdW6>
-3.284

> <VdW12>
3.912

> <Bond>
0.054

> <Angle>
4.034

> <Pdih>
9.702

> <Idih>
0.000

> <Tether>
0.000

$$$$
VeraChem MOL file


 16 16  0  0  0  0  0  0  0  0999 V2000     
   18.4407   18.0205   23.1217 C   0  0  0  0  0  0  0  0  0  0  0  0
   18.0420   18.1107   24.1413 H   0  0  0  0  0  0  0  0  0  0  0  0
   17.7854   17.3445   22.5550 H   0  0  0  0  0  0  0  0  0  0  0  0
   19.8781   17.4826   23.1022 C   0  0  0  0  0  0  0  0  0  0  0  0
   20.4485   17.9260   23.9303 H   0  0  0  0  0  0  0  0  0  0  0  0
   19.9184   16.3895   23.2030 H   0  0  0  0  0  0  0  0  0  0  0  0
   20.4539   17.9706   21.7601 C   0  0  0  0  0  0  0  0  0  0  0  0
   20.2628   17.2198   20.9824 H   0  0  0  0  0  0  0  0  0  0  0  0
   21.5400   18.1227   21.8175 H   0  0  0  0  0  0  0  0  0  0  0  0
   19.6991   19.2678   21.4033 C   0  0  0  0  0  0  0  0  0  0  0  0
   19.3093   19.1909   20.3778 H   0  0  0  0  0  0  0  0  0  0  0  0
   18.5308   19.3805   22.4054 C   0  0  0  0  0  0  0  0  0  0  0  0
   18.7373   20.1671   23.1439 H   0  0  0  0  0  0  0  0  0  0  0  0
   17.5889   19.6310   21.9004 H   0  0  0  0  0  0  0  0  0  0  0  0
   20.5646   20.3897   21.5301 O   0  0  0  0  0  0  0  0  0  0  0  0
   20.0329   21.1820   21.3040 H   0  0  0  0  0  0  0  0  0  0  0  0
  1  2  1  0  0  0  0
  1  3  1  0  0  0  0
  1  4  1  0  0  0  0
  4  5  1  0  0  0  0
  4  6  1  0  0  0  0
  4  7  1  0  0  0  0
  7  8  1  0  0  0  0
  7  9  1  0  0  0  0
  7 10  1  0  0  0  0
 10 11  1  0  0  0  0
  1 12  1  0  0  0  0
 10 12  1  0  0  0  0
 12 13  1  0  0  0  0
 12 14  1  0  0  0  0
 10 15  1  0  0  0  0
 15 16  1  0  0  0  0
M  END
> <VConfSearch Rank>
494

> <Conf_Id>
33

> <Delta U+W>
0.015

> <U+W>
3.025

> <U>
5.843

> <W>
-2.819

> <W(PB)>
-4.568

> <W(SA)>
1.750

> <Valence>
13.789

> <Coulomb>
-8.574

> <VdW>
0.628

> <VdW6>
-3.284

> <VdW12>
3.913

> <Bond>
0.054

> <Angle>
4.033

> <Pdih>
9.702

> <Idih>
0.000

> <Tether>
0.000

$$$$
VeraChem MOL file


 16 16  0  0  0  0  0  0  0  0999 V2000     
   19.5198   19.8699   21.8361 C   0  0  0  0  0  0  0  0  0  0  0  0
   18.8471   20.5886   22.3242 H   0  0  0  0  0  0  0  0  0  0  0  0
   20.1472   20.4285   21.1280 H   0  0  0  0  0  0  0  0  0  0  0  0
   18.6933   18.7774   21.1232 C   0  0  0  0  0  0  0  0  0  0  0  0
   17.6206   18.9679   21.2653 H   0  0  0  0  0  0  0  0  0  0  0  0
   18.8891   18.7638   20.0422 H   0  0  0  0  0  0  0  0  0  0  0  0
   19.0874   17.4351   21.7752 C   0  0  0  0  0  0  0  0  0  0  0  0
   19.8428   16.9340   21.1556 H   0  0  0  0  0  0  0  0  0  0  0  0
   18.2319   16.7538   21.8751 H   0  0  0  0  0  0  0  0  0  0  0  0
   19.7106   17.7884   23.1323 C   0  0  0  0  0  0  0  0  0  0  0  0
   20.4372   17.0285   23.4541 H   0  0  0  0  0  0  0  0  0  0  0  0
   20.3832   19.1466   22.8914 C   0  0  0  0  0  0  0  0  0  0  0  0
   20.4858   19.7299   23.8162 H   0  0  0  0  0  0  0  0  0  0  0  0
   21.3909   18.9789   22.4887 H   0  0  0  0  0  0  0  0  0  0  0  0
   18.6782   17.9421   24.0953 O   0  0  0  0  0  0  0  0  0  0  0  0
   18.0866   18.6302   23.7270 H   0  0  0  0  0  0  0  0  0  0  0  0
  1  2  1  0  0  0  0
  1  3  1  0  0  0  0
  1  4  1  0  0  0  0
  4  5  1  0  0  0  0
  4  6  1  0  0  0  0
  4  7  1  0  0  0  0
  7  8  1  0  0  0  0
  7  9  1  0  0  0  0
  7 10  1  0  0  0  0
 10 11  1  0  0  0  0
  1 12  1  0  0  0  0
 10 12  1  0  0  0  0
 12 13  1  0  0  0  0
 12 14  1  0  0  0  0
 10 15  1  0  0  0  0
 15 16  1  0  0  0  0
M  END
> <VConfSearch Rank>
495

> <Conf_Id>
20

> <Delta U+W>
-0.483

> <U+W>
2.527

> <U>
4.508

> <W>
-1.981

> <W(PB)>
-3.712

> <W(SA)>
1.732

> <Valence>
14.705

> <Coulomb>
-10.687

> <VdW>
0.490

> <VdW6>
-3.745

> <VdW12>
4.235

> <Bond>
0.068

> <Angle>
3.901

> <Pdih>
10.737

> <Idih>
0.000

> <Tether>
0.000

$$$$
VeraChem MOL file


 16 16  0  0  0  0  0  0  0  0999 V2000     
   20.4917   18.8358   21.4485 C   0  0  0  0  0  0  0  0  0  0  0  0
   21.3356   18.2964   21.9007 H   0  0  0  0  0  0  0  0  0  0  0  0
   20.8415   19.3050   20.5189 H   0  0  0  0  0  0  0  0  0  0  0  0
   19.9396   19.8595   22.4501 C   0  0  0  0  0  0  0  0  0  0  0  0
   20.7358   20.3619   23.0160 H   0  0  0  0  0  0  0  0  0  0  0  0
   19.3624   20.6262   21.9147 H   0  0  0  0  0  0  0  0  0  0  0  0
   19.0028   19.0410   23.3573 C   0  0  0  0  0  0  0  0  0  0  0  0
   18.1863   19.6591   23.7525 H   0  0  0  0  0  0  0  0  0  0  0  0
   19.5736   18.6502   24.2106 H   0  0  0  0  0  0  0  0  0  0  0  0
   18.4678   17.8787   22.4944 C   0  0  0  0  0  0  0  0  0  0  0  0
   17.4167   18.0612   22.2271 H   0  0  0  0  0  0  0  0  0  0  0  0
   19.3240   17.8605   21.2112 C   0  0  0  0  0  0  0  0  0  0  0  0
   19.6831   16.8525   20.9640 H   0  0  0  0  0  0  0  0  0  0  0  0
   18.7145   18.2134   20.3692 H   0  0  0  0  0  0  0  0  0  0  0  0
   18.6034   16.6464   23.1922 O   0  0  0  0  0  0  0  0  0  0  0  0
   18.0507   16.7178   23.9990 H   0  0  0  0  0  0  0  0  0  0  0  0
  1  2  1  0  0  0  0
  1  3  1  0  0  0  0
  1  4  1  0  0  0  0
  4  5  1  0  0  0  0
  4  6  1  0  0  0  0
  4  7  1  0  0  0  0
  7  8  1  0  0  0  0
  7  9  1  0  0  0  0
  7 10  1  0  0  0  0
 10 11  1  0  0  0  0
  1 12  1  0  0  0  0
 10 12  1  0  0  0  0
 12 13  1  0  0  0  0
 12 14  1  0  0  0  0
 10 15  1  0  0  0  0
 15 16  1  0  0  0  0
M  END
> <VConfSearch Rank>
496

> <Conf_Id>
59

> <Delta U+W>
0.000

> <U+W>
3.010

> <U>
5.843

> <W>
-2.833

> <W(PB)>
-4.568

> <W(SA)>
1.735

> <Valence>
13.789

> <Coulomb>
-8.574

> <VdW>
0.628

> <VdW6>
-3.284

> <VdW12>
3.912

> <Bond>
0.054

> <Angle>
4.034

> <Pdih>
9.702

> <Idih>
0.000

> <Tether>
0.000

$$$$
VeraChem MOL file


 16 16  0  0  0  0  0  0  0  0999 V2000     
   19.3109   17.6771   21.2125 C   0  0  0  0  0  0  0  0  0  0  0  0
   19.0299   17.6675   20.1505 H   0  0  0  0  0  0  0  0  0  0  0  0
   19.6953   16.6817   21.4752 H   0  0  0  0  0  0  0  0  0  0  0  0
   18.1296   18.0319   22.1259 C   0  0  0  0  0  0  0  0  0  0  0  0
   17.5283   18.8246   21.6593 H   0  0  0  0  0  0  0  0  0  0  0  0
   17.4746   17.1713   22.3182 H   0  0  0  0  0  0  0  0  0  0  0  0
   18.7846   18.5706   23.4112 C   0  0  0  0  0  0  0  0  0  0  0  0
   18.9559   17.7432   24.1120 H   0  0  0  0  0  0  0  0  0  0  0  0
   18.1432   19.3066   23.9140 H   0  0  0  0  0  0  0  0  0  0  0  0
   20.1450   19.1669   22.9948 C   0  0  0  0  0  0  0  0  0  0  0  0
   20.9361   18.7485   23.6341 H   0  0  0  0  0  0  0  0  0  0  0  0
   20.3735   18.7458   21.5278 C   0  0  0  0  0  0  0  0  0  0  0  0
   20.2335   19.6058   20.8587 H   0  0  0  0  0  0  0  0  0  0  0  0
   21.3891   18.3596   21.3724 H   0  0  0  0  0  0  0  0  0  0  0  0
   20.1113   20.5854   23.0988 O   0  0  0  0  0  0  0  0  0  0  0  0
   20.9917   20.9093   22.8132 H   0  0  0  0  0  0  0  0  0  0  0  0
  1  2  1  0  0  0  0
  1  3  1  0  0  0  0
  1  4  1  0  0  0  0
  4  5  1  0  0  0  0
  4  6  1  0  0  0  0
  4  7  1  0  0  0  0
  7  8  1  0  0  0  0
  7  9  1  0  0  0  0
  7 10  1  0  0  0  0
 10 11  1  0  0  0  0
  1 12  1  0  0  0  0
 10 12  1  0  0  0  0
 12 13  1  0  0  0  0
 12 14  1  0  0  0  0
 10 15  1  0  0  0  0
 15 16  1  0  0  0  0
M  END
> <VConfSearch Rank>
497

> <Conf_Id>
33

> <Delta U+W>
0.015

> <U+W>
3.025

> <U>
5.843

> <W>
-2.819

> <W(PB)>
-4.568

> <W(SA)>
1.750

> <Valence>
13.789

> <Coulomb>
-8.574

> <VdW>
0.628

> <VdW6>
-3.284

> <VdW12>
3.913

> <Bond>
0.054

> <Angle>
4.033

> <Pdih>
9.702

> <Idih>
0.000

> <Tether>
0.000

$$$$
VeraChem MOL file


 16 16  0  0  0  0  0  0  0  0999 V2000     
   18.7650   19.7937   22.3499 C   0  0  0  0  0  0  0  0  0  0  0  0
   19.2594   20.6033   21.7955 H   0  0  0  0  0  0  0  0  0  0  0  0
   17.8656   20.2132   22.8212 H   0  0  0  0  0  0  0  0  0  0  0  0
   19.7348   19.2072   23.3991 C   0  0  0  0  0  0  0  0  0  0  0  0
   20.6981   19.7337   23.3531 H   0  0  0  0  0  0  0  0  0  0  0  0
   19.3422   19.3190   24.4190 H   0  0  0  0  0  0  0  0  0  0  0  0
   19.9230   17.7185   23.0372 C   0  0  0  0  0  0  0  0  0  0  0  0
   19.2570   17.1034   23.6566 H   0  0  0  0  0  0  0  0  0  0  0  0
   20.9517   17.3750   23.2098 H   0  0  0  0  0  0  0  0  0  0  0  0
   19.5035   17.5820   21.5674 C   0  0  0  0  0  0  0  0  0  0  0  0
   19.1335   16.5709   21.3444 H   0  0  0  0  0  0  0  0  0  0  0  0
   18.4027   18.6371   21.3942 C   0  0  0  0  0  0  0  0  0  0  0  0
   18.3075   18.9720   20.3527 H   0  0  0  0  0  0  0  0  0  0  0  0
   17.4406   18.2011   21.6942 H   0  0  0  0  0  0  0  0  0  0  0  0
   20.6045   17.9138   20.7340 O   0  0  0  0  0  0  0  0  0  0  0  0
   20.8627   18.8199   21.0017 H   0  0  0  0  0  0  0  0  0  0  0  0
  1  2  1  0  0  0  0
  1  3  1  0  0  0  0
  1  4  1  0  0  0  0
  4  5  1  0  0  0  0
  4  6  1  0  0  0  0
  4  7  1  0  0  0  0
  7  8  1  0  0  0  0
  7  9  1  0  0  0  0
  7 10  1  0  0  0  0
 10 11  1  0  0  0  0
  1 12  1  0  0  0  0
 10 12  1  0  0  0  0
 12 13  1  0  0  0  0
 12 14  1  0  0  0  0
 10 15  1  0  0  0  0
 15 16  1  0  0  0  0
M  END
> <VConfSearch Rank>
498

> <Conf_Id>
20

> <Delta U+W>
-0.483

> <U+W>
2.527

> <U>
4.508

> <W>
-1.981

> <W(PB)>
-3.712

> <W(SA)>
1.732

> <Valence>
14.705

> <Coulomb>
-10.687

> <VdW>
0.490

> <VdW6>
-3.745

> <VdW12>
4.235

> <Bond>
0.068

> <Angle>
3.901

> <Pdih>
10.737

> <Idih>
0.000

> <Tether>
0.000

$$$$
VeraChem MOL file


 16 16  0  0  0  0  0  0  0  0999 V2000     
   18.3870   17.6550   21.7123 C   0  0  0  0  0  0  0  0  0  0  0  0
   17.7905   17.2762   22.5539 H   0  0  0  0  0  0  0  0  0  0  0  0
   17.9687   17.2461   20.7825 H   0  0  0  0  0  0  0  0  0  0  0  0
   19.8595   17.2708   21.9113 C   0  0  0  0  0  0  0  0  0  0  0  0
   19.9757   16.2568   22.3177 H   0  0  0  0  0  0  0  0  0  0  0  0
   20.3871   17.3175   20.9485 H   0  0  0  0  0  0  0  0  0  0  0  0
   20.4119   18.3495   22.8609 C   0  0  0  0  0  0  0  0  0  0  0  0
   21.4834   18.5198   22.6945 H   0  0  0  0  0  0  0  0  0  0  0  0
   20.2801   18.0202   23.9006 H   0  0  0  0  0  0  0  0  0  0  0  0
   19.5867   19.6263   22.5957 C   0  0  0  0  0  0  0  0  0  0  0  0
   20.1917   20.3565   22.0387 H   0  0  0  0  0  0  0  0  0  0  0  0
   18.3846   19.1948   21.7305 C   0  0  0  0  0  0  0  0  0  0  0  0
   17.4340   19.5931   22.1093 H   0  0  0  0  0  0  0  0  0  0  0  0
   18.5230   19.5755   20.7102 H   0  0  0  0  0  0  0  0  0  0  0  0
   19.1326   20.1814   23.8244 O   0  0  0  0  0  0  0  0  0  0  0  0
   19.9330   20.4261   24.3353 H   0  0  0  0  0  0  0  0  0  0  0  0
  1  2  1  0  0  0  0
  1  3  1  0  0  0  0
  1  4  1  0  0  0  0
  4  5  1  0  0  0  0
  4  6  1  0  0  0  0
  4  7  1  0  0  0  0
  7  8  1  0  0  0  0
  7  9  1  0  0  0  0
  7 10  1  0  0  0  0
 10 11  1  0  0  0  0
  1 12  1  0  0  0  0
 10 12  1  0  0  0  0
 12 13  1  0  0  0  0
 12 14  1  0  0  0  0
 10 15  1  0  0  0  0
 15 16  1  0  0  0  0
M  END
> <VConfSearch Rank>
499

> <Conf_Id>
59

> <Delta U+W>
0.000

> <U+W>
3.010

> <U>
5.843

> <W>
-2.833

> <W(PB)>
-4.568

> <W(SA)>
1.735

> <Valence>
13.789

> <Coulomb>
-8.574

> <VdW>
0.628

> <VdW6>
-3.284

> <VdW12>
3.912

> <Bond>
0.054

> <Angle>
4.034

> <Pdih>
9.702

> <Idih>
0.000

> <Tether>
0.000

$$$$
VeraChem MOL file


 16 16  0  0  0  0  0  0  0  0999 V2000     
   20.4674   19.1116   21.4092 C   0  0  0  0  0  0  0  0  0  0  0  0
   20.8827   20.0727   21.0765 H   0  0  0  0  0  0  0  0  0  0  0  0
   21.1048   18.3074   21.0160 H   0  0  0  0  0  0  0  0  0  0  0  0
   19.0227   18.9041   20.9345 C   0  0  0  0  0  0  0  0  0  0  0  0
   18.4710   19.8516   21.0086 H   0  0  0  0  0  0  0  0  0  0  0  0
   18.9689   18.5549   19.8944 H   0  0  0  0  0  0  0  0  0  0  0  0
   18.4335   17.8854   21.9276 C   0  0  0  0  0  0  0  0  0  0  0  0
   18.6026   16.8669   21.5544 H   0  0  0  0  0  0  0  0  0  0  0  0
   17.3506   18.0203   22.0505 H   0  0  0  0  0  0  0  0  0  0  0  0
   19.2007   18.0692   23.2532 C   0  0  0  0  0  0  0  0  0  0  0  0
   19.5740   17.0929   23.5954 H   0  0  0  0  0  0  0  0  0  0  0  0
   20.3854   19.0084   22.9432 C   0  0  0  0  0  0  0  0  0  0  0  0
   20.2009   20.0058   23.3650 H   0  0  0  0  0  0  0  0  0  0  0  0
   21.3229   18.6299   23.3704 H   0  0  0  0  0  0  0  0  0  0  0  0
   18.3528   18.6557   24.2335 O   0  0  0  0  0  0  0  0  0  0  0  0
   18.8918   18.7591   25.0461 H   0  0  0  0  0  0  0  0  0  0  0  0
  1  2  1  0  0  0  0
  1  3  1  0  0  0  0
  1  4  1  0  0  0  0
  4  5  1  0  0  0  0
  4  6  1  0  0  0  0
  4  7  1  0  0  0  0
  7  8  1  0  0  0  0
  7  9  1  0  0  0  0
  7 10  1  0  0  0  0
 10 11  1  0  0  0  0
  1 12  1  0  0  0  0
 10 12  1  0  0  0  0
 12 13  1  0  0  0  0
 12 14  1  0  0  0  0
 10 15  1  0  0  0  0
 15 16  1  0  0  0  0
M  END
> <VConfSearch Rank>
500

> <Conf_Id>
33

> <Delta U+W>
0.015

> <U+W>
3.025

> <U>
5.843

> <W>
-2.819

> <W(PB)>
-4.568

> <W(SA)>
1.750

> <Valence>
13.789

> <Coulomb>
-8.574

> <VdW>
0.628

> <VdW6>
-3.284

> <VdW12>
3.913

> <Bond>
0.054

> <Angle>
4.033

> <Pdih>
9.702

> <Idih>
0.000

> <Tether>
0.000

$$$$
VeraChem MOL file


 16 16  0  0  0  0  0  0  0  0999 V2000     
   18.1237   18.4679   21.8213 C   0  0  0  0  0  0  0  0  0  0  0  0
   17.9886   17.6591   21.0899 H   0  0  0  0  0  0  0  0  0  0  0  0
   17.1411   18.9274   21.9954 H   0  0  0  0  0  0  0  0  0  0  0  0
   19.1442   19.4956   21.2852 C   0  0  0  0  0  0  0  0  0  0  0  0
   19.5022   19.1848   20.2941 H   0  0  0  0  0  0  0  0  0  0  0  0
   18.6957   20.4930   21.1799 H   0  0  0  0  0  0  0  0  0  0  0  0
   20.3139   19.5169   22.2921 C   0  0  0  0  0  0  0  0  0  0  0  0
   20.1866   20.3595   22.9846 H   0  0  0  0  0  0  0  0  0  0  0  0
   21.2871   19.6354   21.7971 H   0  0  0  0  0  0  0  0  0  0  0  0
   20.2193   18.2044   23.0815 C   0  0  0  0  0  0  0  0  0  0  0  0
   20.6458   18.3069   24.0898 H   0  0  0  0  0  0  0  0  0  0  0  0
   18.7145   17.9077   23.1325 C   0  0  0  0  0  0  0  0  0  0  0  0
   18.5057   16.8370   23.2591 H   0  0  0  0  0  0  0  0  0  0  0  0
   18.2755   18.4372   23.9884 H   0  0  0  0  0  0  0  0  0  0  0  0
   20.8748   17.1742   22.3565 O   0  0  0  0  0  0  0  0  0  0  0  0
   20.4330   17.1569   21.4826 H   0  0  0  0  0  0  0  0  0  0  0  0
  1  2  1  0  0  0  0
  1  3  1  0  0  0  0
  1  4  1  0  0  0  0
  4  5  1  0  0  0  0
  4  6  1  0  0  0  0
  4  7  1  0  0  0  0
  7  8  1  0  0  0  0
  7  9  1  0  0  0  0
  7 10  1  0  0  0  0
 10 11  1  0  0  0  0
  1 12  1  0  0  0  0
 10 12  1  0  0  0  0
 12 13  1  0  0  0  0
 12 14  1  0  0  0  0
 10 15  1  0  0  0  0
 15 16  1  0  0  0  0
M  END
> <VConfSearch Rank>
501

> <Conf_Id>
20

> <Delta U+W>
-0.483

> <U+W>
2.527

> <U>
4.508

> <W>
-1.981

> <W(PB)>
-3.712

> <W(SA)>
1.732

> <Valence>
14.705

> <Coulomb>
-10.687

> <VdW>
0.490

> <VdW6>
-3.745

> <VdW12>
4.235

> <Bond>
0.068

> <Angle>
3.901

> <Pdih>
10.737

> <Idih>
0.000

> <Tether>
0.000

$$$$
VeraChem MOL file


 16 16  0  0  0  0  0  0  0  0999 V2000     
   20.2749   19.6821   22.3439 C   0  0  0  0  0  0  0  0  0  0  0  0
   19.8707   20.3567   23.1114 H   0  0  0  0  0  0  0  0  0  0  0  0
   21.2151   20.1099   21.9703 H   0  0  0  0  0  0  0  0  0  0  0  0
   19.2360   19.4881   21.2309 C   0  0  0  0  0  0  0  0  0  0  0  0
   18.7040   20.4182   20.9890 H   0  0  0  0  0  0  0  0  0  0  0  0
   19.7338   19.1298   20.3190 H   0  0  0  0  0  0  0  0  0  0  0  0
   18.2934   18.3978   21.7725 C   0  0  0  0  0  0  0  0  0  0  0  0
   17.8517   17.8088   20.9583 H   0  0  0  0  0  0  0  0  0  0  0  0
   17.4735   18.8707   22.3301 H   0  0  0  0  0  0  0  0  0  0  0  0
   19.1422   17.5173   22.7137 C   0  0  0  0  0  0  0  0  0  0  0  0
   19.3556   16.5508   22.2343 H   0  0  0  0  0  0  0  0  0  0  0  0
   20.4658   18.2761   22.9422 C   0  0  0  0  0  0  0  0  0  0  0  0
   20.7417   18.3226   24.0041 H   0  0  0  0  0  0  0  0  0  0  0  0
   21.2730   17.7558   22.4103 H   0  0  0  0  0  0  0  0  0  0  0  0
   18.4658   17.3273   23.9508 O   0  0  0  0  0  0  0  0  0  0  0  0
   17.6322   16.8535   23.7456 H   0  0  0  0  0  0  0  0  0  0  0  0
  1  2  1  0  0  0  0
  1  3  1  0  0  0  0
  1  4  1  0  0  0  0
  4  5  1  0  0  0  0
  4  6  1  0  0  0  0
  4  7  1  0  0  0  0
  7  8  1  0  0  0  0
  7  9  1  0  0  0  0
  7 10  1  0  0  0  0
 10 11  1  0  0  0  0
  1 12  1  0  0  0  0
 10 12  1  0  0  0  0
 12 13  1  0  0  0  0
 12 14  1  0  0  0  0
 10 15  1  0  0  0  0
 15 16  1  0  0  0  0
M  END
> <VConfSearch Rank>
502

> <Conf_Id>
59

> <Delta U+W>
0.000

> <U+W>
3.010

> <U>
5.843

> <W>
-2.833

> <W(PB)>
-4.568

> <W(SA)>
1.735

> <Valence>
13.789

> <Coulomb>
-8.574

> <VdW>
0.628

> <VdW6>
-3.284

> <VdW12>
3.912

> <Bond>
0.054

> <Angle>
4.034

> <Pdih>
9.702

> <Idih>
0.000

> <Tether>
0.000

$$$$
VeraChem MOL file


 16 16  0  0  0  0  0  0  0  0999 V2000     
   20.8782   18.7553   22.2148 C   0  0  0  0  0  0  0  0  0  0  0  0
   21.7501   18.7822   22.8825 H   0  0  0  0  0  0  0  0  0  0  0  0
   21.2405   18.7248   21.1778 H   0  0  0  0  0  0  0  0  0  0  0  0
   19.9594   19.9699   22.4050 C   0  0  0  0  0  0  0  0  0  0  0  0
   19.8864   20.2126   23.4744 H   0  0  0  0  0  0  0  0  0  0  0  0
   20.3248   20.8596   21.8744 H   0  0  0  0  0  0  0  0  0  0  0  0
   18.5873   19.4997   21.8881 C   0  0  0  0  0  0  0  0  0  0  0  0
   18.5015   19.7215   20.8164 H   0  0  0  0  0  0  0  0  0  0  0  0
   17.7639   20.0133   22.4021 H   0  0  0  0  0  0  0  0  0  0  0  0
   18.5413   17.9711   22.0907 C   0  0  0  0  0  0  0  0  0  0  0  0
   18.2503   17.4880   21.1465 H   0  0  0  0  0  0  0  0  0  0  0  0
   19.9701   17.5418   22.4853 C   0  0  0  0  0  0  0  0  0  0  0  0
   20.0103   17.2889   23.5536 H   0  0  0  0  0  0  0  0  0  0  0  0
   20.2980   16.6611   21.9179 H   0  0  0  0  0  0  0  0  0  0  0  0
   17.6254   17.6411   23.1281 O   0  0  0  0  0  0  0  0  0  0  0  0
   17.6451   16.6651   23.2207 H   0  0  0  0  0  0  0  0  0  0  0  0
  1  2  1  0  0  0  0
  1  3  1  0  0  0  0
  1  4  1  0  0  0  0
  4  5  1  0  0  0  0
  4  6  1  0  0  0  0
  4  7  1  0  0  0  0
  7  8  1  0  0  0  0
  7  9  1  0  0  0  0
  7 10  1  0  0  0  0
 10 11  1  0  0  0  0
  1 12  1  0  0  0  0
 10 12  1  0  0  0  0
 12 13  1  0  0  0  0
 12 14  1  0  0  0  0
 10 15  1  0  0  0  0
 15 16  1  0  0  0  0
M  END
> <VConfSearch Rank>
503

> <Conf_Id>
33

> <Delta U+W>
0.015

> <U+W>
3.025

> <U>
5.843

> <W>
-2.819

> <W(PB)>
-4.568

> <W(SA)>
1.750

> <Valence>
13.789

> <Coulomb>
-8.574

> <VdW>
0.628

> <VdW6>
-3.284

> <VdW12>
3.913

> <Bond>
0.054

> <Angle>
4.033

> <Pdih>
9.702

> <Idih>
0.000

> <Tether>
0.000

$$$$
VeraChem MOL file


 16 16  0  0  0  0  0  0  0  0999 V2000     
   18.1866   18.2719   21.7577 C   0  0  0  0  0  0  0  0  0  0  0  0
   17.7137   19.0540   21.1479 H   0  0  0  0  0  0  0  0  0  0  0  0
   17.5170   17.4009   21.7604 H   0  0  0  0  0  0  0  0  0  0  0  0
   18.4369   18.8000   23.1872 C   0  0  0  0  0  0  0  0  0  0  0  0
   18.0843   19.8374   23.2695 H   0  0  0  0  0  0  0  0  0  0  0  0
   17.8991   18.2046   23.9377 H   0  0  0  0  0  0  0  0  0  0  0  0
   19.9619   18.7356   23.4167 C   0  0  0  0  0  0  0  0  0  0  0  0
   20.2117   17.8188   23.9669 H   0  0  0  0  0  0  0  0  0  0  0  0
   20.3311   19.5879   24.0027 H   0  0  0  0  0  0  0  0  0  0  0  0
   20.5993   18.6692   22.0223 C   0  0  0  0  0  0  0  0  0  0  0  0
   21.5683   18.1500   22.0447 H   0  0  0  0  0  0  0  0  0  0  0  0
   19.5696   17.9069   21.1776 C   0  0  0  0  0  0  0  0  0  0  0  0
   19.6490   18.1465   20.1088 H   0  0  0  0  0  0  0  0  0  0  0  0
   19.7425   16.8287   21.2920 H   0  0  0  0  0  0  0  0  0  0  0  0
   20.7418   19.9860   21.5100 O   0  0  0  0  0  0  0  0  0  0  0  0
   19.8390   20.3654   21.5278 H   0  0  0  0  0  0  0  0  0  0  0  0
  1  2  1  0  0  0  0
  1  3  1  0  0  0  0
  1  4  1  0  0  0  0
  4  5  1  0  0  0  0
  4  6  1  0  0  0  0
  4  7  1  0  0  0  0
  7  8  1  0  0  0  0
  7  9  1  0  0  0  0
  7 10  1  0  0  0  0
 10 11  1  0  0  0  0
  1 12  1  0  0  0  0
 10 12  1  0  0  0  0
 12 13  1  0  0  0  0
 12 14  1  0  0  0  0
 10 15  1  0  0  0  0
 15 16  1  0  0  0  0
M  END
> <VConfSearch Rank>
504

> <Conf_Id>
20

> <Delta U+W>
-0.483

> <U+W>
2.527

> <U>
4.508

> <W>
-1.981

> <W(PB)>
-3.712

> <W(SA)>
1.732

> <Valence>
14.705

> <Coulomb>
-10.687

> <VdW>
0.490

> <VdW6>
-3.745

> <VdW12>
4.235

> <Bond>
0.068

> <Angle>
3.901

> <Pdih>
10.737

> <Idih>
0.000

> <Tether>
0.000

$$$$
VeraChem MOL file


 16 16  0  0  0  0  0  0  0  0999 V2000     
   19.6238   17.2844   22.9706 C   0  0  0  0  0  0  0  0  0  0  0  0
   18.7467   17.1047   23.6077 H   0  0  0  0  0  0  0  0  0  0  0  0
   20.2929   16.4171   23.0536 H   0  0  0  0  0  0  0  0  0  0  0  0
   20.3059   18.5933   23.3916 C   0  0  0  0  0  0  0  0  0  0  0  0
   20.3223   18.7241   24.4822 H   0  0  0  0  0  0  0  0  0  0  0  0
   21.3431   18.6030   23.0287 H   0  0  0  0  0  0  0  0  0  0  0  0
   19.4953   19.6932   22.6817 C   0  0  0  0  0  0  0  0  0  0  0  0
   20.1171   20.5704   22.4609 H   0  0  0  0  0  0  0  0  0  0  0  0
   18.6737   20.0177   23.3348 H   0  0  0  0  0  0  0  0  0  0  0  0
   18.9342   19.0565   21.3927 C   0  0  0  0  0  0  0  0  0  0  0  0
   19.4821   19.4343   20.5171 H   0  0  0  0  0  0  0  0  0  0  0  0
   19.1661   17.5369   21.5222 C   0  0  0  0  0  0  0  0  0  0  0  0
   18.2677   16.9556   21.2750 H   0  0  0  0  0  0  0  0  0  0  0  0
   19.9603   17.2355   20.8269 H   0  0  0  0  0  0  0  0  0  0  0  0
   17.5436   19.3323   21.2741 O   0  0  0  0  0  0  0  0  0  0  0  0
   17.4549   20.3066   21.2067 H   0  0  0  0  0  0  0  0  0  0  0  0
  1  2  1  0  0  0  0
  1  3  1  0  0  0  0
  1  4  1  0  0  0  0
  4  5  1  0  0  0  0
  4  6  1  0  0  0  0
  4  7  1  0  0  0  0
  7  8  1  0  0  0  0
  7  9  1  0  0  0  0
  7 10  1  0  0  0  0
 10 11  1  0  0  0  0
  1 12  1  0  0  0  0
 10 12  1  0  0  0  0
 12 13  1  0  0  0  0
 12 14  1  0  0  0  0
 10 15  1  0  0  0  0
 15 16  1  0  0  0  0
M  END
> <VConfSearch Rank>
505

> <Conf_Id>
59

> <Delta U+W>
0.000

> <U+W>
3.010

> <U>
5.843

> <W>
-2.833

> <W(PB)>
-4.568

> <W(SA)>
1.735

> <Valence>
13.789

> <Coulomb>
-8.574

> <VdW>
0.628

> <VdW6>
-3.284

> <VdW12>
3.912

> <Bond>
0.054

> <Angle>
4.034

> <Pdih>
9.702

> <Idih>
0.000

> <Tether>
0.000

$$$$
VeraChem MOL file


 16 16  0  0  0  0  0  0  0  0999 V2000     
   20.7302   18.0476   22.6209 C   0  0  0  0  0  0  0  0  0  0  0  0
   21.4389   17.3059   22.2278 H   0  0  0  0  0  0  0  0  0  0  0  0
   21.2131   18.5758   23.4548 H   0  0  0  0  0  0  0  0  0  0  0  0
   19.4221   17.4065   23.1040 C   0  0  0  0  0  0  0  0  0  0  0  0
   19.1269   16.6056   22.4119 H   0  0  0  0  0  0  0  0  0  0  0  0
   19.5127   16.9757   24.1104 H   0  0  0  0  0  0  0  0  0  0  0  0
   18.3890   18.5468   23.0438 C   0  0  0  0  0  0  0  0  0  0  0  0
   18.3721   19.0797   24.0034 H   0  0  0  0  0  0  0  0  0  0  0  0
   17.3765   18.1656   22.8557 H   0  0  0  0  0  0  0  0  0  0  0  0
   18.8651   19.5136   21.9399 C   0  0  0  0  0  0  0  0  0  0  0  0
   18.8929   20.5374   22.3409 H   0  0  0  0  0  0  0  0  0  0  0  0
   20.2876   19.0605   21.5491 C   0  0  0  0  0  0  0  0  0  0  0  0
   20.2740   18.5679   20.5673 H   0  0  0  0  0  0  0  0  0  0  0  0
   20.9798   19.9104   21.4903 H   0  0  0  0  0  0  0  0  0  0  0  0
   17.9989   19.4373   20.8140 O   0  0  0  0  0  0  0  0  0  0  0  0
   18.3530   20.0595   20.1440 H   0  0  0  0  0  0  0  0  0  0  0  0
  1  2  1  0  0  0  0
  1  3  1  0  0  0  0
  1  4  1  0  0  0  0
  4  5  1  0  0  0  0
  4  6  1  0  0  0  0
  4  7  1  0  0  0  0
  7  8  1  0  0  0  0
  7  9  1  0  0  0  0
  7 10  1  0  0  0  0
 10 11  1  0  0  0  0
  1 12  1  0  0  0  0
 10 12  1  0  0  0  0
 12 13  1  0  0  0  0
 12 14  1  0  0  0  0
 10 15  1  0  0  0  0
 15 16  1  0  0  0  0
M  END
> <VConfSearch Rank>
506

> <Conf_Id>
33

> <Delta U+W>
0.015

> <U+W>
3.025

> <U>
5.843

> <W>
-2.819

> <W(PB)>
-4.568

> <W(SA)>
1.750

> <Valence>
13.789

> <Coulomb>
-8.574

> <VdW>
0.628

> <VdW6>
-3.284

> <VdW12>
3.913

> <Bond>
0.054

> <Angle>
4.033

> <Pdih>
9.702

> <Idih>
0.000

> <Tether>
0.000

$$$$
VeraChem MOL file


 16 16  0  0  0  0  0  0  0  0999 V2000     
   18.4403   17.7040   21.9685 C   0  0  0  0  0  0  0  0  0  0  0  0
   18.8020   16.6665   21.9578 H   0  0  0  0  0  0  0  0  0  0  0  0
   17.3649   17.6843   21.7448 H   0  0  0  0  0  0  0  0  0  0  0  0
   19.2206   18.5430   20.9330 C   0  0  0  0  0  0  0  0  0  0  0  0
   19.9592   17.9113   20.4204 H   0  0  0  0  0  0  0  0  0  0  0  0
   18.5532   18.9631   20.1681 H   0  0  0  0  0  0  0  0  0  0  0  0
   19.9325   19.6616   21.7231 C   0  0  0  0  0  0  0  0  0  0  0  0
   19.3383   20.5834   21.6700 H   0  0  0  0  0  0  0  0  0  0  0  0
   20.9305   19.8838   21.3224 H   0  0  0  0  0  0  0  0  0  0  0  0
   19.9843   19.1855   23.1811 C   0  0  0  0  0  0  0  0  0  0  0  0
   20.0056   20.0319   23.8826 H   0  0  0  0  0  0  0  0  0  0  0  0
   18.7089   18.3479   23.3453 C   0  0  0  0  0  0  0  0  0  0  0  0
   18.8026   17.5997   24.1437 H   0  0  0  0  0  0  0  0  0  0  0  0
   17.8763   19.0139   23.6076 H   0  0  0  0  0  0  0  0  0  0  0  0
   21.1187   18.3502   23.3603 O   0  0  0  0  0  0  0  0  0  0  0  0
   21.0141   17.6336   22.7011 H   0  0  0  0  0  0  0  0  0  0  0  0
  1  2  1  0  0  0  0
  1  3  1  0  0  0  0
  1  4  1  0  0  0  0
  4  5  1  0  0  0  0
  4  6  1  0  0  0  0
  4  7  1  0  0  0  0
  7  8  1  0  0  0  0
  7  9  1  0  0  0  0
  7 10  1  0  0  0  0
 10 11  1  0  0  0  0
  1 12  1  0  0  0  0
 10 12  1  0  0  0  0
 12 13  1  0  0  0  0
 12 14  1  0  0  0  0
 10 15  1  0  0  0  0
 15 16  1  0  0  0  0
M  END
> <VConfSearch Rank>
507

> <Conf_Id>
20

> <Delta U+W>
-0.483

> <U+W>
2.527

> <U>
4.508

> <W>
-1.981

> <W(PB)>
-3.712

> <W(SA)>
1.732

> <Valence>
14.705

> <Coulomb>
-10.687

> <VdW>
0.490

> <VdW6>
-3.745

> <VdW12>
4.235

> <Bond>
0.068

> <Angle>
3.901

> <Pdih>
10.737

> <Idih>
0.000

> <Tether>
0.000

$$$$
VeraChem MOL file


 16 16  0  0  0  0  0  0  0  0999 V2000     
   18.3905   17.9077   21.4426 C   0  0  0  0  0  0  0  0  0  0  0  0
   18.0748   18.6902   20.7386 H   0  0  0  0  0  0  0  0  0  0  0  0
   17.8936   16.9697   21.1600 H   0  0  0  0  0  0  0  0  0  0  0  0
   18.0548   18.3400   22.8765 C   0  0  0  0  0  0  0  0  0  0  0  0
   17.0828   18.8474   22.9433 H   0  0  0  0  0  0  0  0  0  0  0  0
   18.0278   17.4582   23.5317 H   0  0  0  0  0  0  0  0  0  0  0  0
   19.2233   19.2561   23.2839 C   0  0  0  0  0  0  0  0  0  0  0  0
   19.3999   19.2234   24.3668 H   0  0  0  0  0  0  0  0  0  0  0  0
   18.9835   20.2932   23.0123 H   0  0  0  0  0  0  0  0  0  0  0  0
   20.4552   18.7674   22.4932 C   0  0  0  0  0  0  0  0  0  0  0  0
   21.1459   18.2355   23.1636 H   0  0  0  0  0  0  0  0  0  0  0  0
   19.9256   17.7877   21.4257 C   0  0  0  0  0  0  0  0  0  0  0  0
   20.3364   17.9958   20.4287 H   0  0  0  0  0  0  0  0  0  0  0  0
   20.2184   16.7661   21.7007 H   0  0  0  0  0  0  0  0  0  0  0  0
   21.1063   19.8678   21.8694 O   0  0  0  0  0  0  0  0  0  0  0  0
   21.4108   20.4595   22.5896 H   0  0  0  0  0  0  0  0  0  0  0  0
  1  2  1  0  0  0  0
  1  3  1  0  0  0  0
  1  4  1  0  0  0  0
  4  5  1  0  0  0  0
  4  6  1  0  0  0  0
  4  7  1  0  0  0  0
  7  8  1  0  0  0  0
  7  9  1  0  0  0  0
  7 10  1  0  0  0  0
 10 11  1  0  0  0  0
  1 12  1  0  0  0  0
 10 12  1  0  0  0  0
 12 13  1  0  0  0  0
 12 14  1  0  0  0  0
 10 15  1  0  0  0  0
 15 16  1  0  0  0  0
M  END
> <VConfSearch Rank>
508

> <Conf_Id>
59

> <Delta U+W>
0.000

> <U+W>
3.010

> <U>
5.843

> <W>
-2.833

> <W(PB)>
-4.568

> <W(SA)>
1.735

> <Valence>
13.789

> <Coulomb>
-8.574

> <VdW>
0.628

> <VdW6>
-3.284

> <VdW12>
3.912

> <Bond>
0.054

> <Angle>
4.034

> <Pdih>
9.702

> <Idih>
0.000

> <Tether>
0.000

$$$$
VeraChem MOL file


 16 16  0  0  0  0  0  0  0  0999 V2000     
   20.1359   18.5243   23.5514 C   0  0  0  0  0  0  0  0  0  0  0  0
   19.9576   18.1601   24.5724 H   0  0  0  0  0  0  0  0  0  0  0  0
   21.1955   18.8028   23.4662 H   0  0  0  0  0  0  0  0  0  0  0  0
   19.2550   19.7310   23.1996 C   0  0  0  0  0  0  0  0  0  0  0  0
   18.2482   19.5855   23.6153 H   0  0  0  0  0  0  0  0  0  0  0  0
   19.6575   20.6736   23.5946 H   0  0  0  0  0  0  0  0  0  0  0  0
   19.1843   19.7209   21.6615 C   0  0  0  0  0  0  0  0  0  0  0  0
   20.0066   20.3211   21.2509 H   0  0  0  0  0  0  0  0  0  0  0  0
   18.2422   20.1520   21.2972 H   0  0  0  0  0  0  0  0  0  0  0  0
   19.3649   18.2531   21.2225 C   0  0  0  0  0  0  0  0  0  0  0  0
   20.1572   18.1962   20.4619 H   0  0  0  0  0  0  0  0  0  0  0  0
   19.7867   17.4709   22.4842 C   0  0  0  0  0  0  0  0  0  0  0  0
   18.9541   16.8513   22.8441 H   0  0  0  0  0  0  0  0  0  0  0  0
   20.6376   16.8076   22.2820 H   0  0  0  0  0  0  0  0  0  0  0  0
   18.1401   17.7392   20.7130 O   0  0  0  0  0  0  0  0  0  0  0  0
   18.3093   16.8066   20.4616 H   0  0  0  0  0  0  0  0  0  0  0  0
  1  2  1  0  0  0  0
  1  3  1  0  0  0  0
  1  4  1  0  0  0  0
  4  5  1  0  0  0  0
  4  6  1  0  0  0  0
  4  7  1  0  0  0  0
  7  8  1  0  0  0  0
  7  9  1  0  0  0  0
  7 10  1  0  0  0  0
 10 11  1  0  0  0  0
  1 12  1  0  0  0  0
 10 12  1  0  0  0  0
 12 13  1  0  0  0  0
 12 14  1  0  0  0  0
 10 15  1  0  0  0  0
 15 16  1  0  0  0  0
M  END
> <VConfSearch Rank>
509

> <Conf_Id>
33

> <Delta U+W>
0.015

> <U+W>
3.025

> <U>
5.843

> <W>
-2.819

> <W(PB)>
-4.568

> <W(SA)>
1.750

> <Valence>
13.789

> <Coulomb>
-8.574

> <VdW>
0.628

> <VdW6>
-3.284

> <VdW12>
3.913

> <Bond>
0.054

> <Angle>
4.033

> <Pdih>
9.702

> <Idih>
0.000

> <Tether>
0.000

$$$$
VeraChem MOL file


 16 16  0  0  0  0  0  0  0  0999 V2000     
   18.8494   18.5379   23.4829 C   0  0  0  0  0  0  0  0  0  0  0  0
   17.8028   18.8667   23.5436 H   0  0  0  0  0  0  0  0  0  0  0  0
   19.1571   18.2180   24.4879 H   0  0  0  0  0  0  0  0  0  0  0  0
   19.7327   19.6913   22.9588 C   0  0  0  0  0  0  0  0  0  0  0  0
   19.1137   20.5785   22.7669 H   0  0  0  0  0  0  0  0  0  0  0  0
   20.5031   19.9740   23.6892 H   0  0  0  0  0  0  0  0  0  0  0  0
   20.3705   19.1918   21.6450 C   0  0  0  0  0  0  0  0  0  0  0  0
   21.3848   18.8229   21.8466 H   0  0  0  0  0  0  0  0  0  0  0  0
   20.4478   19.9868   20.8913 H   0  0  0  0  0  0  0  0  0  0  0  0
   19.5002   18.0213   21.1680 C   0  0  0  0  0  0  0  0  0  0  0  0
   20.0792   17.3052   20.5672 H   0  0  0  0  0  0  0  0  0  0  0  0
   18.9876   17.3844   22.4667 C   0  0  0  0  0  0  0  0  0  0  0  0
   18.0433   16.8433   22.3202 H   0  0  0  0  0  0  0  0  0  0  0  0
   19.7328   16.6638   22.8288 H   0  0  0  0  0  0  0  0  0  0  0  0
   18.3985   18.5283   20.4292 O   0  0  0  0  0  0  0  0  0  0  0  0
   17.9480   19.1496   21.0376 H   0  0  0  0  0  0  0  0  0  0  0  0
  1  2  1  0  0  0  0
  1  3  1  0  0  0  0
  1  4  1  0  0  0  0
  4  5  1  0  0  0  0
  4  6  1  0  0  0  0
  4  7  1  0  0  0  0
  7  8  1  0  0  0  0
  7  9  1  0  0  0  0
  7 10  1  0  0  0  0
 10 11  1  0  0  0  0
  1 12  1  0  0  0  0
 10 12  1  0  0  0  0
 12 13  1  0  0  0  0
 12 14  1  0  0  0  0
 10 15  1  0  0  0  0
 15 16  1  0  0  0  0
M  END
> <VConfSearch Rank>
510

> <Conf_Id>
20

> <Delta U+W>
-0.483

> <U+W>
2.527

> <U>
4.508

> <W>
-1.981

> <W(PB)>
-3.712

> <W(SA)>
1.732

> <Valence>
14.705

> <Coulomb>
-10.687

> <VdW>
0.490

> <VdW6>
-3.745

> <VdW12>
4.235

> <Bond>
0.068

> <Angle>
3.901

> <Pdih>
10.737

> <Idih>
0.000

> <Tether>
0.000

$$$$
VeraChem MOL file


 16 16  0  0  0  0  0  0  0  0999 V2000     
   19.2684   19.3413   21.0951 C   0  0  0  0  0  0  0  0  0  0  0  0
   19.7189   20.3110   21.3492 H   0  0  0  0  0  0  0  0  0  0  0  0
   18.9973   19.3561   20.0308 H   0  0  0  0  0  0  0  0  0  0  0  0
   18.0595   19.0818   22.0045 C   0  0  0  0  0  0  0  0  0  0  0  0
   17.4657   19.9892   22.1795 H   0  0  0  0  0  0  0  0  0  0  0  0
   17.4063   18.3271   21.5446 H   0  0  0  0  0  0  0  0  0  0  0  0
   18.6696   18.5214   23.3023 C   0  0  0  0  0  0  0  0  0  0  0  0
   17.9747   17.8408   23.8110 H   0  0  0  0  0  0  0  0  0  0  0  0
   18.8914   19.3511   23.9872 H   0  0  0  0  0  0  0  0  0  0  0  0
   19.9725   17.8015   22.8949 C   0  0  0  0  0  0  0  0  0  0  0  0
   19.8325   16.7119   22.9471 H   0  0  0  0  0  0  0  0  0  0  0  0
   20.2558   18.2094   21.4343 C   0  0  0  0  0  0  0  0  0  0  0  0
   21.2975   18.5229   21.2837 H   0  0  0  0  0  0  0  0  0  0  0  0
   20.0685   17.3485   20.7795 H   0  0  0  0  0  0  0  0  0  0  0  0
   21.0440   18.2123   23.7357 O   0  0  0  0  0  0  0  0  0  0  0  0
   20.8069   17.9392   24.6471 H   0  0  0  0  0  0  0  0  0  0  0  0
  1  2  1  0  0  0  0
  1  3  1  0  0  0  0
  1  4  1  0  0  0  0
  4  5  1  0  0  0  0
  4  6  1  0  0  0  0
  4  7  1  0  0  0  0
  7  8  1  0  0  0  0
  7  9  1  0  0  0  0
  7 10  1  0  0  0  0
 10 11  1  0  0  0  0
  1 12  1  0  0  0  0
 10 12  1  0  0  0  0
 12 13  1  0  0  0  0
 12 14  1  0  0  0  0
 10 15  1  0  0  0  0
 15 16  1  0  0  0  0
M  END
> <VConfSearch Rank>
511

> <Conf_Id>
59

> <Delta U+W>
0.000

> <U+W>
3.010

> <U>
5.843

> <W>
-2.833

> <W(PB)>
-4.568

> <W(SA)>
1.735

> <Valence>
13.789

> <Coulomb>
-8.574

> <VdW>
0.628

> <VdW6>
-3.284

> <VdW12>
3.912

> <Bond>
0.054

> <Angle>
4.034

> <Pdih>
9.702

> <Idih>
0.000

> <Tether>
0.000

$$$$
VeraChem MOL file


 16 16  0  0  0  0  0  0  0  0999 V2000     
   18.4023   17.8394   21.6913 C   0  0  0  0  0  0  0  0  0  0  0  0
   18.2684   17.0916   20.8978 H   0  0  0  0  0  0  0  0  0  0  0  0
   17.4567   17.9267   22.2443 H   0  0  0  0  0  0  0  0  0  0  0  0
   18.8051   19.2130   21.1374 C   0  0  0  0  0  0  0  0  0  0  0  0
   19.5190   19.0823   20.3122 H   0  0  0  0  0  0  0  0  0  0  0  0
   17.9445   19.7824   20.7610 H   0  0  0  0  0  0  0  0  0  0  0  0
   19.5033   19.9144   22.3170 C   0  0  0  0  0  0  0  0  0  0  0  0
   18.7628   20.4733   22.9039 H   0  0  0  0  0  0  0  0  0  0  0  0
   20.2626   20.6283   21.9709 H   0  0  0  0  0  0  0  0  0  0  0  0
   20.1056   18.7999   23.1974 C   0  0  0  0  0  0  0  0  0  0  0  0
   19.7895   18.9498   24.2400 H   0  0  0  0  0  0  0  0  0  0  0  0
   19.5399   17.4683   22.6602 C   0  0  0  0  0  0  0  0  0  0  0  0
   20.3174   16.9174   22.1135 H   0  0  0  0  0  0  0  0  0  0  0  0
   19.1801   16.8254   23.4738 H   0  0  0  0  0  0  0  0  0  0  0  0
   21.5245   18.8072   23.0955 O   0  0  0  0  0  0  0  0  0  0  0  0
   21.8510   18.0766   23.6622 H   0  0  0  0  0  0  0  0  0  0  0  0
  1  2  1  0  0  0  0
  1  3  1  0  0  0  0
  1  4  1  0  0  0  0
  4  5  1  0  0  0  0
  4  6  1  0  0  0  0
  4  7  1  0  0  0  0
  7  8  1  0  0  0  0
  7  9  1  0  0  0  0
  7 10  1  0  0  0  0
 10 11  1  0  0  0  0
  1 12  1  0  0  0  0
 10 12  1  0  0  0  0
 12 13  1  0  0  0  0
 12 14  1  0  0  0  0
 10 15  1  0  0  0  0
 15 16  1  0  0  0  0
M  END
> <VConfSearch Rank>
512

> <Conf_Id>
33

> <Delta U+W>
0.015

> <U+W>
3.025

> <U>
5.843

> <W>
-2.819

> <W(PB)>
-4.568

> <W(SA)>
1.750

> <Valence>
13.789

> <Coulomb>
-8.574

> <VdW>
0.628

> <VdW6>
-3.284

> <VdW12>
3.913

> <Bond>
0.054

> <Angle>
4.033

> <Pdih>
9.702

> <Idih>
0.000

> <Tether>
0.000

$$$$
VeraChem MOL file


 16 16  0  0  0  0  0  0  0  0999 V2000     
   18.2920   18.0326   21.7373 C   0  0  0  0  0  0  0  0  0  0  0  0
   17.6662   17.5036   22.4693 H   0  0  0  0  0  0  0  0  0  0  0  0
   17.8079   17.9389   20.7555 H   0  0  0  0  0  0  0  0  0  0  0  0
   19.7139   17.4301   21.7291 C   0  0  0  0  0  0  0  0  0  0  0  0
   19.7760   16.6089   22.4564 H   0  0  0  0  0  0  0  0  0  0  0  0
   19.9741   17.0222   20.7428 H   0  0  0  0  0  0  0  0  0  0  0  0
   20.6746   18.5702   22.1289 C   0  0  0  0  0  0  0  0  0  0  0  0
   21.1138   19.0135   21.2255 H   0  0  0  0  0  0  0  0  0  0  0  0
   21.4991   18.2168   22.7624 H   0  0  0  0  0  0  0  0  0  0  0  0
   19.8117   19.6259   22.8332 C   0  0  0  0  0  0  0  0  0  0  0  0
   20.2383   20.6337   22.7268 H   0  0  0  0  0  0  0  0  0  0  0  0
   18.4469   19.5144   22.1405 C   0  0  0  0  0  0  0  0  0  0  0  0
   17.6252   19.8592   22.7823 H   0  0  0  0  0  0  0  0  0  0  0  0
   18.4523   20.1412   21.2390 H   0  0  0  0  0  0  0  0  0  0  0  0
   19.6710   19.2772   24.2026 O   0  0  0  0  0  0  0  0  0  0  0  0
   19.2888   18.3755   24.1980 H   0  0  0  0  0  0  0  0  0  0  0  0
  1  2  1  0  0  0  0
  1  3  1  0  0  0  0
  1  4  1  0  0  0  0
  4  5  1  0  0  0  0
  4  6  1  0  0  0  0
  4  7  1  0  0  0  0
  7  8  1  0  0  0  0
  7  9  1  0  0  0  0
  7 10  1  0  0  0  0
 10 11  1  0  0  0  0
  1 12  1  0  0  0  0
 10 12  1  0  0  0  0
 12 13  1  0  0  0  0
 12 14  1  0  0  0  0
 10 15  1  0  0  0  0
 15 16  1  0  0  0  0
M  END
> <VConfSearch Rank>
513

> <Conf_Id>
20

> <Delta U+W>
-0.483

> <U+W>
2.527

> <U>
4.508

> <W>
-1.981

> <W(PB)>
-3.712

> <W(SA)>
1.732

> <Valence>
14.705

> <Coulomb>
-10.687

> <VdW>
0.490

> <VdW6>
-3.745

> <VdW12>
4.235

> <Bond>
0.068

> <Angle>
3.901

> <Pdih>
10.737

> <Idih>
0.000

> <Tether>
0.000

$$$$
VeraChem MOL file


 16 16  0  0  0  0  0  0  0  0999 V2000     
   20.2892   19.6133   21.9607 C   0  0  0  0  0  0  0  0  0  0  0  0
   20.6514   19.3502   20.9571 H   0  0  0  0  0  0  0  0  0  0  0  0
   20.7319   20.5777   22.2445 H   0  0  0  0  0  0  0  0  0  0  0  0
   20.6454   18.4920   22.9464 C   0  0  0  0  0  0  0  0  0  0  0  0
   21.6448   18.0752   22.7619 H   0  0  0  0  0  0  0  0  0  0  0  0
   20.6197   18.8811   23.9739 H   0  0  0  0  0  0  0  0  0  0  0  0
   19.5305   17.4471   22.7571 C   0  0  0  0  0  0  0  0  0  0  0  0
   19.3494   16.8820   23.6805 H   0  0  0  0  0  0  0  0  0  0  0  0
   19.8304   16.7331   21.9779 H   0  0  0  0  0  0  0  0  0  0  0  0
   18.2747   18.2265   22.3134 C   0  0  0  0  0  0  0  0  0  0  0  0
   17.5526   18.2795   23.1412 H   0  0  0  0  0  0  0  0  0  0  0  0
   18.7498   19.6510   21.9598 C   0  0  0  0  0  0  0  0  0  0  0  0
   18.3544   19.9947   20.9947 H   0  0  0  0  0  0  0  0  0  0  0  0
   18.3978   20.3476   22.7318 H   0  0  0  0  0  0  0  0  0  0  0  0
   17.6897   17.6074   21.1739 O   0  0  0  0  0  0  0  0  0  0  0  0
   17.4179   16.7071   21.4515 H   0  0  0  0  0  0  0  0  0  0  0  0
  1  2  1  0  0  0  0
  1  3  1  0  0  0  0
  1  4  1  0  0  0  0
  4  5  1  0  0  0  0
  4  6  1  0  0  0  0
  4  7  1  0  0  0  0
  7  8  1  0  0  0  0
  7  9  1  0  0  0  0
  7 10  1  0  0  0  0
 10 11  1  0  0  0  0
  1 12  1  0  0  0  0
 10 12  1  0  0  0  0
 12 13  1  0  0  0  0
 12 14  1  0  0  0  0
 10 15  1  0  0  0  0
 15 16  1  0  0  0  0
M  END
> <VConfSearch Rank>
514

> <Conf_Id>
59

> <Delta U+W>
0.000

> <U+W>
3.010

> <U>
5.843

> <W>
-2.833

> <W(PB)>
-4.568

> <W(SA)>
1.735

> <Valence>
13.789

> <Coulomb>
-8.574

> <VdW>
0.628

> <VdW6>
-3.284

> <VdW12>
3.912

> <Bond>
0.054

> <Angle>
4.034

> <Pdih>
9.702

> <Idih>
0.000

> <Tether>
0.000

$$$$
VeraChem MOL file


 16 16  0  0  0  0  0  0  0  0999 V2000     
   20.7575   19.1641   22.0649 C   0  0  0  0  0  0  0  0  0  0  0  0
   21.3038   19.7183   21.2895 H   0  0  0  0  0  0  0  0  0  0  0  0
   21.3851   19.1253   22.9661 H   0  0  0  0  0  0  0  0  0  0  0  0
   20.4010   17.7385   21.6221 C   0  0  0  0  0  0  0  0  0  0  0  0
   20.0970   17.7460   20.5660 H   0  0  0  0  0  0  0  0  0  0  0  0
   21.2431   17.0419   21.7328 H   0  0  0  0  0  0  0  0  0  0  0  0
   19.1983   17.3511   22.5021 C   0  0  0  0  0  0  0  0  0  0  0  0
   19.5550   16.8743   23.4244 H   0  0  0  0  0  0  0  0  0  0  0  0
   18.5370   16.6381   21.9920 H   0  0  0  0  0  0  0  0  0  0  0  0
   18.4756   18.6655   22.8625 C   0  0  0  0  0  0  0  0  0  0  0  0
   18.3304   18.7135   23.9516 H   0  0  0  0  0  0  0  0  0  0  0  0
   19.4015   19.8110   22.4019 C   0  0  0  0  0  0  0  0  0  0  0  0
   18.9943   20.2911   21.5017 H   0  0  0  0  0  0  0  0  0  0  0  0
   19.5063   20.5814   23.1768 H   0  0  0  0  0  0  0  0  0  0  0  0
   17.2272   18.7407   22.1844 O   0  0  0  0  0  0  0  0  0  0  0  0
   16.8195   19.5952   22.4397 H   0  0  0  0  0  0  0  0  0  0  0  0
  1  2  1  0  0  0  0
  1  3  1  0  0  0  0
  1  4  1  0  0  0  0
  4  5  1  0  0  0  0
  4  6  1  0  0  0  0
  4  7  1  0  0  0  0
  7  8  1  0  0  0  0
  7  9  1  0  0  0  0
  7 10  1  0  0  0  0
 10 11  1  0  0  0  0
  1 12  1  0  0  0  0
 10 12  1  0  0  0  0
 12 13  1  0  0  0  0
 12 14  1  0  0  0  0
 10 15  1  0  0  0  0
 15 16  1  0  0  0  0
M  END
> <VConfSearch Rank>
515

> <Conf_Id>
33

> <Delta U+W>
0.015

> <U+W>
3.025

> <U>
5.843

> <W>
-2.819

> <W(PB)>
-4.568

> <W(SA)>
1.750

> <Valence>
13.789

> <Coulomb>
-8.574

> <VdW>
0.628

> <VdW6>
-3.284

> <VdW12>
3.913

> <Bond>
0.054

> <Angle>
4.033

> <Pdih>
9.702

> <Idih>
0.000

> <Tether>
0.000

$$$$
VeraChem MOL file


 16 16  0  0  0  0  0  0  0  0999 V2000     
   19.2121   17.3855   21.7507 C   0  0  0  0  0  0  0  0  0  0  0  0
   18.2230   16.9471   21.9423 H   0  0  0  0  0  0  0  0  0  0  0  0
   19.7887   16.6615   21.1588 H   0  0  0  0  0  0  0  0  0  0  0  0
   19.9110   17.7098   23.0891 C   0  0  0  0  0  0  0  0  0  0  0  0
   19.2607   17.4273   23.9284 H   0  0  0  0  0  0  0  0  0  0  0  0
   20.8538   17.1561   23.1969 H   0  0  0  0  0  0  0  0  0  0  0  0
   20.1586   19.2333   23.0957 C   0  0  0  0  0  0  0  0  0  0  0  0
   21.1900   19.4388   22.7799 H   0  0  0  0  0  0  0  0  0  0  0  0
   20.0205   19.6731   24.0925 H   0  0  0  0  0  0  0  0  0  0  0  0
   19.1931   19.8254   22.0603 C   0  0  0  0  0  0  0  0  0  0  0  0
   19.5835   20.7591   21.6304 H   0  0  0  0  0  0  0  0  0  0  0  0
   19.0646   18.7251   20.9983 C   0  0  0  0  0  0  0  0  0  0  0  0
   18.1184   18.7897   20.4447 H   0  0  0  0  0  0  0  0  0  0  0  0
   19.8832   18.8312   20.2742 H   0  0  0  0  0  0  0  0  0  0  0  0
   17.9276   20.0381   22.6688 O   0  0  0  0  0  0  0  0  0  0  0  0
   17.6629   19.1626   23.0189 H   0  0  0  0  0  0  0  0  0  0  0  0
  1  2  1  0  0  0  0
  1  3  1  0  0  0  0
  1  4  1  0  0  0  0
  4  5  1  0  0  0  0
  4  6  1  0  0  0  0
  4  7  1  0  0  0  0
  7  8  1  0  0  0  0
  7  9  1  0  0  0  0
  7 10  1  0  0  0  0
 10 11  1  0  0  0  0
  1 12  1  0  0  0  0
 10 12  1  0  0  0  0
 12 13  1  0  0  0  0
 12 14  1  0  0  0  0
 10 15  1  0  0  0  0
 15 16  1  0  0  0  0
M  END
> <VConfSearch Rank>
516

> <Conf_Id>
20

> <Delta U+W>
-0.483

> <U+W>
2.527

> <U>
4.508

> <W>
-1.981

> <W(PB)>
-3.712

> <W(SA)>
1.732

> <Valence>
14.705

> <Coulomb>
-10.687

> <VdW>
0.490

> <VdW6>
-3.745

> <VdW12>
4.235

> <Bond>
0.068

> <Angle>
3.901

> <Pdih>
10.737

> <Idih>
0.000

> <Tether>
0.000

$$$$
VeraChem MOL file


 16 16  0  0  0  0  0  0  0  0999 V2000     
   19.7316   19.8129   22.9384 C   0  0  0  0  0  0  0  0  0  0  0  0
   18.9877   19.9683   23.7322 H   0  0  0  0  0  0  0  0  0  0  0  0
   20.4634   20.6306   22.9878 H   0  0  0  0  0  0  0  0  0  0  0  0
   19.0245   19.7405   21.5780 C   0  0  0  0  0  0  0  0  0  0  0  0
   18.2037   20.4657   21.4944 H   0  0  0  0  0  0  0  0  0  0  0  0
   19.7464   19.9444   20.7749 H   0  0  0  0  0  0  0  0  0  0  0  0
   18.5327   18.2848   21.4789 C   0  0  0  0  0  0  0  0  0  0  0  0
   18.4829   17.9484   20.4353 H   0  0  0  0  0  0  0  0  0  0  0  0
   17.5228   18.2129   21.9052 H   0  0  0  0  0  0  0  0  0  0  0  0
   19.5226   17.4343   22.3025 C   0  0  0  0  0  0  0  0  0  0  0  0
   20.1704   16.8538   21.6296 H   0  0  0  0  0  0  0  0  0  0  0  0
   20.3846   18.4287   23.1074 C   0  0  0  0  0  0  0  0  0  0  0  0
   20.4671   18.1472   24.1657 H   0  0  0  0  0  0  0  0  0  0  0  0
   21.3984   18.4457   22.6867 H   0  0  0  0  0  0  0  0  0  0  0  0
   18.8134   16.5732   23.1855 O   0  0  0  0  0  0  0  0  0  0  0  0
   18.2774   15.9742   22.6239 H   0  0  0  0  0  0  0  0  0  0  0  0
  1  2  1  0  0  0  0
  1  3  1  0  0  0  0
  1  4  1  0  0  0  0
  4  5  1  0  0  0  0
  4  6  1  0  0  0  0
  4  7  1  0  0  0  0
  7  8  1  0  0  0  0
  7  9  1  0  0  0  0
  7 10  1  0  0  0  0
 10 11  1  0  0  0  0
  1 12  1  0  0  0  0
 10 12  1  0  0  0  0
 12 13  1  0  0  0  0
 12 14  1  0  0  0  0
 10 15  1  0  0  0  0
 15 16  1  0  0  0  0
M  END
> <VConfSearch Rank>
517

> <Conf_Id>
59

> <Delta U+W>
0.000

> <U+W>
3.010

> <U>
5.843

> <W>
-2.833

> <W(PB)>
-4.568

> <W(SA)>
1.735

> <Valence>
13.789

> <Coulomb>
-8.574

> <VdW>
0.628

> <VdW6>
-3.284

> <VdW12>
3.912

> <Bond>
0.054

> <Angle>
4.034

> <Pdih>
9.702

> <Idih>
0.000

> <Tether>
0.000

$$$$
VeraChem MOL file


 16 16  0  0  0  0  0  0  0  0999 V2000     
   19.3890   19.6138   21.2660 C   0  0  0  0  0  0  0  0  0  0  0  0
   19.1220   20.6732   21.1515 H   0  0  0  0  0  0  0  0  0  0  0  0
   19.8384   19.2691   20.3244 H   0  0  0  0  0  0  0  0  0  0  0  0
   18.1751   18.7395   21.6093 C   0  0  0  0  0  0  0  0  0  0  0  0
   17.5259   19.2725   22.3178 H   0  0  0  0  0  0  0  0  0  0  0  0
   17.5792   18.4824   20.7230 H   0  0  0  0  0  0  0  0  0  0  0  0
   18.7759   17.4980   22.2939 C   0  0  0  0  0  0  0  0  0  0  0  0
   18.9958   16.7314   21.5395 H   0  0  0  0  0  0  0  0  0  0  0  0
   18.0790   17.0603   23.0211 H   0  0  0  0  0  0  0  0  0  0  0  0
   20.0965   17.9527   22.9489 C   0  0  0  0  0  0  0  0  0  0  0  0
   20.9070   17.2767   22.6397 H   0  0  0  0  0  0  0  0  0  0  0  0
   20.3710   19.3794   22.4285 C   0  0  0  0  0  0  0  0  0  0  0  0
   20.1797   20.1167   23.2200 H   0  0  0  0  0  0  0  0  0  0  0  0
   21.4128   19.4967   22.1032 H   0  0  0  0  0  0  0  0  0  0  0  0
   19.9632   17.9640   24.3652 O   0  0  0  0  0  0  0  0  0  0  0  0
   20.8222   18.2694   24.7262 H   0  0  0  0  0  0  0  0  0  0  0  0
  1  2  1  0  0  0  0
  1  3  1  0  0  0  0
  1  4  1  0  0  0  0
  4  5  1  0  0  0  0
  4  6  1  0  0  0  0
  4  7  1  0  0  0  0
  7  8  1  0  0  0  0
  7  9  1  0  0  0  0
  7 10  1  0  0  0  0
 10 11  1  0  0  0  0
  1 12  1  0  0  0  0
 10 12  1  0  0  0  0
 12 13  1  0  0  0  0
 12 14  1  0  0  0  0
 10 15  1  0  0  0  0
 15 16  1  0  0  0  0
M  END
> <VConfSearch Rank>
518

> <Conf_Id>
33

> <Delta U+W>
0.015

> <U+W>
3.025

> <U>
5.843

> <W>
-2.819

> <W(PB)>
-4.568

> <W(SA)>
1.750

> <Valence>
13.789

> <Coulomb>
-8.574

> <VdW>
0.628

> <VdW6>
-3.284

> <VdW12>
3.913

> <Bond>
0.054

> <Angle>
4.033

> <Pdih>
9.702

> <Idih>
0.000

> <Tether>
0.000

$$$$
VeraChem MOL file


 16 16  0  0  0  0  0  0  0  0999 V2000     
   19.9809   17.6790   21.5135 C   0  0  0  0  0  0  0  0  0  0  0  0
   21.0295   17.9017   21.2725 H   0  0  0  0  0  0  0  0  0  0  0  0
   19.7350   16.7067   21.0649 H   0  0  0  0  0  0  0  0  0  0  0  0
   19.0680   18.8011   20.9726 C   0  0  0  0  0  0  0  0  0  0  0  0
   19.6747   19.5662   20.4689 H   0  0  0  0  0  0  0  0  0  0  0  0
   18.3439   18.4156   20.2418 H   0  0  0  0  0  0  0  0  0  0  0  0
   18.3507   19.4097   22.1963 C   0  0  0  0  0  0  0  0  0  0  0  0
   17.3504   18.9674   22.2927 H   0  0  0  0  0  0  0  0  0  0  0  0
   18.2280   20.4974   22.1084 H   0  0  0  0  0  0  0  0  0  0  0  0
   19.1894   19.0164   23.4198 C   0  0  0  0  0  0  0  0  0  0  0  0
   18.5743   18.9545   24.3291 H   0  0  0  0  0  0  0  0  0  0  0  0
   19.7800   17.6509   23.0436 C   0  0  0  0  0  0  0  0  0  0  0  0
   20.7133   17.4387   23.5821 H   0  0  0  0  0  0  0  0  0  0  0  0
   19.0579   16.8660   23.3044 H   0  0  0  0  0  0  0  0  0  0  0  0
   20.2442   19.9529   23.5844 O   0  0  0  0  0  0  0  0  0  0  0  0
   20.7315   19.9397   22.7350 H   0  0  0  0  0  0  0  0  0  0  0  0
  1  2  1  0  0  0  0
  1  3  1  0  0  0  0
  1  4  1  0  0  0  0
  4  5  1  0  0  0  0
  4  6  1  0  0  0  0
  4  7  1  0  0  0  0
  7  8  1  0  0  0  0
  7  9  1  0  0  0  0
  7 10  1  0  0  0  0
 10 11  1  0  0  0  0
  1 12  1  0  0  0  0
 10 12  1  0  0  0  0
 12 13  1  0  0  0  0
 12 14  1  0  0  0  0
 10 15  1  0  0  0  0
 15 16  1  0  0  0  0
M  END
> <VConfSearch Rank>
519

> <Conf_Id>
20

> <Delta U+W>
-0.483

> <U+W>
2.527

> <U>
4.508

> <W>
-1.981

> <W(PB)>
-3.712

> <W(SA)>
1.732

> <Valence>
14.705

> <Coulomb>
-10.687

> <VdW>
0.490

> <VdW6>
-3.745

> <VdW12>
4.235

> <Bond>
0.068

> <Angle>
3.901

> <Pdih>
10.737

> <Idih>
0.000

> <Tether>
0.000

$$$$
VeraChem MOL file


 16 16  0  0  0  0  0  0  0  0999 V2000     
   19.5613   19.1834   23.6089 C   0  0  0  0  0  0  0  0  0  0  0  0
   19.9427   18.3824   24.2575 H   0  0  0  0  0  0  0  0  0  0  0  0
   19.5489   20.1175   24.1868 H   0  0  0  0  0  0  0  0  0  0  0  0
   18.1711   18.8010   23.0828 C   0  0  0  0  0  0  0  0  0  0  0  0
   17.5561   18.3071   23.8474 H   0  0  0  0  0  0  0  0  0  0  0  0
   17.6420   19.7035   22.7466 H   0  0  0  0  0  0  0  0  0  0  0  0
   18.4559   17.8850   21.8784 C   0  0  0  0  0  0  0  0  0  0  0  0
   17.6582   17.9503   21.1273 H   0  0  0  0  0  0  0  0  0  0  0  0
   18.5130   16.8426   22.2203 H   0  0  0  0  0  0  0  0  0  0  0  0
   19.8154   18.3341   21.3024 C   0  0  0  0  0  0  0  0  0  0  0  0
   19.6631   18.8792   20.3595 H   0  0  0  0  0  0  0  0  0  0  0  0
   20.4367   19.2851   22.3462 C   0  0  0  0  0  0  0  0  0  0  0  0
   21.4856   19.0407   22.5606 H   0  0  0  0  0  0  0  0  0  0  0  0
   20.4059   20.3116   21.9583 H   0  0  0  0  0  0  0  0  0  0  0  0
   20.6599   17.2070   21.1016 O   0  0  0  0  0  0  0  0  0  0  0  0
   20.2136   16.6351   20.4418 H   0  0  0  0  0  0  0  0  0  0  0  0
  1  2  1  0  0  0  0
  1  3  1  0  0  0  0
  1  4  1  0  0  0  0
  4  5  1  0  0  0  0
  4  6  1  0  0  0  0
  4  7  1  0  0  0  0
  7  8  1  0  0  0  0
  7  9  1  0  0  0  0
  7 10  1  0  0  0  0
 10 11  1  0  0  0  0
  1 12  1  0  0  0  0
 10 12  1  0  0  0  0
 12 13  1  0  0  0  0
 12 14  1  0  0  0  0
 10 15  1  0  0  0  0
 15 16  1  0  0  0  0
M  END
> <VConfSearch Rank>
520

> <Conf_Id>
59

> <Delta U+W>
0.000

> <U+W>
3.010

> <U>
5.843

> <W>
-2.833

> <W(PB)>
-4.568

> <W(SA)>
1.735

> <Valence>
13.789

> <Coulomb>
-8.574

> <VdW>
0.628

> <VdW6>
-3.284

> <VdW12>
3.912

> <Bond>
0.054

> <Angle>
4.034

> <Pdih>
9.702

> <Idih>
0.000

> <Tether>
0.000

$$$$
VeraChem MOL file


 16 16  0  0  0  0  0  0  0  0999 V2000     
   19.9762   19.8021   21.6841 C   0  0  0  0  0  0  0  0  0  0  0  0
   20.0934   20.2447   20.6855 H   0  0  0  0  0  0  0  0  0  0  0  0
   20.2537   20.5596   22.4304 H   0  0  0  0  0  0  0  0  0  0  0  0
   20.8426   18.5494   21.8731 C   0  0  0  0  0  0  0  0  0  0  0  0
   20.8342   17.9531   20.9501 H   0  0  0  0  0  0  0  0  0  0  0  0
   21.8858   18.7935   22.1157 H   0  0  0  0  0  0  0  0  0  0  0  0
   20.1453   17.7652   23.0000 C   0  0  0  0  0  0  0  0  0  0  0  0
   20.5507   18.0770   23.9713 H   0  0  0  0  0  0  0  0  0  0  0  0
   20.3094   16.6838   22.9014 H   0  0  0  0  0  0  0  0  0  0  0  0
   18.6500   18.1388   22.9357 C   0  0  0  0  0  0  0  0  0  0  0  0
   18.3108   18.4531   23.9335 H   0  0  0  0  0  0  0  0  0  0  0  0
   18.5385   19.3165   21.9446 C   0  0  0  0  0  0  0  0  0  0  0  0
   18.0926   18.9779   20.9995 H   0  0  0  0  0  0  0  0  0  0  0  0
   17.9093   20.1222   22.3446 H   0  0  0  0  0  0  0  0  0  0  0  0
   17.8873   17.0317   22.4702 O   0  0  0  0  0  0  0  0  0  0  0  0
   16.9529   17.3273   22.4385 H   0  0  0  0  0  0  0  0  0  0  0  0
  1  2  1  0  0  0  0
  1  3  1  0  0  0  0
  1  4  1  0  0  0  0
  4  5  1  0  0  0  0
  4  6  1  0  0  0  0
  4  7  1  0  0  0  0
  7  8  1  0  0  0  0
  7  9  1  0  0  0  0
  7 10  1  0  0  0  0
 10 11  1  0  0  0  0
  1 12  1  0  0  0  0
 10 12  1  0  0  0  0
 12 13  1  0  0  0  0
 12 14  1  0  0  0  0
 10 15  1  0  0  0  0
 15 16  1  0  0  0  0
M  END
> <VConfSearch Rank>
521

> <Conf_Id>
33

> <Delta U+W>
0.015

> <U+W>
3.025

> <U>
5.843

> <W>
-2.819

> <W(PB)>
-4.568

> <W(SA)>
1.750

> <Valence>
13.789

> <Coulomb>
-8.574

> <VdW>
0.628

> <VdW6>
-3.284

> <VdW12>
3.913

> <Bond>
0.054

> <Angle>
4.033

> <Pdih>
9.702

> <Idih>
0.000

> <Tether>
0.000

$$$$
VeraChem MOL file


 16 16  0  0  0  0  0  0  0  0999 V2000     
   18.8164   18.2891   21.0893 C   0  0  0  0  0  0  0  0  0  0  0  0
   17.7917   18.6645   20.9619 H   0  0  0  0  0  0  0  0  0  0  0  0
   19.0915   17.7527   20.1708 H   0  0  0  0  0  0  0  0  0  0  0  0
   18.8886   17.3690   22.3275 C   0  0  0  0  0  0  0  0  0  0  0  0
   17.8986   17.2982   22.7987 H   0  0  0  0  0  0  0  0  0  0  0  0
   19.2024   16.3515   22.0569 H   0  0  0  0  0  0  0  0  0  0  0  0
   19.8960   18.0204   23.2987 C   0  0  0  0  0  0  0  0  0  0  0  0
   20.8784   17.5441   23.1821 H   0  0  0  0  0  0  0  0  0  0  0  0
   19.5934   17.9095   24.3485 H   0  0  0  0  0  0  0  0  0  0  0  0
   20.0025   19.4920   22.8768 C   0  0  0  0  0  0  0  0  0  0  0  0
   20.9828   19.9173   23.1360 H   0  0  0  0  0  0  0  0  0  0  0  0
   19.7839   19.4613   21.3582 C   0  0  0  0  0  0  0  0  0  0  0  0
   19.3989   20.4153   20.9740 H   0  0  0  0  0  0  0  0  0  0  0  0
   20.7444   19.2651   20.8636 H   0  0  0  0  0  0  0  0  0  0  0  0
   18.9531   20.2302   23.4856 O   0  0  0  0  0  0  0  0  0  0  0  0
   18.1292   19.7834   23.2014 H   0  0  0  0  0  0  0  0  0  0  0  0
  1  2  1  0  0  0  0
  1  3  1  0  0  0  0
  1  4  1  0  0  0  0
  4  5  1  0  0  0  0
  4  6  1  0  0  0  0
  4  7  1  0  0  0  0
  7  8  1  0  0  0  0
  7  9  1  0  0  0  0
  7 10  1  0  0  0  0
 10 11  1  0  0  0  0
  1 12  1  0  0  0  0
 10 12  1  0  0  0  0
 12 13  1  0  0  0  0
 12 14  1  0  0  0  0
 10 15  1  0  0  0  0
 15 16  1  0  0  0  0
M  END
> <VConfSearch Rank>
522

> <Conf_Id>
20

> <Delta U+W>
-0.483

> <U+W>
2.527

> <U>
4.508

> <W>
-1.981

> <W(PB)>
-3.712

> <W(SA)>
1.732

> <Valence>
14.705

> <Coulomb>
-10.687

> <VdW>
0.490

> <VdW6>
-3.745

> <VdW12>
4.235

> <Bond>
0.068

> <Angle>
3.901

> <Pdih>
10.737

> <Idih>
0.000

> <Tether>
0.000

$$$$
VeraChem MOL file


 16 16  0  0  0  0  0  0  0  0999 V2000     
   19.9202   19.8902   22.2019 C   0  0  0  0  0  0  0  0  0  0  0  0
   20.4293   19.9035   21.2281 H   0  0  0  0  0  0  0  0  0  0  0  0
   20.0008   20.8916   22.6461 H   0  0  0  0  0  0  0  0  0  0  0  0
   20.5392   18.8030   23.0911 C   0  0  0  0  0  0  0  0  0  0  0  0
   21.6315   18.7496   22.9868 H   0  0  0  0  0  0  0  0  0  0  0  0
   20.3043   19.0091   24.1446 H   0  0  0  0  0  0  0  0  0  0  0  0
   19.8439   17.5031   22.6470 C   0  0  0  0  0  0  0  0  0  0  0  0
   19.7810   16.7803   23.4707 H   0  0  0  0  0  0  0  0  0  0  0  0
   20.4223   17.0406   21.8356 H   0  0  0  0  0  0  0  0  0  0  0  0
   18.4438   17.9097   22.1411 C   0  0  0  0  0  0  0  0  0  0  0  0
   17.6783   17.6130   22.8729 H   0  0  0  0  0  0  0  0  0  0  0  0
   18.4576   19.4470   22.0131 C   0  0  0  0  0  0  0  0  0  0  0  0
   18.0526   19.7889   21.0513 H   0  0  0  0  0  0  0  0  0  0  0  0
   17.8364   19.8781   22.8089 H   0  0  0  0  0  0  0  0  0  0  0  0
   18.1873   17.3143   20.8748 O   0  0  0  0  0  0  0  0  0  0  0  0
   18.2010   16.3435   21.0125 H   0  0  0  0  0  0  0  0  0  0  0  0
  1  2  1  0  0  0  0
  1  3  1  0  0  0  0
  1  4  1  0  0  0  0
  4  5  1  0  0  0  0
  4  6  1  0  0  0  0
  4  7  1  0  0  0  0
  7  8  1  0  0  0  0
  7  9  1  0  0  0  0
  7 10  1  0  0  0  0
 10 11  1  0  0  0  0
  1 12  1  0  0  0  0
 10 12  1  0  0  0  0
 12 13  1  0  0  0  0
 12 14  1  0  0  0  0
 10 15  1  0  0  0  0
 15 16  1  0  0  0  0
M  END
> <VConfSearch Rank>
523

> <Conf_Id>
59

> <Delta U+W>
0.000

> <U+W>
3.010

> <U>
5.843

> <W>
-2.833

> <W(PB)>
-4.568

> <W(SA)>
1.735

> <Valence>
13.789

> <Coulomb>
-8.574

> <VdW>
0.628

> <VdW6>
-3.284

> <VdW12>
3.912

> <Bond>
0.054

> <Angle>
4.034

> <Pdih>
9.702

> <Idih>
0.000

> <Tether>
0.000

$$$$
VeraChem MOL file


 16 16  0  0  0  0  0  0  0  0999 V2000     
   18.9627   17.7214   21.2787 C   0  0  0  0  0  0  0  0  0  0  0  0
   18.4304   16.7639   21.1979 H   0  0  0  0  0  0  0  0  0  0  0  0
   19.0382   18.1585   20.2733 H   0  0  0  0  0  0  0  0  0  0  0  0
   20.3663   17.5605   21.8785 C   0  0  0  0  0  0  0  0  0  0  0  0
   20.3367   16.8222   22.6920 H   0  0  0  0  0  0  0  0  0  0  0  0
   21.1038   17.2256   21.1365 H   0  0  0  0  0  0  0  0  0  0  0  0
   20.7008   18.9489   22.4542 C   0  0  0  0  0  0  0  0  0  0  0  0
   21.2007   19.5550   21.6875 H   0  0  0  0  0  0  0  0  0  0  0  0
   21.3773   18.8769   23.3163 H   0  0  0  0  0  0  0  0  0  0  0  0
   19.3553   19.6094   22.8193 C   0  0  0  0  0  0  0  0  0  0  0  0
   19.3078   20.6109   22.3673 H   0  0  0  0  0  0  0  0  0  0  0  0
   18.2530   18.7083   22.2238 C   0  0  0  0  0  0  0  0  0  0  0  0
   17.7475   18.1474   23.0217 H   0  0  0  0  0  0  0  0  0  0  0  0
   17.4940   19.2969   21.6925 H   0  0  0  0  0  0  0  0  0  0  0  0
   19.2149   19.6878   24.2328 O   0  0  0  0  0  0  0  0  0  0  0  0
   18.3434   20.1024   24.4063 H   0  0  0  0  0  0  0  0  0  0  0  0
  1  2  1  0  0  0  0
  1  3  1  0  0  0  0
  1  4  1  0  0  0  0
  4  5  1  0  0  0  0
  4  6  1  0  0  0  0
  4  7  1  0  0  0  0
  7  8  1  0  0  0  0
  7  9  1  0  0  0  0
  7 10  1  0  0  0  0
 10 11  1  0  0  0  0
  1 12  1  0  0  0  0
 10 12  1  0  0  0  0
 12 13  1  0  0  0  0
 12 14  1  0  0  0  0
 10 15  1  0  0  0  0
 15 16  1  0  0  0  0
M  END
> <VConfSearch Rank>
524

> <Conf_Id>
33

> <Delta U+W>
0.015

> <U+W>
3.025

> <U>
5.843

> <W>
-2.819

> <W(PB)>
-4.568

> <W(SA)>
1.750

> <Valence>
13.789

> <Coulomb>
-8.574

> <VdW>
0.628

> <VdW6>
-3.284

> <VdW12>
3.913

> <Bond>
0.054

> <Angle>
4.033

> <Pdih>
9.702

> <Idih>
0.000

> <Tether>
0.000

$$$$
VeraChem MOL file


 16 16  0  0  0  0  0  0  0  0999 V2000     
   19.9423   19.7221   22.7383 C   0  0  0  0  0  0  0  0  0  0  0  0
   20.9813   19.8773   22.4163 H   0  0  0  0  0  0  0  0  0  0  0  0
   19.6594   20.5730   23.3730 H   0  0  0  0  0  0  0  0  0  0  0  0
   19.8223   18.3827   23.4976 C   0  0  0  0  0  0  0  0  0  0  0  0
   20.8034   17.8901   23.5440 H   0  0  0  0  0  0  0  0  0  0  0  0
   19.4756   18.5329   24.5292 H   0  0  0  0  0  0  0  0  0  0  0  0
   18.8271   17.5144   22.6987 C   0  0  0  0  0  0  0  0  0  0  0  0
   17.8297   17.5884   23.1520 H   0  0  0  0  0  0  0  0  0  0  0  0
   19.1128   16.4540   22.6911 H   0  0  0  0  0  0  0  0  0  0  0  0
   18.7784   18.1135   21.2868 C   0  0  0  0  0  0  0  0  0  0  0  0
   17.8109   17.9240   20.7999 H   0  0  0  0  0  0  0  0  0  0  0  0
   19.0142   19.6134   21.5098 C   0  0  0  0  0  0  0  0  0  0  0  0
   19.4377   20.1042   20.6234 H   0  0  0  0  0  0  0  0  0  0  0  0
   18.0534   20.0961   21.7320 H   0  0  0  0  0  0  0  0  0  0  0  0
   19.8462   17.5817   20.5160 O   0  0  0  0  0  0  0  0  0  0  0  0
   20.6569   17.7960   21.0219 H   0  0  0  0  0  0  0  0  0  0  0  0
  1  2  1  0  0  0  0
  1  3  1  0  0  0  0
  1  4  1  0  0  0  0
  4  5  1  0  0  0  0
  4  6  1  0  0  0  0
  4  7  1  0  0  0  0
  7  8  1  0  0  0  0
  7  9  1  0  0  0  0
  7 10  1  0  0  0  0
 10 11  1  0  0  0  0
  1 12  1  0  0  0  0
 10 12  1  0  0  0  0
 12 13  1  0  0  0  0
 12 14  1  0  0  0  0
 10 15  1  0  0  0  0
 15 16  1  0  0  0  0
M  END
> <VConfSearch Rank>
525

> <Conf_Id>
20

> <Delta U+W>
-0.483

> <U+W>
2.527

> <U>
4.508

> <W>
-1.981

> <W(PB)>
-3.712

> <W(SA)>
1.732

> <Valence>
14.705

> <Coulomb>
-10.687

> <VdW>
0.490

> <VdW6>
-3.745

> <VdW12>
4.235

> <Bond>
0.068

> <Angle>
3.901

> <Pdih>
10.737

> <Idih>
0.000

> <Tether>
0.000

$$$$
VeraChem MOL file


 16 16  0  0  0  0  0  0  0  0999 V2000     
   19.0494   19.2393   21.0696 C   0  0  0  0  0  0  0  0  0  0  0  0
   18.1513   18.7370   20.6838 H   0  0  0  0  0  0  0  0  0  0  0  0
   19.2970   20.0689   20.3935 H   0  0  0  0  0  0  0  0  0  0  0  0
   20.1932   18.2235   21.1944 C   0  0  0  0  0  0  0  0  0  0  0  0
   20.2181   17.5167   20.3538 H   0  0  0  0  0  0  0  0  0  0  0  0
   21.1557   18.7527   21.2268 H   0  0  0  0  0  0  0  0  0  0  0  0
   19.9382   17.5230   22.5415 C   0  0  0  0  0  0  0  0  0  0  0  0
   20.8749   17.1775   22.9976 H   0  0  0  0  0  0  0  0  0  0  0  0
   19.2981   16.6451   22.3790 H   0  0  0  0  0  0  0  0  0  0  0  0
   19.2170   18.5522   23.4372 C   0  0  0  0  0  0  0  0  0  0  0  0
   19.9067   18.9315   24.2052 H   0  0  0  0  0  0  0  0  0  0  0  0
   18.7956   19.7129   22.5126 C   0  0  0  0  0  0  0  0  0  0  0  0
   17.7482   20.0067   22.6633 H   0  0  0  0  0  0  0  0  0  0  0  0
   19.4220   20.5882   22.7287 H   0  0  0  0  0  0  0  0  0  0  0  0
   18.0702   17.9621   24.0377 O   0  0  0  0  0  0  0  0  0  0  0  0
   18.3942   17.2284   24.6018 H   0  0  0  0  0  0  0  0  0  0  0  0
  1  2  1  0  0  0  0
  1  3  1  0  0  0  0
  1  4  1  0  0  0  0
  4  5  1  0  0  0  0
  4  6  1  0  0  0  0
  4  7  1  0  0  0  0
  7  8  1  0  0  0  0
  7  9  1  0  0  0  0
  7 10  1  0  0  0  0
 10 11  1  0  0  0  0
  1 12  1  0  0  0  0
 10 12  1  0  0  0  0
 12 13  1  0  0  0  0
 12 14  1  0  0  0  0
 10 15  1  0  0  0  0
 15 16  1  0  0  0  0
M  END
> <VConfSearch Rank>
526

> <Conf_Id>
59

> <Delta U+W>
0.000

> <U+W>
3.010

> <U>
5.843

> <W>
-2.833

> <W(PB)>
-4.568

> <W(SA)>
1.735

> <Valence>
13.789

> <Coulomb>
-8.574

> <VdW>
0.628

> <VdW6>
-3.284

> <VdW12>
3.912

> <Bond>
0.054

> <Angle>
4.034

> <Pdih>
9.702

> <Idih>
0.000

> <Tether>
0.000

$$$$
VeraChem MOL file


 16 16  0  0  0  0  0  0  0  0999 V2000     
   19.6827   18.1334   23.6258 C   0  0  0  0  0  0  0  0  0  0  0  0
   19.1433   18.0247   24.5766 H   0  0  0  0  0  0  0  0  0  0  0  0
   20.6495   17.6193   23.7186 H   0  0  0  0  0  0  0  0  0  0  0  0
   19.9137   19.6036   23.2503 C   0  0  0  0  0  0  0  0  0  0  0  0
   19.0208   20.1927   23.5020 H   0  0  0  0  0  0  0  0  0  0  0  0
   20.7737   20.0407   23.7757 H   0  0  0  0  0  0  0  0  0  0  0  0
   20.1057   19.5853   21.7226 C   0  0  0  0  0  0  0  0  0  0  0  0
   21.1699   19.4559   21.4865 H   0  0  0  0  0  0  0  0  0  0  0  0
   19.7735   20.5253   21.2621 H   0  0  0  0  0  0  0  0  0  0  0  0
   19.3216   18.3659   21.1953 C   0  0  0  0  0  0  0  0  0  0  0  0
   19.9796   17.7597   20.5558 H   0  0  0  0  0  0  0  0  0  0  0  0
   18.8961   17.5531   22.4363 C   0  0  0  0  0  0  0  0  0  0  0  0
   17.8196   17.6733   22.6193 H   0  0  0  0  0  0  0  0  0  0  0  0
   19.0984   16.4821   22.3059 H   0  0  0  0  0  0  0  0  0  0  0  0
   18.1739   18.7957   20.4728 O   0  0  0  0  0  0  0  0  0  0  0  0
   17.7106   17.9852   20.1729 H   0  0  0  0  0  0  0  0  0  0  0  0
  1  2  1  0  0  0  0
  1  3  1  0  0  0  0
  1  4  1  0  0  0  0
  4  5  1  0  0  0  0
  4  6  1  0  0  0  0
  4  7  1  0  0  0  0
  7  8  1  0  0  0  0
  7  9  1  0  0  0  0
  7 10  1  0  0  0  0
 10 11  1  0  0  0  0
  1 12  1  0  0  0  0
 10 12  1  0  0  0  0
 12 13  1  0  0  0  0
 12 14  1  0  0  0  0
 10 15  1  0  0  0  0
 15 16  1  0  0  0  0
M  END
> <VConfSearch Rank>
527

> <Conf_Id>
33

> <Delta U+W>
0.015

> <U+W>
3.025

> <U>
5.843

> <W>
-2.819

> <W(PB)>
-4.568

> <W(SA)>
1.750

> <Valence>
13.789

> <Coulomb>
-8.574

> <VdW>
0.628

> <VdW6>
-3.284

> <VdW12>
3.913

> <Bond>
0.054

> <Angle>
4.033

> <Pdih>
9.702

> <Idih>
0.000

> <Tether>
0.000

$$$$
VeraChem MOL file


 16 16  0  0  0  0  0  0  0  0999 V2000     
   18.0617   18.7350   22.4484 C   0  0  0  0  0  0  0  0  0  0  0  0
   17.4467   18.1463   21.7538 H   0  0  0  0  0  0  0  0  0  0  0  0
   17.3815   19.2602   23.1328 H   0  0  0  0  0  0  0  0  0  0  0  0
   18.9468   19.7233   21.6580 C   0  0  0  0  0  0  0  0  0  0  0  0
   18.7594   19.6138   20.5809 H   0  0  0  0  0  0  0  0  0  0  0  0
   18.7303   20.7656   21.9296 H   0  0  0  0  0  0  0  0  0  0  0  0
   20.4104   19.3575   21.9844 C   0  0  0  0  0  0  0  0  0  0  0  0
   20.7870   20.0210   22.7742 H   0  0  0  0  0  0  0  0  0  0  0  0
   21.0708   19.4662   21.1137 H   0  0  0  0  0  0  0  0  0  0  0  0
   20.3806   17.9180   22.5152 C   0  0  0  0  0  0  0  0  0  0  0  0
   21.2141   17.7239   23.2055 H   0  0  0  0  0  0  0  0  0  0  0  0
   19.0237   17.8099   23.2237 C   0  0  0  0  0  0  0  0  0  0  0  0
   18.6595   16.7748   23.2693 H   0  0  0  0  0  0  0  0  0  0  0  0
   19.1299   18.1723   24.2547 H   0  0  0  0  0  0  0  0  0  0  0  0
   20.4094   17.0148   21.4196 O   0  0  0  0  0  0  0  0  0  0  0  0
   19.6399   17.2611   20.8661 H   0  0  0  0  0  0  0  0  0  0  0  0
  1  2  1  0  0  0  0
  1  3  1  0  0  0  0
  1  4  1  0  0  0  0
  4  5  1  0  0  0  0
  4  6  1  0  0  0  0
  4  7  1  0  0  0  0
  7  8  1  0  0  0  0
  7  9  1  0  0  0  0
  7 10  1  0  0  0  0
 10 11  1  0  0  0  0
  1 12  1  0  0  0  0
 10 12  1  0  0  0  0
 12 13  1  0  0  0  0
 12 14  1  0  0  0  0
 10 15  1  0  0  0  0
 15 16  1  0  0  0  0
M  END
> <VConfSearch Rank>
528

> <Conf_Id>
20

> <Delta U+W>
-0.483

> <U+W>
2.527

> <U>
4.508

> <W>
-1.981

> <W(PB)>
-3.712

> <W(SA)>
1.732

> <Valence>
14.705

> <Coulomb>
-10.687

> <VdW>
0.490

> <VdW6>
-3.745

> <VdW12>
4.235

> <Bond>
0.068

> <Angle>
3.901

> <Pdih>
10.737

> <Idih>
0.000

> <Tether>
0.000

$$$$
VeraChem MOL file


 16 16  0  0  0  0  0  0  0  0999 V2000     
   18.5778   18.7908   23.5178 C   0  0  0  0  0  0  0  0  0  0  0  0
   17.5511   18.9571   23.1629 H   0  0  0  0  0  0  0  0  0  0  0  0
   18.5707   18.8165   24.6160 H   0  0  0  0  0  0  0  0  0  0  0  0
   19.5092   19.8501   22.9127 C   0  0  0  0  0  0  0  0  0  0  0  0
   19.0432   20.8442   22.8756 H   0  0  0  0  0  0  0  0  0  0  0  0
   20.4263   19.9227   23.5138 H   0  0  0  0  0  0  0  0  0  0  0  0
   19.8462   19.3083   21.5115 C   0  0  0  0  0  0  0  0  0  0  0  0
   20.8372   19.6438   21.1794 H   0  0  0  0  0  0  0  0  0  0  0  0
   19.1052   19.6796   20.7905 H   0  0  0  0  0  0  0  0  0  0  0  0
   19.7719   17.7700   21.6105 C   0  0  0  0  0  0  0  0  0  0  0  0
   20.7851   17.3426   21.5963 H   0  0  0  0  0  0  0  0  0  0  0  0
   19.1043   17.4536   22.9647 C   0  0  0  0  0  0  0  0  0  0  0  0
   18.3008   16.7110   22.8699 H   0  0  0  0  0  0  0  0  0  0  0  0
   19.8587   17.0435   23.6486 H   0  0  0  0  0  0  0  0  0  0  0  0
   18.9897   17.2466   20.5437 O   0  0  0  0  0  0  0  0  0  0  0  0
   19.4522   17.4852   19.7125 H   0  0  0  0  0  0  0  0  0  0  0  0
  1  2  1  0  0  0  0
  1  3  1  0  0  0  0
  1  4  1  0  0  0  0
  4  5  1  0  0  0  0
  4  6  1  0  0  0  0
  4  7  1  0  0  0  0
  7  8  1  0  0  0  0
  7  9  1  0  0  0  0
  7 10  1  0  0  0  0
 10 11  1  0  0  0  0
  1 12  1  0  0  0  0
 10 12  1  0  0  0  0
 12 13  1  0  0  0  0
 12 14  1  0  0  0  0
 10 15  1  0  0  0  0
 15 16  1  0  0  0  0
M  END
> <VConfSearch Rank>
529

> <Conf_Id>
59

> <Delta U+W>
0.000

> <U+W>
3.010

> <U>
5.843

> <W>
-2.833

> <W(PB)>
-4.568

> <W(SA)>
1.735

> <Valence>
13.789

> <Coulomb>
-8.574

> <VdW>
0.628

> <VdW6>
-3.284

> <VdW12>
3.912

> <Bond>
0.054

> <Angle>
4.034

> <Pdih>
9.702

> <Idih>
0.000

> <Tether>
0.000

$$$$
VeraChem MOL file


 16 16  0  0  0  0  0  0  0  0999 V2000     
   18.0358   18.5627   22.5210 C   0  0  0  0  0  0  0  0  0  0  0  0
   17.3014   17.9573   23.0696 H   0  0  0  0  0  0  0  0  0  0  0  0
   17.5220   19.4492   22.1236 H   0  0  0  0  0  0  0  0  0  0  0  0
   18.6901   17.7861   21.3703 C   0  0  0  0  0  0  0  0  0  0  0  0
   18.8852   16.7522   21.6877 H   0  0  0  0  0  0  0  0  0  0  0  0
   18.0591   17.7569   20.4716 H   0  0  0  0  0  0  0  0  0  0  0  0
   20.0264   18.5114   21.1267 C   0  0  0  0  0  0  0  0  0  0  0  0
   19.8838   19.3067   20.3836 H   0  0  0  0  0  0  0  0  0  0  0  0
   20.7934   17.8271   20.7403 H   0  0  0  0  0  0  0  0  0  0  0  0
   20.4332   19.1473   22.4721 C   0  0  0  0  0  0  0  0  0  0  0  0
   20.6610   20.2119   22.3166 H   0  0  0  0  0  0  0  0  0  0  0  0
   19.2158   18.9988   23.4088 C   0  0  0  0  0  0  0  0  0  0  0  0
   19.4083   18.2241   24.1634 H   0  0  0  0  0  0  0  0  0  0  0  0
   18.9959   19.9360   23.9363 H   0  0  0  0  0  0  0  0  0  0  0  0
   21.5574   18.4663   23.0165 O   0  0  0  0  0  0  0  0  0  0  0  0
   21.7638   18.9020   23.8703 H   0  0  0  0  0  0  0  0  0  0  0  0
  1  2  1  0  0  0  0
  1  3  1  0  0  0  0
  1  4  1  0  0  0  0
  4  5  1  0  0  0  0
  4  6  1  0  0  0  0
  4  7  1  0  0  0  0
  7  8  1  0  0  0  0
  7  9  1  0  0  0  0
  7 10  1  0  0  0  0
 10 11  1  0  0  0  0
  1 12  1  0  0  0  0
 10 12  1  0  0  0  0
 12 13  1  0  0  0  0
 12 14  1  0  0  0  0
 10 15  1  0  0  0  0
 15 16  1  0  0  0  0
M  END
> <VConfSearch Rank>
530

> <Conf_Id>
33

> <Delta U+W>
0.015

> <U+W>
3.025

> <U>
5.843

> <W>
-2.819

> <W(PB)>
-4.568

> <W(SA)>
1.750

> <Valence>
13.789

> <Coulomb>
-8.574

> <VdW>
0.628

> <VdW6>
-3.284

> <VdW12>
3.913

> <Bond>
0.054

> <Angle>
4.033

> <Pdih>
9.702

> <Idih>
0.000

> <Tether>
0.000

$$$$
VeraChem MOL file


 16 16  0  0  0  0  0  0  0  0999 V2000     
   20.0742   17.7139   21.5530 C   0  0  0  0  0  0  0  0  0  0  0  0
   20.7352   18.1517   20.7922 H   0  0  0  0  0  0  0  0  0  0  0  0
   20.2009   16.6232   21.5169 H   0  0  0  0  0  0  0  0  0  0  0  0
   18.6114   18.1252   21.2774 C   0  0  0  0  0  0  0  0  0  0  0  0
   18.5642   18.7611   20.3826 H   0  0  0  0  0  0  0  0  0  0  0  0
   17.9726   17.2495   21.0980 H   0  0  0  0  0  0  0  0  0  0  0  0
   18.1373   18.9131   22.5170 C   0  0  0  0  0  0  0  0  0  0  0  0
   17.5747   18.2455   23.1830 H   0  0  0  0  0  0  0  0  0  0  0  0
   17.4796   19.7514   22.2509 H   0  0  0  0  0  0  0  0  0  0  0  0
   19.4099   19.3787   23.2372 C   0  0  0  0  0  0  0  0  0  0  0  0
   19.2414   19.5035   24.3165 H   0  0  0  0  0  0  0  0  0  0  0  0
   20.4287   18.2678   22.9494 C   0  0  0  0  0  0  0  0  0  0  0  0
   21.4644   18.6290   23.0034 H   0  0  0  0  0  0  0  0  0  0  0  0
   20.3122   17.4742   23.6993 H   0  0  0  0  0  0  0  0  0  0  0  0
   19.8618   20.5909   22.6515 O   0  0  0  0  0  0  0  0  0  0  0  0
   19.9831   20.3853   21.7017 H   0  0  0  0  0  0  0  0  0  0  0  0
  1  2  1  0  0  0  0
  1  3  1  0  0  0  0
  1  4  1  0  0  0  0
  4  5  1  0  0  0  0
  4  6  1  0  0  0  0
  4  7  1  0  0  0  0
  7  8  1  0  0  0  0
  7  9  1  0  0  0  0
  7 10  1  0  0  0  0
 10 11  1  0  0  0  0
  1 12  1  0  0  0  0
 10 12  1  0  0  0  0
 12 13  1  0  0  0  0
 12 14  1  0  0  0  0
 10 15  1  0  0  0  0
 15 16  1  0  0  0  0
M  END
> <VConfSearch Rank>
531

> <Conf_Id>
20

> <Delta U+W>
-0.483

> <U+W>
2.527

> <U>
4.508

> <W>
-1.981

> <W(PB)>
-3.712

> <W(SA)>
1.732

> <Valence>
14.705

> <Coulomb>
-10.687

> <VdW>
0.490

> <VdW6>
-3.745

> <VdW12>
4.235

> <Bond>
0.068

> <Angle>
3.901

> <Pdih>
10.737

> <Idih>
0.000

> <Tether>
0.000

$$$$
VeraChem MOL file


 16 16  0  0  0  0  0  0  0  0999 V2000     
   19.1057   19.6081   21.3451 C   0  0  0  0  0  0  0  0  0  0  0  0
   18.4636   19.1454   20.5826 H   0  0  0  0  0  0  0  0  0  0  0  0
   19.2366   20.6679   21.0877 H   0  0  0  0  0  0  0  0  0  0  0  0
   20.4404   18.8539   21.4200 C   0  0  0  0  0  0  0  0  0  0  0  0
   20.8086   18.5565   20.4287 H   0  0  0  0  0  0  0  0  0  0  0  0
   21.2001   19.4930   21.8913 H   0  0  0  0  0  0  0  0  0  0  0  0
   20.1456   17.6424   22.3233 C   0  0  0  0  0  0  0  0  0  0  0  0
   21.0421   17.3217   22.8695 H   0  0  0  0  0  0  0  0  0  0  0  0
   19.8091   16.8004   21.7032 H   0  0  0  0  0  0  0  0  0  0  0  0
   19.0215   18.0807   23.2856 C   0  0  0  0  0  0  0  0  0  0  0  0
   19.4309   18.2430   24.2934 H   0  0  0  0  0  0  0  0  0  0  0  0
   18.4752   19.4148   22.7366 C   0  0  0  0  0  0  0  0  0  0  0  0
   17.3781   19.4278   22.6886 H   0  0  0  0  0  0  0  0  0  0  0  0
   18.7898   20.2307   23.4002 H   0  0  0  0  0  0  0  0  0  0  0  0
   17.9894   17.1020   23.3130 O   0  0  0  0  0  0  0  0  0  0  0  0
   18.3929   16.2773   23.6574 H   0  0  0  0  0  0  0  0  0  0  0  0
  1  2  1  0  0  0  0
  1  3  1  0  0  0  0
  1  4  1  0  0  0  0
  4  5  1  0  0  0  0
  4  6  1  0  0  0  0
  4  7  1  0  0  0  0
  7  8  1  0  0  0  0
  7  9  1  0  0  0  0
  7 10  1  0  0  0  0
 10 11  1  0  0  0  0
  1 12  1  0  0  0  0
 10 12  1  0  0  0  0
 12 13  1  0  0  0  0
 12 14  1  0  0  0  0
 10 15  1  0  0  0  0
 15 16  1  0  0  0  0
M  END
> <VConfSearch Rank>
532

> <Conf_Id>
59

> <Delta U+W>
0.000

> <U+W>
3.010

> <U>
5.843

> <W>
-2.833

> <W(PB)>
-4.568

> <W(SA)>
1.735

> <Valence>
13.789

> <Coulomb>
-8.574

> <VdW>
0.628

> <VdW6>
-3.284

> <VdW12>
3.912

> <Bond>
0.054

> <Angle>
4.034

> <Pdih>
9.702

> <Idih>
0.000

> <Tether>
0.000

$$$$
VeraChem MOL file


 16 16  0  0  0  0  0  0  0  0999 V2000     
   20.6350   19.3619   21.9773 C   0  0  0  0  0  0  0  0  0  0  0  0
   21.4704   19.8549   22.4927 H   0  0  0  0  0  0  0  0  0  0  0  0
   20.8457   19.3668   20.8988 H   0  0  0  0  0  0  0  0  0  0  0  0
   19.2926   20.0564   22.2442 C   0  0  0  0  0  0  0  0  0  0  0  0
   19.2439   20.3720   23.2957 H   0  0  0  0  0  0  0  0  0  0  0  0
   19.1456   20.9425   21.6118 H   0  0  0  0  0  0  0  0  0  0  0  0
   18.2364   18.9667   21.9834 C   0  0  0  0  0  0  0  0  0  0  0  0
   17.9327   18.9927   20.9288 H   0  0  0  0  0  0  0  0  0  0  0  0
   17.3366   19.1213   22.5938 H   0  0  0  0  0  0  0  0  0  0  0  0
   18.9180   17.6143   22.2773 C   0  0  0  0  0  0  0  0  0  0  0  0
   18.7704   16.9395   21.4215 H   0  0  0  0  0  0  0  0  0  0  0  0
   20.4206   17.9155   22.4595 C   0  0  0  0  0  0  0  0  0  0  0  0
   20.6979   17.8412   23.5199 H   0  0  0  0  0  0  0  0  0  0  0  0
   21.0447   17.2087   21.8976 H   0  0  0  0  0  0  0  0  0  0  0  0
   18.3840   17.0439   23.4662 O   0  0  0  0  0  0  0  0  0  0  0  0
   18.8581   16.1977   23.6097 H   0  0  0  0  0  0  0  0  0  0  0  0
  1  2  1  0  0  0  0
  1  3  1  0  0  0  0
  1  4  1  0  0  0  0
  4  5  1  0  0  0  0
  4  6  1  0  0  0  0
  4  7  1  0  0  0  0
  7  8  1  0  0  0  0
  7  9  1  0  0  0  0
  7 10  1  0  0  0  0
 10 11  1  0  0  0  0
  1 12  1  0  0  0  0
 10 12  1  0  0  0  0
 12 13  1  0  0  0  0
 12 14  1  0  0  0  0
 10 15  1  0  0  0  0
 15 16  1  0  0  0  0
M  END
> <VConfSearch Rank>
533

> <Conf_Id>
33

> <Delta U+W>
0.015

> <U+W>
3.025

> <U>
5.843

> <W>
-2.819

> <W(PB)>
-4.568

> <W(SA)>
1.750

> <Valence>
13.789

> <Coulomb>
-8.574

> <VdW>
0.628

> <VdW6>
-3.284

> <VdW12>
3.913

> <Bond>
0.054

> <Angle>
4.033

> <Pdih>
9.702

> <Idih>
0.000

> <Tether>
0.000

$$$$
VeraChem MOL file


 16 16  0  0  0  0  0  0  0  0999 V2000     
   20.5007   19.2190   22.6511 C   0  0  0  0  0  0  0  0  0  0  0  0
   20.9361   19.8930   21.9005 H   0  0  0  0  0  0  0  0  0  0  0  0
   21.1367   19.2613   23.5459 H   0  0  0  0  0  0  0  0  0  0  0  0
   20.4147   17.7855   22.0829 C   0  0  0  0  0  0  0  0  0  0  0  0
   20.8095   17.7656   21.0577 H   0  0  0  0  0  0  0  0  0  0  0  0
   21.0049   17.0778   22.6811 H   0  0  0  0  0  0  0  0  0  0  0  0
   18.9195   17.4024   22.0860 C   0  0  0  0  0  0  0  0  0  0  0  0
   18.6953   16.8068   22.9807 H   0  0  0  0  0  0  0  0  0  0  0  0
   18.6412   16.8044   21.2080 H   0  0  0  0  0  0  0  0  0  0  0  0
   18.1423   18.7237   22.1594 C   0  0  0  0  0  0  0  0  0  0  0  0
   17.1633   18.5909   22.6418 H   0  0  0  0  0  0  0  0  0  0  0  0
   19.0544   19.6478   22.9774 C   0  0  0  0  0  0  0  0  0  0  0  0
   18.8754   20.7090   22.7585 H   0  0  0  0  0  0  0  0  0  0  0  0
   18.8568   19.4891   24.0457 H   0  0  0  0  0  0  0  0  0  0  0  0
   17.9942   19.2525   20.8497 O   0  0  0  0  0  0  0  0  0  0  0  0
   18.9066   19.3351   20.5036 H   0  0  0  0  0  0  0  0  0  0  0  0
  1  2  1  0  0  0  0
  1  3  1  0  0  0  0
  1  4  1  0  0  0  0
  4  5  1  0  0  0  0
  4  6  1  0  0  0  0
  4  7  1  0  0  0  0
  7  8  1  0  0  0  0
  7  9  1  0  0  0  0
  7 10  1  0  0  0  0
 10 11  1  0  0  0  0
  1 12  1  0  0  0  0
 10 12  1  0  0  0  0
 12 13  1  0  0  0  0
 12 14  1  0  0  0  0
 10 15  1  0  0  0  0
 15 16  1  0  0  0  0
M  END
> <VConfSearch Rank>
534

> <Conf_Id>
20

> <Delta U+W>
-0.483

> <U+W>
2.527

> <U>
4.508

> <W>
-1.981

> <W(PB)>
-3.712

> <W(SA)>
1.732

> <Valence>
14.705

> <Coulomb>
-10.687

> <VdW>
0.490

> <VdW6>
-3.745

> <VdW12>
4.235

> <Bond>
0.068

> <Angle>
3.901

> <Pdih>
10.737

> <Idih>
0.000

> <Tether>
0.000

$$$$
VeraChem MOL file


 16 16  0  0  0  0  0  0  0  0999 V2000     
   20.4204   17.9645   21.5157 C   0  0  0  0  0  0  0  0  0  0  0  0
   19.9119   17.5238   20.6469 H   0  0  0  0  0  0  0  0  0  0  0  0
   21.5026   17.8259   21.3878 H   0  0  0  0  0  0  0  0  0  0  0  0
   19.8944   17.3157   22.8033 C   0  0  0  0  0  0  0  0  0  0  0  0
   19.7317   16.2351   22.6905 H   0  0  0  0  0  0  0  0  0  0  0  0
   20.6162   17.4713   23.6172 H   0  0  0  0  0  0  0  0  0  0  0  0
   18.5910   18.0756   23.1104 C   0  0  0  0  0  0  0  0  0  0  0  0
   18.3861   18.1012   24.1885 H   0  0  0  0  0  0  0  0  0  0  0  0
   17.7500   17.5676   22.6191 H   0  0  0  0  0  0  0  0  0  0  0  0
   18.7692   19.4956   22.5330 C   0  0  0  0  0  0  0  0  0  0  0  0
   18.9267   20.2165   23.3485 H   0  0  0  0  0  0  0  0  0  0  0  0
   20.0292   19.4483   21.6443 C   0  0  0  0  0  0  0  0  0  0  0  0
   19.8636   19.9093   20.6614 H   0  0  0  0  0  0  0  0  0  0  0  0
   20.8379   20.0009   22.1400 H   0  0  0  0  0  0  0  0  0  0  0  0
   17.6335   19.8553   21.7553 O   0  0  0  0  0  0  0  0  0  0  0  0
   16.8652   19.8589   22.3645 H   0  0  0  0  0  0  0  0  0  0  0  0
  1  2  1  0  0  0  0
  1  3  1  0  0  0  0
  1  4  1  0  0  0  0
  4  5  1  0  0  0  0
  4  6  1  0  0  0  0
  4  7  1  0  0  0  0
  7  8  1  0  0  0  0
  7  9  1  0  0  0  0
  7 10  1  0  0  0  0
 10 11  1  0  0  0  0
  1 12  1  0  0  0  0
 10 12  1  0  0  0  0
 12 13  1  0  0  0  0
 12 14  1  0  0  0  0
 10 15  1  0  0  0  0
 15 16  1  0  0  0  0
M  END
> <VConfSearch Rank>
535

> <Conf_Id>
59

> <Delta U+W>
0.000

> <U+W>
3.010

> <U>
5.843

> <W>
-2.833

> <W(PB)>
-4.568

> <W(SA)>
1.735

> <Valence>
13.789

> <Coulomb>
-8.574

> <VdW>
0.628

> <VdW6>
-3.284

> <VdW12>
3.912

> <Bond>
0.054

> <Angle>
4.034

> <Pdih>
9.702

> <Idih>
0.000

> <Tether>
0.000

$$$$
VeraChem MOL file


 16 16  0  0  0  0  0  0  0  0999 V2000     
   20.6931   18.8382   22.9775 C   0  0  0  0  0  0  0  0  0  0  0  0
   21.4209   19.6453   23.1378 H   0  0  0  0  0  0  0  0  0  0  0  0
   20.9629   17.9973   23.6315 H   0  0  0  0  0  0  0  0  0  0  0  0
   20.6572   18.3659   21.5175 C   0  0  0  0  0  0  0  0  0  0  0  0
   20.7462   19.2326   20.8478 H   0  0  0  0  0  0  0  0  0  0  0  0
   21.4698   17.6649   21.2833 H   0  0  0  0  0  0  0  0  0  0  0  0
   19.2653   17.7281   21.3531 C   0  0  0  0  0  0  0  0  0  0  0  0
   19.3184   16.6595   21.5988 H   0  0  0  0  0  0  0  0  0  0  0  0
   18.8997   17.8156   20.3213 H   0  0  0  0  0  0  0  0  0  0  0  0
   18.3370   18.4312   22.3649 C   0  0  0  0  0  0  0  0  0  0  0  0
   17.8129   17.6731   22.9649 H   0  0  0  0  0  0  0  0  0  0  0  0
   19.2491   19.2844   23.2715 C   0  0  0  0  0  0  0  0  0  0  0  0
   19.1409   20.3496   23.0259 H   0  0  0  0  0  0  0  0  0  0  0  0
   18.9977   19.1558   24.3322 H   0  0  0  0  0  0  0  0  0  0  0  0
   17.4073   19.2634   21.6815 O   0  0  0  0  0  0  0  0  0  0  0  0
   16.8542   19.6910   22.3691 H   0  0  0  0  0  0  0  0  0  0  0  0
  1  2  1  0  0  0  0
  1  3  1  0  0  0  0
  1  4  1  0  0  0  0
  4  5  1  0  0  0  0
  4  6  1  0  0  0  0
  4  7  1  0  0  0  0
  7  8  1  0  0  0  0
  7  9  1  0  0  0  0
  7 10  1  0  0  0  0
 10 11  1  0  0  0  0
  1 12  1  0  0  0  0
 10 12  1  0  0  0  0
 12 13  1  0  0  0  0
 12 14  1  0  0  0  0
 10 15  1  0  0  0  0
 15 16  1  0  0  0  0
M  END
> <VConfSearch Rank>
536

> <Conf_Id>
33

> <Delta U+W>
0.015

> <U+W>
3.025

> <U>
5.843

> <W>
-2.819

> <W(PB)>
-4.568

> <W(SA)>
1.750

> <Valence>
13.789

> <Coulomb>
-8.574

> <VdW>
0.628

> <VdW6>
-3.284

> <VdW12>
3.913

> <Bond>
0.054

> <Angle>
4.033

> <Pdih>
9.702

> <Idih>
0.000

> <Tether>
0.000

$$$$
VeraChem MOL file


 16 16  0  0  0  0  0  0  0  0999 V2000     
   19.2338   18.7491   20.9372 C   0  0  0  0  0  0  0  0  0  0  0  0
   19.8109   18.0288   20.3411 H   0  0  0  0  0  0  0  0  0  0  0  0
   18.6726   19.3854   20.2393 H   0  0  0  0  0  0  0  0  0  0  0  0
   20.1870   19.5808   21.8231 C   0  0  0  0  0  0  0  0  0  0  0  0
   21.2254   19.2637   21.6549 H   0  0  0  0  0  0  0  0  0  0  0  0
   20.1236   20.6524   21.5892 H   0  0  0  0  0  0  0  0  0  0  0  0
   19.7760   19.3068   23.2854 C   0  0  0  0  0  0  0  0  0  0  0  0
   19.1233   20.1151   23.6407 H   0  0  0  0  0  0  0  0  0  0  0  0
   20.6421   19.2564   23.9587 H   0  0  0  0  0  0  0  0  0  0  0  0
   18.9791   17.9955   23.2645 C   0  0  0  0  0  0  0  0  0  0  0  0
   18.2528   17.9503   24.0888 H   0  0  0  0  0  0  0  0  0  0  0  0
   18.2819   18.0047   21.8975 C   0  0  0  0  0  0  0  0  0  0  0  0
   18.0434   16.9922   21.5454 H   0  0  0  0  0  0  0  0  0  0  0  0
   17.3383   18.5599   21.9822 H   0  0  0  0  0  0  0  0  0  0  0  0
   19.8803   16.8995   23.3226 O   0  0  0  0  0  0  0  0  0  0  0  0
   20.4814   17.0232   22.5593 H   0  0  0  0  0  0  0  0  0  0  0  0
  1  2  1  0  0  0  0
  1  3  1  0  0  0  0
  1  4  1  0  0  0  0
  4  5  1  0  0  0  0
  4  6  1  0  0  0  0
  4  7  1  0  0  0  0
  7  8  1  0  0  0  0
  7  9  1  0  0  0  0
  7 10  1  0  0  0  0
 10 11  1  0  0  0  0
  1 12  1  0  0  0  0
 10 12  1  0  0  0  0
 12 13  1  0  0  0  0
 12 14  1  0  0  0  0
 10 15  1  0  0  0  0
 15 16  1  0  0  0  0
M  END
> <VConfSearch Rank>
537

> <Conf_Id>
20

> <Delta U+W>
-0.483

> <U+W>
2.527

> <U>
4.508

> <W>
-1.981

> <W(PB)>
-3.712

> <W(SA)>
1.732

> <Valence>
14.705

> <Coulomb>
-10.687

> <VdW>
0.490

> <VdW6>
-3.745

> <VdW12>
4.235

> <Bond>
0.068

> <Angle>
3.901

> <Pdih>
10.737

> <Idih>
0.000

> <Tether>
0.000

$$$$
VeraChem MOL file


 16 16  0  0  0  0  0  0  0  0999 V2000     
   17.9556   18.4277   22.6758 C   0  0  0  0  0  0  0  0  0  0  0  0
   17.7424   19.3074   23.2990 H   0  0  0  0  0  0  0  0  0  0  0  0
   17.0217   17.8644   22.5445 H   0  0  0  0  0  0  0  0  0  0  0  0
   19.0595   17.5875   23.3326 C   0  0  0  0  0  0  0  0  0  0  0  0
   18.9507   17.5345   24.4244 H   0  0  0  0  0  0  0  0  0  0  0  0
   19.0312   16.5637   22.9343 H   0  0  0  0  0  0  0  0  0  0  0  0
   20.3693   18.2760   22.9071 C   0  0  0  0  0  0  0  0  0  0  0  0
   21.1986   17.5592   22.8488 H   0  0  0  0  0  0  0  0  0  0  0  0
   20.6357   19.0405   23.6496 H   0  0  0  0  0  0  0  0  0  0  0  0
   20.0905   18.9335   21.5390 C   0  0  0  0  0  0  0  0  0  0  0  0
   20.5838   18.3620   20.7393 H   0  0  0  0  0  0  0  0  0  0  0  0
   18.5623   18.8805   21.3349 C   0  0  0  0  0  0  0  0  0  0  0  0
   18.1514   19.8460   21.0108 H   0  0  0  0  0  0  0  0  0  0  0  0
   18.3304   18.1413   20.5572 H   0  0  0  0  0  0  0  0  0  0  0  0
   20.5385   20.2837   21.5428 O   0  0  0  0  0  0  0  0  0  0  0  0
   21.5082   20.2579   21.6863 H   0  0  0  0  0  0  0  0  0  0  0  0
  1  2  1  0  0  0  0
  1  3  1  0  0  0  0
  1  4  1  0  0  0  0
  4  5  1  0  0  0  0
  4  6  1  0  0  0  0
  4  7  1  0  0  0  0
  7  8  1  0  0  0  0
  7  9  1  0  0  0  0
  7 10  1  0  0  0  0
 10 11  1  0  0  0  0
  1 12  1  0  0  0  0
 10 12  1  0  0  0  0
 12 13  1  0  0  0  0
 12 14  1  0  0  0  0
 10 15  1  0  0  0  0
 15 16  1  0  0  0  0
M  END
> <VConfSearch Rank>
538

> <Conf_Id>
59

> <Delta U+W>
0.000

> <U+W>
3.010

> <U>
5.843

> <W>
-2.833

> <W(PB)>
-4.568

> <W(SA)>
1.735

> <Valence>
13.789

> <Coulomb>
-8.574

> <VdW>
0.628

> <VdW6>
-3.284

> <VdW12>
3.912

> <Bond>
0.054

> <Angle>
4.034

> <Pdih>
9.702

> <Idih>
0.000

> <Tether>
0.000

$$$$
VeraChem MOL file


 16 16  0  0  0  0  0  0  0  0999 V2000     
   20.3639   18.6877   21.1863 C   0  0  0  0  0  0  0  0  0  0  0  0
   20.3566   18.5858   20.0925 H   0  0  0  0  0  0  0  0  0  0  0  0
   21.3512   19.0626   21.4899 H   0  0  0  0  0  0  0  0  0  0  0  0
   20.0749   17.3591   21.8985 C   0  0  0  0  0  0  0  0  0  0  0  0
   19.2926   16.8120   21.3541 H   0  0  0  0  0  0  0  0  0  0  0  0
   20.9630   16.7160   21.9633 H   0  0  0  0  0  0  0  0  0  0  0  0
   19.5459   17.7720   23.2844 C   0  0  0  0  0  0  0  0  0  0  0  0
   20.3842   17.8582   23.9880 H   0  0  0  0  0  0  0  0  0  0  0  0
   18.8463   17.0281   23.6883 H   0  0  0  0  0  0  0  0  0  0  0  0
   18.8909   19.1578   23.1102 C   0  0  0  0  0  0  0  0  0  0  0  0
   19.2969   19.8488   23.8634 H   0  0  0  0  0  0  0  0  0  0  0  0
   19.2662   19.6409   21.6933 C   0  0  0  0  0  0  0  0  0  0  0  0
   18.3951   19.5791   21.0269 H   0  0  0  0  0  0  0  0  0  0  0  0
   19.6118   20.6827   21.7007 H   0  0  0  0  0  0  0  0  0  0  0  0
   17.4777   19.0515   23.2343 O   0  0  0  0  0  0  0  0  0  0  0  0
   17.1153   19.9534   23.1044 H   0  0  0  0  0  0  0  0  0  0  0  0
  1  2  1  0  0  0  0
  1  3  1  0  0  0  0
  1  4  1  0  0  0  0
  4  5  1  0  0  0  0
  4  6  1  0  0  0  0
  4  7  1  0  0  0  0
  7  8  1  0  0  0  0
  7  9  1  0  0  0  0
  7 10  1  0  0  0  0
 10 11  1  0  0  0  0
  1 12  1  0  0  0  0
 10 12  1  0  0  0  0
 12 13  1  0  0  0  0
 12 14  1  0  0  0  0
 10 15  1  0  0  0  0
 15 16  1  0  0  0  0
M  END
> <VConfSearch Rank>
539

> <Conf_Id>
33

> <Delta U+W>
0.015

> <U+W>
3.025

> <U>
5.843

> <W>
-2.819

> <W(PB)>
-4.568

> <W(SA)>
1.750

> <Valence>
13.789

> <Coulomb>
-8.574

> <VdW>
0.628

> <VdW6>
-3.284

> <VdW12>
3.913

> <Bond>
0.054

> <Angle>
4.033

> <Pdih>
9.702

> <Idih>
0.000

> <Tether>
0.000

$$$$
VeraChem MOL file


 16 16  0  0  0  0  0  0  0  0999 V2000     
   19.7353   18.4093   23.5298 C   0  0  0  0  0  0  0  0  0  0  0  0
   20.7909   18.6269   23.7428 H   0  0  0  0  0  0  0  0  0  0  0  0
   19.2636   18.0937   24.4705 H   0  0  0  0  0  0  0  0  0  0  0  0
   19.6332   17.3124   22.4474 C   0  0  0  0  0  0  0  0  0  0  0  0
   20.6394   16.9985   22.1374 H   0  0  0  0  0  0  0  0  0  0  0  0
   19.1072   16.4234   22.8217 H   0  0  0  0  0  0  0  0  0  0  0  0
   18.8803   17.9419   21.2560 C   0  0  0  0  0  0  0  0  0  0  0  0
   17.8197   17.6617   21.3029 H   0  0  0  0  0  0  0  0  0  0  0  0
   19.2733   17.6016   20.2887 H   0  0  0  0  0  0  0  0  0  0  0  0
   19.0025   19.4616   21.4310 C   0  0  0  0  0  0  0  0  0  0  0  0
   18.1540   19.9910   20.9742 H   0  0  0  0  0  0  0  0  0  0  0  0
   19.0392   19.6600   22.9522 C   0  0  0  0  0  0  0  0  0  0  0  0
   19.5491   20.5896   23.2383 H   0  0  0  0  0  0  0  0  0  0  0  0
   18.0095   19.7139   23.3297 H   0  0  0  0  0  0  0  0  0  0  0  0
   20.2327   19.8993   20.8725 O   0  0  0  0  0  0  0  0  0  0  0  0
   20.9218   19.3791   21.3348 H   0  0  0  0  0  0  0  0  0  0  0  0
  1  2  1  0  0  0  0
  1  3  1  0  0  0  0
  1  4  1  0  0  0  0
  4  5  1  0  0  0  0
  4  6  1  0  0  0  0
  4  7  1  0  0  0  0
  7  8  1  0  0  0  0
  7  9  1  0  0  0  0
  7 10  1  0  0  0  0
 10 11  1  0  0  0  0
  1 12  1  0  0  0  0
 10 12  1  0  0  0  0
 12 13  1  0  0  0  0
 12 14  1  0  0  0  0
 10 15  1  0  0  0  0
 15 16  1  0  0  0  0
M  END
> <VConfSearch Rank>
540

> <Conf_Id>
20

> <Delta U+W>
-0.483

> <U+W>
2.527

> <U>
4.508

> <W>
-1.981

> <W(PB)>
-3.712

> <W(SA)>
1.732

> <Valence>
14.705

> <Coulomb>
-10.687

> <VdW>
0.490

> <VdW6>
-3.745

> <VdW12>
4.235

> <Bond>
0.068

> <Angle>
3.901

> <Pdih>
10.737

> <Idih>
0.000

> <Tether>
0.000

$$$$
VeraChem MOL file


 16 16  0  0  0  0  0  0  0  0999 V2000     
   20.4742   18.2071   21.4495 C   0  0  0  0  0  0  0  0  0  0  0  0
   21.3533   18.6679   21.9213 H   0  0  0  0  0  0  0  0  0  0  0  0
   20.8123   17.6412   20.5708 H   0  0  0  0  0  0  0  0  0  0  0  0
   19.4541   19.2957   21.0888 C   0  0  0  0  0  0  0  0  0  0  0  0
   19.9329   20.2051   20.7008 H   0  0  0  0  0  0  0  0  0  0  0  0
   18.7645   18.9165   20.3218 H   0  0  0  0  0  0  0  0  0  0  0  0
   18.6867   19.5508   22.3990 C   0  0  0  0  0  0  0  0  0  0  0  0
   17.6584   19.8815   22.2036 H   0  0  0  0  0  0  0  0  0  0  0  0
   19.1932   20.3421   22.9684 H   0  0  0  0  0  0  0  0  0  0  0  0
   18.7161   18.2235   23.1857 C   0  0  0  0  0  0  0  0  0  0  0  0
   17.7268   17.7442   23.1522 H   0  0  0  0  0  0  0  0  0  0  0  0
   19.7445   17.3197   22.4749 C   0  0  0  0  0  0  0  0  0  0  0  0
   20.4470   16.8539   23.1788 H   0  0  0  0  0  0  0  0  0  0  0  0
   19.2123   16.5142   21.9524 H   0  0  0  0  0  0  0  0  0  0  0  0
   19.1163   18.4587   24.5305 O   0  0  0  0  0  0  0  0  0  0  0  0
   18.4370   19.0436   24.9279 H   0  0  0  0  0  0  0  0  0  0  0  0
  1  2  1  0  0  0  0
  1  3  1  0  0  0  0
  1  4  1  0  0  0  0
  4  5  1  0  0  0  0
  4  6  1  0  0  0  0
  4  7  1  0  0  0  0
  7  8  1  0  0  0  0
  7  9  1  0  0  0  0
  7 10  1  0  0  0  0
 10 11  1  0  0  0  0
  1 12  1  0  0  0  0
 10 12  1  0  0  0  0
 12 13  1  0  0  0  0
 12 14  1  0  0  0  0
 10 15  1  0  0  0  0
 15 16  1  0  0  0  0
M  END
> <VConfSearch Rank>
541

> <Conf_Id>
59

> <Delta U+W>
0.000

> <U+W>
3.010

> <U>
5.843

> <W>
-2.833

> <W(PB)>
-4.568

> <W(SA)>
1.735

> <Valence>
13.789

> <Coulomb>
-8.574

> <VdW>
0.628

> <VdW6>
-3.284

> <VdW12>
3.912

> <Bond>
0.054

> <Angle>
4.034

> <Pdih>
9.702

> <Idih>
0.000

> <Tether>
0.000

$$$$
VeraChem MOL file


 16 16  0  0  0  0  0  0  0  0999 V2000     
   19.6038   17.4726   21.4329 C   0  0  0  0  0  0  0  0  0  0  0  0
   19.0547   16.5644   21.1494 H   0  0  0  0  0  0  0  0  0  0  0  0
   20.4754   17.5680   20.7705 H   0  0  0  0  0  0  0  0  0  0  0  0
   20.0679   17.4416   22.8956 C   0  0  0  0  0  0  0  0  0  0  0  0
   19.2815   16.9982   23.5222 H   0  0  0  0  0  0  0  0  0  0  0  0
   20.9873   16.8563   23.0317 H   0  0  0  0  0  0  0  0  0  0  0  0
   20.2532   18.9231   23.2724 C   0  0  0  0  0  0  0  0  0  0  0  0
   21.2826   19.2336   23.0509 H   0  0  0  0  0  0  0  0  0  0  0  0
   20.0761   19.0933   24.3428 H   0  0  0  0  0  0  0  0  0  0  0  0
   19.2828   19.7278   22.3832 C   0  0  0  0  0  0  0  0  0  0  0  0
   19.8343   20.5379   21.8842 H   0  0  0  0  0  0  0  0  0  0  0  0
   18.7331   18.7386   21.3339 C   0  0  0  0  0  0  0  0  0  0  0  0
   17.6901   18.4811   21.5631 H   0  0  0  0  0  0  0  0  0  0  0  0
   18.7605   19.1660   20.3232 H   0  0  0  0  0  0  0  0  0  0  0  0
   18.2186   20.2523   23.1682 O   0  0  0  0  0  0  0  0  0  0  0  0
   17.6307   20.7412   22.5542 H   0  0  0  0  0  0  0  0  0  0  0  0
  1  2  1  0  0  0  0
  1  3  1  0  0  0  0
  1  4  1  0  0  0  0
  4  5  1  0  0  0  0
  4  6  1  0  0  0  0
  4  7  1  0  0  0  0
  7  8  1  0  0  0  0
  7  9  1  0  0  0  0
  7 10  1  0  0  0  0
 10 11  1  0  0  0  0
  1 12  1  0  0  0  0
 10 12  1  0  0  0  0
 12 13  1  0  0  0  0
 12 14  1  0  0  0  0
 10 15  1  0  0  0  0
 15 16  1  0  0  0  0
M  END
> <VConfSearch Rank>
542

> <Conf_Id>
33

> <Delta U+W>
0.015

> <U+W>
3.025

> <U>
5.843

> <W>
-2.819

> <W(PB)>
-4.568

> <W(SA)>
1.750

> <Valence>
13.789

> <Coulomb>
-8.574

> <VdW>
0.628

> <VdW6>
-3.284

> <VdW12>
3.913

> <Bond>
0.054

> <Angle>
4.033

> <Pdih>
9.702

> <Idih>
0.000

> <Tether>
0.000

$$$$
VeraChem MOL file


 16 16  0  0  0  0  0  0  0  0999 V2000     
   18.3201   17.8163   22.0714 C   0  0  0  0  0  0  0  0  0  0  0  0
   18.4191   16.8181   22.5197 H   0  0  0  0  0  0  0  0  0  0  0  0
   17.3306   17.8721   21.5972 H   0  0  0  0  0  0  0  0  0  0  0  0
   19.4538   18.0476   21.0486 C   0  0  0  0  0  0  0  0  0  0  0  0
   20.1009   17.1609   21.0011 H   0  0  0  0  0  0  0  0  0  0  0  0
   19.0574   18.2253   20.0395 H   0  0  0  0  0  0  0  0  0  0  0  0
   20.2557   19.2665   21.5523 C   0  0  0  0  0  0  0  0  0  0  0  0
   19.9190   20.1697   21.0266 H   0  0  0  0  0  0  0  0  0  0  0  0
   21.3338   19.1582   21.3735 H   0  0  0  0  0  0  0  0  0  0  0  0
   19.9251   19.4058   23.0444 C   0  0  0  0  0  0  0  0  0  0  0  0
   20.0195   20.4472   23.3842 H   0  0  0  0  0  0  0  0  0  0  0  0
   18.4787   18.9049   23.1541 C   0  0  0  0  0  0  0  0  0  0  0  0
   18.2434   18.5298   24.1591 H   0  0  0  0  0  0  0  0  0  0  0  0
   17.7958   19.7376   22.9399 H   0  0  0  0  0  0  0  0  0  0  0  0
   20.7747   18.5493   23.7936 O   0  0  0  0  0  0  0  0  0  0  0  0
   20.6242   17.6547   23.4247 H   0  0  0  0  0  0  0  0  0  0  0  0
  1  2  1  0  0  0  0
  1  3  1  0  0  0  0
  1  4  1  0  0  0  0
  4  5  1  0  0  0  0
  4  6  1  0  0  0  0
  4  7  1  0  0  0  0
  7  8  1  0  0  0  0
  7  9  1  0  0  0  0
  7 10  1  0  0  0  0
 10 11  1  0  0  0  0
  1 12  1  0  0  0  0
 10 12  1  0  0  0  0
 12 13  1  0  0  0  0
 12 14  1  0  0  0  0
 10 15  1  0  0  0  0
 15 16  1  0  0  0  0
M  END
> <VConfSearch Rank>
543

> <Conf_Id>
20

> <Delta U+W>
-0.483

> <U+W>
2.527

> <U>
4.508

> <W>
-1.981

> <W(PB)>
-3.712

> <W(SA)>
1.732

> <Valence>
14.705

> <Coulomb>
-10.687

> <VdW>
0.490

> <VdW6>
-3.745

> <VdW12>
4.235

> <Bond>
0.068

> <Angle>
3.901

> <Pdih>
10.737

> <Idih>
0.000

> <Tether>
0.000

$$$$
VeraChem MOL file


 16 16  0  0  0  0  0  0  0  0999 V2000     
   18.2006   19.2972   21.8433 C   0  0  0  0  0  0  0  0  0  0  0  0
   18.0948   19.0184   20.7856 H   0  0  0  0  0  0  0  0  0  0  0  0
   17.3684   19.9634   22.1085 H   0  0  0  0  0  0  0  0  0  0  0  0
   19.5703   19.9523   22.0680 C   0  0  0  0  0  0  0  0  0  0  0  0
   19.8553   20.6189   21.2426 H   0  0  0  0  0  0  0  0  0  0  0  0
   19.5504   20.5422   22.9949 H   0  0  0  0  0  0  0  0  0  0  0  0
   20.5405   18.7672   22.2255 C   0  0  0  0  0  0  0  0  0  0  0  0
   21.3904   19.0275   22.8696 H   0  0  0  0  0  0  0  0  0  0  0  0
   20.9371   18.4889   21.2396 H   0  0  0  0  0  0  0  0  0  0  0  0
   19.7152   17.6052   22.8174 C   0  0  0  0  0  0  0  0  0  0  0  0
   19.9761   17.4592   23.8758 H   0  0  0  0  0  0  0  0  0  0  0  0
   18.2347   18.0255   22.7109 C   0  0  0  0  0  0  0  0  0  0  0  0
   17.6052   17.2310   22.2884 H   0  0  0  0  0  0  0  0  0  0  0  0
   17.8544   18.2541   23.7149 H   0  0  0  0  0  0  0  0  0  0  0  0
   19.9417   16.4136   22.0740 O   0  0  0  0  0  0  0  0  0  0  0  0
   20.8943   16.2007   22.1673 H   0  0  0  0  0  0  0  0  0  0  0  0
  1  2  1  0  0  0  0
  1  3  1  0  0  0  0
  1  4  1  0  0  0  0
  4  5  1  0  0  0  0
  4  6  1  0  0  0  0
  4  7  1  0  0  0  0
  7  8  1  0  0  0  0
  7  9  1  0  0  0  0
  7 10  1  0  0  0  0
 10 11  1  0  0  0  0
  1 12  1  0  0  0  0
 10 12  1  0  0  0  0
 12 13  1  0  0  0  0
 12 14  1  0  0  0  0
 10 15  1  0  0  0  0
 15 16  1  0  0  0  0
M  END
> <VConfSearch Rank>
544

> <Conf_Id>
59

> <Delta U+W>
0.000

> <U+W>
3.010

> <U>
5.843

> <W>
-2.833

> <W(PB)>
-4.568

> <W(SA)>
1.735

> <Valence>
13.789

> <Coulomb>
-8.574

> <VdW>
0.628

> <VdW6>
-3.284

> <VdW12>
3.912

> <Bond>
0.054

> <Angle>
4.034

> <Pdih>
9.702

> <Idih>
0.000

> <Tether>
0.000

$$$$
VeraChem MOL file


 16 16  0  0  0  0  0  0  0  0999 V2000     
   18.0902   18.2428   22.0289 C   0  0  0  0  0  0  0  0  0  0  0  0
   17.3074   17.5949   22.4463 H   0  0  0  0  0  0  0  0  0  0  0  0
   17.6401   18.8604   21.2392 H   0  0  0  0  0  0  0  0  0  0  0  0
   19.2648   17.4415   21.4512 C   0  0  0  0  0  0  0  0  0  0  0  0
   19.4828   16.5849   22.1041 H   0  0  0  0  0  0  0  0  0  0  0  0
   19.0570   17.0608   20.4420 H   0  0  0  0  0  0  0  0  0  0  0  0
   20.4505   18.4237   21.4761 C   0  0  0  0  0  0  0  0  0  0  0  0
   20.4878   18.9801   20.5305 H   0  0  0  0  0  0  0  0  0  0  0  0
   21.4080   17.8987   21.5925 H   0  0  0  0  0  0  0  0  0  0  0  0
   20.1797   19.4107   22.6303 C   0  0  0  0  0  0  0  0  0  0  0  0
   20.2741   20.4409   22.2570 H   0  0  0  0  0  0  0  0  0  0  0  0
   18.7320   19.1482   23.0961 C   0  0  0  0  0  0  0  0  0  0  0  0
   18.7319   18.6266   24.0629 H   0  0  0  0  0  0  0  0  0  0  0  0
   18.1715   20.0840   23.2179 H   0  0  0  0  0  0  0  0  0  0  0  0
   21.0892   19.1772   23.6990 O   0  0  0  0  0  0  0  0  0  0  0  0
   20.8654   19.8205   24.4044 H   0  0  0  0  0  0  0  0  0  0  0  0
  1  2  1  0  0  0  0
  1  3  1  0  0  0  0
  1  4  1  0  0  0  0
  4  5  1  0  0  0  0
  4  6  1  0  0  0  0
  4  7  1  0  0  0  0
  7  8  1  0  0  0  0
  7  9  1  0  0  0  0
  7 10  1  0  0  0  0
 10 11  1  0  0  0  0
  1 12  1  0  0  0  0
 10 12  1  0  0  0  0
 12 13  1  0  0  0  0
 12 14  1  0  0  0  0
 10 15  1  0  0  0  0
 15 16  1  0  0  0  0
M  END
> <VConfSearch Rank>
545

> <Conf_Id>
33

> <Delta U+W>
0.015

> <U+W>
3.025

> <U>
5.843

> <W>
-2.819

> <W(PB)>
-4.568

> <W(SA)>
1.750

> <Valence>
13.789

> <Coulomb>
-8.574

> <VdW>
0.628

> <VdW6>
-3.284

> <VdW12>
3.913

> <Bond>
0.054

> <Angle>
4.033

> <Pdih>
9.702

> <Idih>
0.000

> <Tether>
0.000

$$$$
VeraChem MOL file


 16 16  0  0  0  0  0  0  0  0999 V2000     
   19.0083   18.3208   23.5088 C   0  0  0  0  0  0  0  0  0  0  0  0
   18.2905   19.0300   23.9437 H   0  0  0  0  0  0  0  0  0  0  0  0
   19.2032   17.5419   24.2588 H   0  0  0  0  0  0  0  0  0  0  0  0
   20.3031   19.0619   23.1100 C   0  0  0  0  0  0  0  0  0  0  0  0
   20.2125   20.1297   23.3528 H   0  0  0  0  0  0  0  0  0  0  0  0
   21.1756   18.6701   23.6506 H   0  0  0  0  0  0  0  0  0  0  0  0
   20.4638   18.8734   21.5865 C   0  0  0  0  0  0  0  0  0  0  0  0
   21.1587   18.0461   21.3906 H   0  0  0  0  0  0  0  0  0  0  0  0
   20.8653   19.7702   21.0962 H   0  0  0  0  0  0  0  0  0  0  0  0
   19.0748   18.4935   21.0563 C   0  0  0  0  0  0  0  0  0  0  0  0
   19.1428   17.8841   20.1437 H   0  0  0  0  0  0  0  0  0  0  0  0
   18.4358   17.7111   22.2115 C   0  0  0  0  0  0  0  0  0  0  0  0
   17.3387   17.7487   22.1827 H   0  0  0  0  0  0  0  0  0  0  0  0
   18.7361   16.6575   22.1377 H   0  0  0  0  0  0  0  0  0  0  0  0
   18.3245   19.6761   20.8210 O   0  0  0  0  0  0  0  0  0  0  0  0
   18.3180   20.1487   21.6789 H   0  0  0  0  0  0  0  0  0  0  0  0
  1  2  1  0  0  0  0
  1  3  1  0  0  0  0
  1  4  1  0  0  0  0
  4  5  1  0  0  0  0
  4  6  1  0  0  0  0
  4  7  1  0  0  0  0
  7  8  1  0  0  0  0
  7  9  1  0  0  0  0
  7 10  1  0  0  0  0
 10 11  1  0  0  0  0
  1 12  1  0  0  0  0
 10 12  1  0  0  0  0
 12 13  1  0  0  0  0
 12 14  1  0  0  0  0
 10 15  1  0  0  0  0
 15 16  1  0  0  0  0
M  END
> <VConfSearch Rank>
546

> <Conf_Id>
20

> <Delta U+W>
-0.483

> <U+W>
2.527

> <U>
4.508

> <W>
-1.981

> <W(PB)>
-3.712

> <W(SA)>
1.732

> <Valence>
14.705

> <Coulomb>
-10.687

> <VdW>
0.490

> <VdW6>
-3.745

> <VdW12>
4.235

> <Bond>
0.068

> <Angle>
3.901

> <Pdih>
10.737

> <Idih>
0.000

> <Tether>
0.000

$$$$
VeraChem MOL file


 16 16  0  0  0  0  0  0  0  0999 V2000     
   19.3268   17.7450   21.1066 C   0  0  0  0  0  0  0  0  0  0  0  0
   18.2767   17.4409   20.9954 H   0  0  0  0  0  0  0  0  0  0  0  0
   19.8888   17.3638   20.2432 H   0  0  0  0  0  0  0  0  0  0  0  0
   19.8755   17.2211   22.4408 C   0  0  0  0  0  0  0  0  0  0  0  0
   19.5192   16.2076   22.6702 H   0  0  0  0  0  0  0  0  0  0  0  0
   20.9736   17.1996   22.4060 H   0  0  0  0  0  0  0  0  0  0  0  0
   19.4074   18.2559   23.4804 C   0  0  0  0  0  0  0  0  0  0  0  0
   20.1035   18.3171   24.3269 H   0  0  0  0  0  0  0  0  0  0  0  0
   18.4251   17.9586   23.8720 H   0  0  0  0  0  0  0  0  0  0  0  0
   19.3006   19.6031   22.7353 C   0  0  0  0  0  0  0  0  0  0  0  0
   20.1328   20.2609   23.0256 H   0  0  0  0  0  0  0  0  0  0  0  0
   19.4093   19.2776   21.2313 C   0  0  0  0  0  0  0  0  0  0  0  0
   18.6283   19.7739   20.6399 H   0  0  0  0  0  0  0  0  0  0  0  0
   20.3815   19.6258   20.8590 H   0  0  0  0  0  0  0  0  0  0  0  0
   18.0497   20.2207   23.0144 O   0  0  0  0  0  0  0  0  0  0  0  0
   18.0308   20.3939   23.9794 H   0  0  0  0  0  0  0  0  0  0  0  0
  1  2  1  0  0  0  0
  1  3  1  0  0  0  0
  1  4  1  0  0  0  0
  4  5  1  0  0  0  0
  4  6  1  0  0  0  0
  4  7  1  0  0  0  0
  7  8  1  0  0  0  0
  7  9  1  0  0  0  0
  7 10  1  0  0  0  0
 10 11  1  0  0  0  0
  1 12  1  0  0  0  0
 10 12  1  0  0  0  0
 12 13  1  0  0  0  0
 12 14  1  0  0  0  0
 10 15  1  0  0  0  0
 15 16  1  0  0  0  0
M  END
> <VConfSearch Rank>
547

> <Conf_Id>
59

> <Delta U+W>
0.000

> <U+W>
3.010

> <U>
5.843

> <W>
-2.833

> <W(PB)>
-4.568

> <W(SA)>
1.735

> <Valence>
13.789

> <Coulomb>
-8.574

> <VdW>
0.628

> <VdW6>
-3.284

> <VdW12>
3.912

> <Bond>
0.054

> <Angle>
4.034

> <Pdih>
9.702

> <Idih>
0.000

> <Tether>
0.000

$$$$
VeraChem MOL file


 16 16  0  0  0  0  0  0  0  0999 V2000     
   20.7077   18.0042   22.6304 C   0  0  0  0  0  0  0  0  0  0  0  0
   21.7672   18.2785   22.7249 H   0  0  0  0  0  0  0  0  0  0  0  0
   20.5814   16.9831   23.0165 H   0  0  0  0  0  0  0  0  0  0  0  0
   20.2142   18.0718   21.1786 C   0  0  0  0  0  0  0  0  0  0  0  0
   20.6514   18.9490   20.6815 H   0  0  0  0  0  0  0  0  0  0  0  0
   20.4860   17.1779   20.6010 H   0  0  0  0  0  0  0  0  0  0  0  0
   18.6897   18.2533   21.2980 C   0  0  0  0  0  0  0  0  0  0  0  0
   18.2022   17.2700   21.3185 H   0  0  0  0  0  0  0  0  0  0  0  0
   18.2809   18.8108   20.4447 H   0  0  0  0  0  0  0  0  0  0  0  0
   18.4358   18.9688   22.6409 C   0  0  0  0  0  0  0  0  0  0  0  0
   17.6830   18.4086   23.2144 H   0  0  0  0  0  0  0  0  0  0  0  0
   19.7823   18.9684   23.3950 C   0  0  0  0  0  0  0  0  0  0  0  0
   20.2221   19.9750   23.3893 H   0  0  0  0  0  0  0  0  0  0  0  0
   19.6586   18.6604   24.4413 H   0  0  0  0  0  0  0  0  0  0  0  0
   18.0024   20.3042   22.4109 O   0  0  0  0  0  0  0  0  0  0  0  0
   17.8680   20.7120   23.2924 H   0  0  0  0  0  0  0  0  0  0  0  0
  1  2  1  0  0  0  0
  1  3  1  0  0  0  0
  1  4  1  0  0  0  0
  4  5  1  0  0  0  0
  4  6  1  0  0  0  0
  4  7  1  0  0  0  0
  7  8  1  0  0  0  0
  7  9  1  0  0  0  0
  7 10  1  0  0  0  0
 10 11  1  0  0  0  0
  1 12  1  0  0  0  0
 10 12  1  0  0  0  0
 12 13  1  0  0  0  0
 12 14  1  0  0  0  0
 10 15  1  0  0  0  0
 15 16  1  0  0  0  0
M  END
> <VConfSearch Rank>
548

> <Conf_Id>
33

> <Delta U+W>
0.015

> <U+W>
3.025

> <U>
5.843

> <W>
-2.819

> <W(PB)>
-4.568

> <W(SA)>
1.750

> <Valence>
13.789

> <Coulomb>
-8.574

> <VdW>
0.628

> <VdW6>
-3.284

> <VdW12>
3.913

> <Bond>
0.054

> <Angle>
4.033

> <Pdih>
9.702

> <Idih>
0.000

> <Tether>
0.000

$$$$
VeraChem MOL file


 16 16  0  0  0  0  0  0  0  0999 V2000     
   18.7320   19.0364   21.1692 C   0  0  0  0  0  0  0  0  0  0  0  0
   18.7734   20.1235   21.0153 H   0  0  0  0  0  0  0  0  0  0  0  0
   18.1608   18.6034   20.3365 H   0  0  0  0  0  0  0  0  0  0  0  0
   18.0753   18.7235   22.5316 C   0  0  0  0  0  0  0  0  0  0  0  0
   17.7980   19.6591   23.0365 H   0  0  0  0  0  0  0  0  0  0  0  0
   17.1612   18.1259   22.4116 H   0  0  0  0  0  0  0  0  0  0  0  0
   19.1308   17.9622   23.3616 C   0  0  0  0  0  0  0  0  0  0  0  0
   18.9438   16.8825   23.2912 H   0  0  0  0  0  0  0  0  0  0  0  0
   19.1024   18.2377   24.4243 H   0  0  0  0  0  0  0  0  0  0  0  0
   20.4869   18.2762   22.7157 C   0  0  0  0  0  0  0  0  0  0  0  0
   21.2101   17.4641   22.8779 H   0  0  0  0  0  0  0  0  0  0  0  0
   20.1591   18.4514   21.2267 C   0  0  0  0  0  0  0  0  0  0  0  0
   20.8910   19.0879   20.7118 H   0  0  0  0  0  0  0  0  0  0  0  0
   20.1719   17.4669   20.7406 H   0  0  0  0  0  0  0  0  0  0  0  0
   20.9787   19.5036   23.2338 O   0  0  0  0  0  0  0  0  0  0  0  0
   20.2761   20.1594   23.0456 H   0  0  0  0  0  0  0  0  0  0  0  0
  1  2  1  0  0  0  0
  1  3  1  0  0  0  0
  1  4  1  0  0  0  0
  4  5  1  0  0  0  0
  4  6  1  0  0  0  0
  4  7  1  0  0  0  0
  7  8  1  0  0  0  0
  7  9  1  0  0  0  0
  7 10  1  0  0  0  0
 10 11  1  0  0  0  0
  1 12  1  0  0  0  0
 10 12  1  0  0  0  0
 12 13  1  0  0  0  0
 12 14  1  0  0  0  0
 10 15  1  0  0  0  0
 15 16  1  0  0  0  0
M  END
> <VConfSearch Rank>
549

> <Conf_Id>
20

> <Delta U+W>
-0.483

> <U+W>
2.527

> <U>
4.508

> <W>
-1.981

> <W(PB)>
-3.712

> <W(SA)>
1.732

> <Valence>
14.705

> <Coulomb>
-10.687

> <VdW>
0.490

> <VdW6>
-3.745

> <VdW12>
4.235

> <Bond>
0.068

> <Angle>
3.901

> <Pdih>
10.737

> <Idih>
0.000

> <Tether>
0.000

$$$$
VeraChem MOL file


 16 16  0  0  0  0  0  0  0  0999 V2000     
   20.5002   18.8356   23.1687 C   0  0  0  0  0  0  0  0  0  0  0  0
   20.1491   18.6295   24.1894 H   0  0  0  0  0  0  0  0  0  0  0  0
   21.5633   19.1073   23.2187 H   0  0  0  0  0  0  0  0  0  0  0  0
   19.6409   19.9427   22.5429 C   0  0  0  0  0  0  0  0  0  0  0  0
   19.3931   20.7359   23.2614 H   0  0  0  0  0  0  0  0  0  0  0  0
   20.1806   20.3981   21.7009 H   0  0  0  0  0  0  0  0  0  0  0  0
   18.3899   19.2100   22.0246 C   0  0  0  0  0  0  0  0  0  0  0  0
   17.9593   19.7191   21.1527 H   0  0  0  0  0  0  0  0  0  0  0  0
   17.6270   19.1904   22.8147 H   0  0  0  0  0  0  0  0  0  0  0  0
   18.8387   17.7745   21.6788 C   0  0  0  0  0  0  0  0  0  0  0  0
   18.8905   17.6489   20.5875 H   0  0  0  0  0  0  0  0  0  0  0  0
   20.2497   17.6041   22.2788 C   0  0  0  0  0  0  0  0  0  0  0  0
   20.3517   16.6687   22.8451 H   0  0  0  0  0  0  0  0  0  0  0  0
   20.9850   17.5826   21.4639 H   0  0  0  0  0  0  0  0  0  0  0  0
   17.9441   16.8288   22.2526 O   0  0  0  0  0  0  0  0  0  0  0  0
   17.0664   16.9892   21.8458 H   0  0  0  0  0  0  0  0  0  0  0  0
  1  2  1  0  0  0  0
  1  3  1  0  0  0  0
  1  4  1  0  0  0  0
  4  5  1  0  0  0  0
  4  6  1  0  0  0  0
  4  7  1  0  0  0  0
  7  8  1  0  0  0  0
  7  9  1  0  0  0  0
  7 10  1  0  0  0  0
 10 11  1  0  0  0  0
  1 12  1  0  0  0  0
 10 12  1  0  0  0  0
 12 13  1  0  0  0  0
 12 14  1  0  0  0  0
 10 15  1  0  0  0  0
 15 16  1  0  0  0  0
M  END
> <VConfSearch Rank>
550

> <Conf_Id>
59

> <Delta U+W>
0.000

> <U+W>
3.010

> <U>
5.843

> <W>
-2.833

> <W(PB)>
-4.568

> <W(SA)>
1.735

> <Valence>
13.789

> <Coulomb>
-8.574

> <VdW>
0.628

> <VdW6>
-3.284

> <VdW12>
3.912

> <Bond>
0.054

> <Angle>
4.034

> <Pdih>
9.702

> <Idih>
0.000

> <Tether>
0.000

$$$$
VeraChem MOL file


 16 16  0  0  0  0  0  0  0  0999 V2000     
   20.7008   18.2636   22.9085 C   0  0  0  0  0  0  0  0  0  0  0  0
   21.1013   17.5312   23.6227 H   0  0  0  0  0  0  0  0  0  0  0  0
   21.5454   18.8131   22.4699 H   0  0  0  0  0  0  0  0  0  0  0  0
   19.7290   19.2515   23.5684 C   0  0  0  0  0  0  0  0  0  0  0  0
   19.0997   18.7191   24.2952 H   0  0  0  0  0  0  0  0  0  0  0  0
   20.2490   20.0641   24.0935 H   0  0  0  0  0  0  0  0  0  0  0  0
   18.8557   19.7653   22.4089 C   0  0  0  0  0  0  0  0  0  0  0  0
   19.3166   20.6590   21.9685 H   0  0  0  0  0  0  0  0  0  0  0  0
   17.8502   20.0432   22.7524 H   0  0  0  0  0  0  0  0  0  0  0  0
   18.8237   18.6427   21.3513 C   0  0  0  0  0  0  0  0  0  0  0  0
   19.0951   19.0597   20.3705 H   0  0  0  0  0  0  0  0  0  0  0  0
   19.8739   17.6010   21.7914 C   0  0  0  0  0  0  0  0  0  0  0  0
   19.3780   16.7051   22.1891 H   0  0  0  0  0  0  0  0  0  0  0  0
   20.5098   17.2900   20.9525 H   0  0  0  0  0  0  0  0  0  0  0  0
   17.5320   18.0483   21.3057 O   0  0  0  0  0  0  0  0  0  0  0  0
   17.5724   17.3392   20.6297 H   0  0  0  0  0  0  0  0  0  0  0  0
  1  2  1  0  0  0  0
  1  3  1  0  0  0  0
  1  4  1  0  0  0  0
  4  5  1  0  0  0  0
  4  6  1  0  0  0  0
  4  7  1  0  0  0  0
  7  8  1  0  0  0  0
  7  9  1  0  0  0  0
  7 10  1  0  0  0  0
 10 11  1  0  0  0  0
  1 12  1  0  0  0  0
 10 12  1  0  0  0  0
 12 13  1  0  0  0  0
 12 14  1  0  0  0  0
 10 15  1  0  0  0  0
 15 16  1  0  0  0  0
M  END
> <VConfSearch Rank>
551

> <Conf_Id>
33

> <Delta U+W>
0.015

> <U+W>
3.025

> <U>
5.843

> <W>
-2.819

> <W(PB)>
-4.568

> <W(SA)>
1.750

> <Valence>
13.789

> <Coulomb>
-8.574

> <VdW>
0.628

> <VdW6>
-3.284

> <VdW12>
3.913

> <Bond>
0.054

> <Angle>
4.033

> <Pdih>
9.702

> <Idih>
0.000

> <Tether>
0.000

$$$$
VeraChem MOL file


 16 16  0  0  0  0  0  0  0  0999 V2000     
   19.5101   18.9242   23.5500 C   0  0  0  0  0  0  0  0  0  0  0  0
   20.5148   19.2687   23.8313 H   0  0  0  0  0  0  0  0  0  0  0  0
   18.8819   18.9580   24.4507 H   0  0  0  0  0  0  0  0  0  0  0  0
   19.5889   17.4967   22.9659 C   0  0  0  0  0  0  0  0  0  0  0  0
   20.6315   17.1501   22.9654 H   0  0  0  0  0  0  0  0  0  0  0  0
   19.0009   16.7840   23.5604 H   0  0  0  0  0  0  0  0  0  0  0  0
   19.0559   17.5855   21.5200 C   0  0  0  0  0  0  0  0  0  0  0  0
   18.0013   17.2806   21.4984 H   0  0  0  0  0  0  0  0  0  0  0  0
   19.6072   16.9305   20.8322 H   0  0  0  0  0  0  0  0  0  0  0  0
   19.1555   19.0638   21.1202 C   0  0  0  0  0  0  0  0  0  0  0  0
   18.4014   19.3306   20.3659 H   0  0  0  0  0  0  0  0  0  0  0  0
   18.9314   19.8217   22.4356 C   0  0  0  0  0  0  0  0  0  0  0  0
   19.3902   20.8193   22.4243 H   0  0  0  0  0  0  0  0  0  0  0  0
   17.8525   19.9519   22.5927 H   0  0  0  0  0  0  0  0  0  0  0  0
   20.4661   19.3320   20.6434 O   0  0  0  0  0  0  0  0  0  0  0  0
   21.0622   19.0662   21.3735 H   0  0  0  0  0  0  0  0  0  0  0  0
  1  2  1  0  0  0  0
  1  3  1  0  0  0  0
  1  4  1  0  0  0  0
  4  5  1  0  0  0  0
  4  6  1  0  0  0  0
  4  7  1  0  0  0  0
  7  8  1  0  0  0  0
  7  9  1  0  0  0  0
  7 10  1  0  0  0  0
 10 11  1  0  0  0  0
  1 12  1  0  0  0  0
 10 12  1  0  0  0  0
 12 13  1  0  0  0  0
 12 14  1  0  0  0  0
 10 15  1  0  0  0  0
 15 16  1  0  0  0  0
M  END
> <VConfSearch Rank>
552

> <Conf_Id>
20

> <Delta U+W>
-0.483

> <U+W>
2.527

> <U>
4.508

> <W>
-1.981

> <W(PB)>
-3.712

> <W(SA)>
1.732

> <Valence>
14.705

> <Coulomb>
-10.687

> <VdW>
0.490

> <VdW6>
-3.745

> <VdW12>
4.235

> <Bond>
0.068

> <Angle>
3.901

> <Pdih>
10.737

> <Idih>
0.000

> <Tether>
0.000

$$$$
VeraChem MOL file


 16 16  0  0  0  0  0  0  0  0999 V2000     
   19.0793   18.5488   20.8873 C   0  0  0  0  0  0  0  0  0  0  0  0
   18.1504   17.9713   20.7813 H   0  0  0  0  0  0  0  0  0  0  0  0
   19.3689   18.9200   19.8948 H   0  0  0  0  0  0  0  0  0  0  0  0
   20.1633   17.6675   21.5228 C   0  0  0  0  0  0  0  0  0  0  0  0
   20.1401   16.6371   21.1427 H   0  0  0  0  0  0  0  0  0  0  0  0
   21.1551   18.0900   21.3099 H   0  0  0  0  0  0  0  0  0  0  0  0
   19.8793   17.7409   23.0343 C   0  0  0  0  0  0  0  0  0  0  0  0
   20.7982   17.6161   23.6216 H   0  0  0  0  0  0  0  0  0  0  0  0
   19.1881   16.9341   23.3136 H   0  0  0  0  0  0  0  0  0  0  0  0
   19.2264   19.1162   23.2878 C   0  0  0  0  0  0  0  0  0  0  0  0
   19.9434   19.7878   23.7821 H   0  0  0  0  0  0  0  0  0  0  0  0
   18.8654   19.6879   21.9012 C   0  0  0  0  0  0  0  0  0  0  0  0
   17.8381   20.0743   21.8643 H   0  0  0  0  0  0  0  0  0  0  0  0
   19.5433   20.5196   21.6694 H   0  0  0  0  0  0  0  0  0  0  0  0
   18.0524   18.9643   24.0767 O   0  0  0  0  0  0  0  0  0  0  0  0
   18.3380   18.5897   24.9368 H   0  0  0  0  0  0  0  0  0  0  0  0
  1  2  1  0  0  0  0
  1  3  1  0  0  0  0
  1  4  1  0  0  0  0
  4  5  1  0  0  0  0
  4  6  1  0  0  0  0
  4  7  1  0  0  0  0
  7  8  1  0  0  0  0
  7  9  1  0  0  0  0
  7 10  1  0  0  0  0
 10 11  1  0  0  0  0
  1 12  1  0  0  0  0
 10 12  1  0  0  0  0
 12 13  1  0  0  0  0
 12 14  1  0  0  0  0
 10 15  1  0  0  0  0
 15 16  1  0  0  0  0
M  END
> <VConfSearch Rank>
553

> <Conf_Id>
59

> <Delta U+W>
0.000

> <U+W>
3.010

> <U>
5.843

> <W>
-2.833

> <W(PB)>
-4.568

> <W(SA)>
1.735

> <Valence>
13.789

> <Coulomb>
-8.574

> <VdW>
0.628

> <VdW6>
-3.284

> <VdW12>
3.912

> <Bond>
0.054

> <Angle>
4.034

> <Pdih>
9.702

> <Idih>
0.000

> <Tether>
0.000

$$$$
VeraChem MOL file


 16 16  0  0  0  0  0  0  0  0999 V2000     
   18.7883   19.2972   23.3652 C   0  0  0  0  0  0  0  0  0  0  0  0
   17.8007   19.7166   23.6007 H   0  0  0  0  0  0  0  0  0  0  0  0
   19.4017   19.3298   24.2764 H   0  0  0  0  0  0  0  0  0  0  0  0
   19.4951   20.0644   22.2393 C   0  0  0  0  0  0  0  0  0  0  0  0
   18.7639   20.3422   21.4675 H   0  0  0  0  0  0  0  0  0  0  0  0
   19.9821   20.9814   22.5980 H   0  0  0  0  0  0  0  0  0  0  0  0
   20.5008   19.0541   21.6571 C   0  0  0  0  0  0  0  0  0  0  0  0
   21.4579   19.1394   22.1879 H   0  0  0  0  0  0  0  0  0  0  0  0
   20.6919   19.2419   20.5921 H   0  0  0  0  0  0  0  0  0  0  0  0
   19.9100   17.6513   21.9075 C   0  0  0  0  0  0  0  0  0  0  0  0
   20.6668   17.0202   22.3958 H   0  0  0  0  0  0  0  0  0  0  0  0
   18.7019   17.8499   22.8471 C   0  0  0  0  0  0  0  0  0  0  0  0
   17.7627   17.7180   22.2926 H   0  0  0  0  0  0  0  0  0  0  0  0
   18.7100   17.1270   23.6730 H   0  0  0  0  0  0  0  0  0  0  0  0
   19.4867   17.0709   20.6796 O   0  0  0  0  0  0  0  0  0  0  0  0
   19.1120   16.1916   20.8985 H   0  0  0  0  0  0  0  0  0  0  0  0
  1  2  1  0  0  0  0
  1  3  1  0  0  0  0
  1  4  1  0  0  0  0
  4  5  1  0  0  0  0
  4  6  1  0  0  0  0
  4  7  1  0  0  0  0
  7  8  1  0  0  0  0
  7  9  1  0  0  0  0
  7 10  1  0  0  0  0
 10 11  1  0  0  0  0
  1 12  1  0  0  0  0
 10 12  1  0  0  0  0
 12 13  1  0  0  0  0
 12 14  1  0  0  0  0
 10 15  1  0  0  0  0
 15 16  1  0  0  0  0
M  END
> <VConfSearch Rank>
554

> <Conf_Id>
33

> <Delta U+W>
0.015

> <U+W>
3.025

> <U>
5.843

> <W>
-2.819

> <W(PB)>
-4.568

> <W(SA)>
1.750

> <Valence>
13.789

> <Coulomb>
-8.574

> <VdW>
0.628

> <VdW6>
-3.284

> <VdW12>
3.913

> <Bond>
0.054

> <Angle>
4.033

> <Pdih>
9.702

> <Idih>
0.000

> <Tether>
0.000

$$$$
VeraChem MOL file


 16 16  0  0  0  0  0  0  0  0999 V2000     
   19.0701   18.5695   20.9588 C   0  0  0  0  0  0  0  0  0  0  0  0
   18.1440   18.0240   20.7306 H   0  0  0  0  0  0  0  0  0  0  0  0
   19.4752   18.9496   20.0109 H   0  0  0  0  0  0  0  0  0  0  0  0
   20.0708   17.6315   21.6685 C   0  0  0  0  0  0  0  0  0  0  0  0
   19.6294   16.6318   21.7829 H   0  0  0  0  0  0  0  0  0  0  0  0
   20.9998   17.5217   21.0924 H   0  0  0  0  0  0  0  0  0  0  0  0
   20.3472   18.2539   23.0537 C   0  0  0  0  0  0  0  0  0  0  0  0
   21.2800   18.8321   23.0165 H   0  0  0  0  0  0  0  0  0  0  0  0
   20.4569   17.4928   23.8377 H   0  0  0  0  0  0  0  0  0  0  0  0
   19.1792   19.2099   23.3309 C   0  0  0  0  0  0  0  0  0  0  0  0
   19.4788   20.0325   23.9961 H   0  0  0  0  0  0  0  0  0  0  0  0
   18.7804   19.7242   21.9412 C   0  0  0  0  0  0  0  0  0  0  0  0
   17.7323   20.0499   21.9031 H   0  0  0  0  0  0  0  0  0  0  0  0
   19.4083   20.5883   21.6870 H   0  0  0  0  0  0  0  0  0  0  0  0
   18.0971   18.4773   23.8868 O   0  0  0  0  0  0  0  0  0  0  0  0
   17.9023   17.7748   23.2327 H   0  0  0  0  0  0  0  0  0  0  0  0
  1  2  1  0  0  0  0
  1  3  1  0  0  0  0
  1  4  1  0  0  0  0
  4  5  1  0  0  0  0
  4  6  1  0  0  0  0
  4  7  1  0  0  0  0
  7  8  1  0  0  0  0
  7  9  1  0  0  0  0
  7 10  1  0  0  0  0
 10 11  1  0  0  0  0
  1 12  1  0  0  0  0
 10 12  1  0  0  0  0
 12 13  1  0  0  0  0
 12 14  1  0  0  0  0
 10 15  1  0  0  0  0
 15 16  1  0  0  0  0
M  END
> <VConfSearch Rank>
555

> <Conf_Id>
20

> <Delta U+W>
-0.483

> <U+W>
2.527

> <U>
4.508

> <W>
-1.981

> <W(PB)>
-3.712

> <W(SA)>
1.732

> <Valence>
14.705

> <Coulomb>
-10.687

> <VdW>
0.490

> <VdW6>
-3.745

> <VdW12>
4.235

> <Bond>
0.068

> <Angle>
3.901

> <Pdih>
10.737

> <Idih>
0.000

> <Tether>
0.000

$$$$
VeraChem MOL file


 16 16  0  0  0  0  0  0  0  0999 V2000     
   17.9525   18.3022   22.5874 C   0  0  0  0  0  0  0  0  0  0  0  0
   17.5901   17.7387   21.7163 H   0  0  0  0  0  0  0  0  0  0  0  0
   17.1292   18.3863   23.3097 H   0  0  0  0  0  0  0  0  0  0  0  0
   18.4756   19.6717   22.1328 C   0  0  0  0  0  0  0  0  0  0  0  0
   17.8488   20.1196   21.3497 H   0  0  0  0  0  0  0  0  0  0  0  0
   18.5007   20.3605   22.9886 H   0  0  0  0  0  0  0  0  0  0  0  0
   19.9096   19.3920   21.6469 C   0  0  0  0  0  0  0  0  0  0  0  0
   20.5561   20.2692   21.7791 H   0  0  0  0  0  0  0  0  0  0  0  0
   19.8890   19.1463   20.5764 H   0  0  0  0  0  0  0  0  0  0  0  0
   20.4176   18.1847   22.4631 C   0  0  0  0  0  0  0  0  0  0  0  0
   21.1501   18.5184   23.2125 H   0  0  0  0  0  0  0  0  0  0  0  0
   19.1856   17.5966   23.1814 C   0  0  0  0  0  0  0  0  0  0  0  0
   19.1197   16.5060   23.0706 H   0  0  0  0  0  0  0  0  0  0  0  0
   19.2564   17.8192   24.2540 H   0  0  0  0  0  0  0  0  0  0  0  0
   20.9908   17.2127   21.5967 O   0  0  0  0  0  0  0  0  0  0  0  0
   21.7577   17.6415   21.1612 H   0  0  0  0  0  0  0  0  0  0  0  0
  1  2  1  0  0  0  0
  1  3  1  0  0  0  0
  1  4  1  0  0  0  0
  4  5  1  0  0  0  0
  4  6  1  0  0  0  0
  4  7  1  0  0  0  0
  7  8  1  0  0  0  0
  7  9  1  0  0  0  0
  7 10  1  0  0  0  0
 10 11  1  0  0  0  0
  1 12  1  0  0  0  0
 10 12  1  0  0  0  0
 12 13  1  0  0  0  0
 12 14  1  0  0  0  0
 10 15  1  0  0  0  0
 15 16  1  0  0  0  0
M  END
> <VConfSearch Rank>
556

> <Conf_Id>
59

> <Delta U+W>
0.000

> <U+W>
3.010

> <U>
5.843

> <W>
-2.833

> <W(PB)>
-4.568

> <W(SA)>
1.735

> <Valence>
13.789

> <Coulomb>
-8.574

> <VdW>
0.628

> <VdW6>
-3.284

> <VdW12>
3.912

> <Bond>
0.054

> <Angle>
4.034

> <Pdih>
9.702

> <Idih>
0.000

> <Tether>
0.000

$$$$
VeraChem MOL file


 16 16  0  0  0  0  0  0  0  0999 V2000     
   18.0344   18.8250   22.2179 C   0  0  0  0  0  0  0  0  0  0  0  0
   17.2253   18.7928   21.4755 H   0  0  0  0  0  0  0  0  0  0  0  0
   17.5840   18.9582   23.2113 H   0  0  0  0  0  0  0  0  0  0  0  0
   19.0312   19.9601   21.9465 C   0  0  0  0  0  0  0  0  0  0  0  0
   19.2082   20.0442   20.8652 H   0  0  0  0  0  0  0  0  0  0  0  0
   18.6712   20.9311   22.3129 H   0  0  0  0  0  0  0  0  0  0  0  0
   20.3265   19.5111   22.6477 C   0  0  0  0  0  0  0  0  0  0  0  0
   20.3327   19.8799   23.6816 H   0  0  0  0  0  0  0  0  0  0  0  0
   21.2176   19.9108   22.1454 H   0  0  0  0  0  0  0  0  0  0  0  0
   20.3059   17.9686   22.6639 C   0  0  0  0  0  0  0  0  0  0  0  0
   20.4885   17.6136   23.6887 H   0  0  0  0  0  0  0  0  0  0  0  0
   18.8944   17.5480   22.2028 C   0  0  0  0  0  0  0  0  0  0  0  0
   18.9316   17.1471   21.1807 H   0  0  0  0  0  0  0  0  0  0  0  0
   18.4718   16.7721   22.8541 H   0  0  0  0  0  0  0  0  0  0  0  0
   21.2873   17.4555   21.7710 O   0  0  0  0  0  0  0  0  0  0  0  0
   21.2222   16.4780   21.8131 H   0  0  0  0  0  0  0  0  0  0  0  0
  1  2  1  0  0  0  0
  1  3  1  0  0  0  0
  1  4  1  0  0  0  0
  4  5  1  0  0  0  0
  4  6  1  0  0  0  0
  4  7  1  0  0  0  0
  7  8  1  0  0  0  0
  7  9  1  0  0  0  0
  7 10  1  0  0  0  0
 10 11  1  0  0  0  0
  1 12  1  0  0  0  0
 10 12  1  0  0  0  0
 12 13  1  0  0  0  0
 12 14  1  0  0  0  0
 10 15  1  0  0  0  0
 15 16  1  0  0  0  0
M  END
> <VConfSearch Rank>
557

> <Conf_Id>
33

> <Delta U+W>
0.015

> <U+W>
3.025

> <U>
5.843

> <W>
-2.819

> <W(PB)>
-4.568

> <W(SA)>
1.750

> <Valence>
13.789

> <Coulomb>
-8.574

> <VdW>
0.628

> <VdW6>
-3.284

> <VdW12>
3.913

> <Bond>
0.054

> <Angle>
4.033

> <Pdih>
9.702

> <Idih>
0.000

> <Tether>
0.000

$$$$
VeraChem MOL file


 16 16  0  0  0  0  0  0  0  0999 V2000     
   19.3288   18.6968   23.5904 C   0  0  0  0  0  0  0  0  0  0  0  0
   19.5926   19.6860   23.9893 H   0  0  0  0  0  0  0  0  0  0  0  0
   19.0756   18.0506   24.4421 H   0  0  0  0  0  0  0  0  0  0  0  0
   20.5107   18.1264   22.7764 C   0  0  0  0  0  0  0  0  0  0  0  0
   21.3470   18.8390   22.7822 H   0  0  0  0  0  0  0  0  0  0  0  0
   20.8752   17.1813   23.2017 H   0  0  0  0  0  0  0  0  0  0  0  0
   19.9930   17.9237   21.3365 C   0  0  0  0  0  0  0  0  0  0  0  0
   19.6992   16.8750   21.1965 H   0  0  0  0  0  0  0  0  0  0  0  0
   20.7558   18.1604   20.5827 H   0  0  0  0  0  0  0  0  0  0  0  0
   18.7487   18.8119   21.2031 C   0  0  0  0  0  0  0  0  0  0  0  0
   18.0441   18.4121   20.4596 H   0  0  0  0  0  0  0  0  0  0  0  0
   18.1409   18.8162   22.6121 C   0  0  0  0  0  0  0  0  0  0  0  0
   17.5346   19.7121   22.8009 H   0  0  0  0  0  0  0  0  0  0  0  0
   17.4867   17.9411   22.7209 H   0  0  0  0  0  0  0  0  0  0  0  0
   19.1500   20.1310   20.8628 O   0  0  0  0  0  0  0  0  0  0  0  0
   19.7687   20.4002   21.5727 H   0  0  0  0  0  0  0  0  0  0  0  0
  1  2  1  0  0  0  0
  1  3  1  0  0  0  0
  1  4  1  0  0  0  0
  4  5  1  0  0  0  0
  4  6  1  0  0  0  0
  4  7  1  0  0  0  0
  7  8  1  0  0  0  0
  7  9  1  0  0  0  0
  7 10  1  0  0  0  0
 10 11  1  0  0  0  0
  1 12  1  0  0  0  0
 10 12  1  0  0  0  0
 12 13  1  0  0  0  0
 12 14  1  0  0  0  0
 10 15  1  0  0  0  0
 15 16  1  0  0  0  0
M  END
> <VConfSearch Rank>
558

> <Conf_Id>
20

> <Delta U+W>
-0.483

> <U+W>
2.527

> <U>
4.508

> <W>
-1.981

> <W(PB)>
-3.712

> <W(SA)>
1.732

> <Valence>
14.705

> <Coulomb>
-10.687

> <VdW>
0.490

> <VdW6>
-3.745

> <VdW12>
4.235

> <Bond>
0.068

> <Angle>
3.901

> <Pdih>
10.737

> <Idih>
0.000

> <Tether>
0.000

$$$$
VeraChem MOL file


 16 16  0  0  0  0  0  0  0  0999 V2000     
   18.1731   18.8749   23.0930 C   0  0  0  0  0  0  0  0  0  0  0  0
   17.9149   17.9427   23.6147 H   0  0  0  0  0  0  0  0  0  0  0  0
   17.4734   19.6566   23.4186 H   0  0  0  0  0  0  0  0  0  0  0  0
   18.1301   18.6443   21.5762 C   0  0  0  0  0  0  0  0  0  0  0  0
   17.2906   18.0033   21.2745 H   0  0  0  0  0  0  0  0  0  0  0  0
   18.0296   19.6084   21.0585 H   0  0  0  0  0  0  0  0  0  0  0  0
   19.4959   18.0153   21.2454 C   0  0  0  0  0  0  0  0  0  0  0  0
   19.8137   18.2607   20.2239 H   0  0  0  0  0  0  0  0  0  0  0  0
   19.4204   16.9220   21.3219 H   0  0  0  0  0  0  0  0  0  0  0  0
   20.4898   18.5573   22.2943 C   0  0  0  0  0  0  0  0  0  0  0  0
   21.1551   19.3017   21.8330 H   0  0  0  0  0  0  0  0  0  0  0  0
   19.6401   19.2402   23.3858 C   0  0  0  0  0  0  0  0  0  0  0  0
   19.9384   18.9354   24.3978 H   0  0  0  0  0  0  0  0  0  0  0  0
   19.7706   20.3278   23.3128 H   0  0  0  0  0  0  0  0  0  0  0  0
   21.2425   17.4885   22.8556 O   0  0  0  0  0  0  0  0  0  0  0  0
   21.7514   17.0863   22.1202 H   0  0  0  0  0  0  0  0  0  0  0  0
  1  2  1  0  0  0  0
  1  3  1  0  0  0  0
  1  4  1  0  0  0  0
  4  5  1  0  0  0  0
  4  6  1  0  0  0  0
  4  7  1  0  0  0  0
  7  8  1  0  0  0  0
  7  9  1  0  0  0  0
  7 10  1  0  0  0  0
 10 11  1  0  0  0  0
  1 12  1  0  0  0  0
 10 12  1  0  0  0  0
 12 13  1  0  0  0  0
 12 14  1  0  0  0  0
 10 15  1  0  0  0  0
 15 16  1  0  0  0  0
M  END
> <VConfSearch Rank>
559

> <Conf_Id>
59

> <Delta U+W>
0.000

> <U+W>
3.010

> <U>
5.843

> <W>
-2.833

> <W(PB)>
-4.568

> <W(SA)>
1.735

> <Valence>
13.789

> <Coulomb>
-8.574

> <VdW>
0.628

> <VdW6>
-3.284

> <VdW12>
3.912

> <Bond>
0.054

> <Angle>
4.034

> <Pdih>
9.702

> <Idih>
0.000

> <Tether>
0.000

$$$$
VeraChem MOL file


 16 16  0  0  0  0  0  0  0  0999 V2000     
   18.2315   19.3641   22.3666 C   0  0  0  0  0  0  0  0  0  0  0  0
   17.6576   20.0819   21.7648 H   0  0  0  0  0  0  0  0  0  0  0  0
   17.6169   19.0698   23.2288 H   0  0  0  0  0  0  0  0  0  0  0  0
   19.5638   19.9471   22.8574 C   0  0  0  0  0  0  0  0  0  0  0  0
   20.0151   20.5555   22.0612 H   0  0  0  0  0  0  0  0  0  0  0  0
   19.4426   20.5797   23.7471 H   0  0  0  0  0  0  0  0  0  0  0  0
   20.4469   18.7151   23.1281 C   0  0  0  0  0  0  0  0  0  0  0  0
   20.3151   18.3886   24.1679 H   0  0  0  0  0  0  0  0  0  0  0  0
   21.5116   18.9407   22.9816 H   0  0  0  0  0  0  0  0  0  0  0  0
   19.9492   17.6011   22.1842 C   0  0  0  0  0  0  0  0  0  0  0  0
   19.7590   16.6885   22.7677 H   0  0  0  0  0  0  0  0  0  0  0  0
   18.6332   18.1142   21.5623 C   0  0  0  0  0  0  0  0  0  0  0  0
   18.7922   18.3937   20.5119 H   0  0  0  0  0  0  0  0  0  0  0  0
   17.8474   17.3484   21.5921 H   0  0  0  0  0  0  0  0  0  0  0  0
   20.9108   17.3557   21.1649 O   0  0  0  0  0  0  0  0  0  0  0  0
   20.5398   16.6520   20.5917 H   0  0  0  0  0  0  0  0  0  0  0  0
  1  2  1  0  0  0  0
  1  3  1  0  0  0  0
  1  4  1  0  0  0  0
  4  5  1  0  0  0  0
  4  6  1  0  0  0  0
  4  7  1  0  0  0  0
  7  8  1  0  0  0  0
  7  9  1  0  0  0  0
  7 10  1  0  0  0  0
 10 11  1  0  0  0  0
  1 12  1  0  0  0  0
 10 12  1  0  0  0  0
 12 13  1  0  0  0  0
 12 14  1  0  0  0  0
 10 15  1  0  0  0  0
 15 16  1  0  0  0  0
M  END
> <VConfSearch Rank>
560

> <Conf_Id>
33

> <Delta U+W>
0.015

> <U+W>
3.025

> <U>
5.843

> <W>
-2.819

> <W(PB)>
-4.568

> <W(SA)>
1.750

> <Valence>
13.789

> <Coulomb>
-8.574

> <VdW>
0.628

> <VdW6>
-3.284

> <VdW12>
3.913

> <Bond>
0.054

> <Angle>
4.033

> <Pdih>
9.702

> <Idih>
0.000

> <Tether>
0.000

$$$$
VeraChem MOL file


 16 16  0  0  0  0  0  0  0  0999 V2000     
   18.4010   19.1657   22.9802 C   0  0  0  0  0  0  0  0  0  0  0  0
   18.0480   20.1324   22.5954 H   0  0  0  0  0  0  0  0  0  0  0  0
   17.8077   18.9258   23.8732 H   0  0  0  0  0  0  0  0  0  0  0  0
   19.9085   19.2486   23.3053 C   0  0  0  0  0  0  0  0  0  0  0  0
   20.2848   20.2557   23.0788 H   0  0  0  0  0  0  0  0  0  0  0  0
   20.1039   19.0510   24.3682 H   0  0  0  0  0  0  0  0  0  0  0  0
   20.6075   18.2042   22.4092 C   0  0  0  0  0  0  0  0  0  0  0  0
   20.7765   17.2832   22.9826 H   0  0  0  0  0  0  0  0  0  0  0  0
   21.5824   18.5544   22.0446 H   0  0  0  0  0  0  0  0  0  0  0  0
   19.6314   17.9058   21.2633 C   0  0  0  0  0  0  0  0  0  0  0  0
   19.7734   16.8909   20.8648 H   0  0  0  0  0  0  0  0  0  0  0  0
   18.2456   18.0735   21.9007 C   0  0  0  0  0  0  0  0  0  0  0  0
   17.4750   18.3265   21.1604 H   0  0  0  0  0  0  0  0  0  0  0  0
   17.9547   17.1271   22.3756 H   0  0  0  0  0  0  0  0  0  0  0  0
   19.7973   18.8787   20.2422 O   0  0  0  0  0  0  0  0  0  0  0  0
   19.6542   19.7402   20.6855 H   0  0  0  0  0  0  0  0  0  0  0  0
  1  2  1  0  0  0  0
  1  3  1  0  0  0  0
  1  4  1  0  0  0  0
  4  5  1  0  0  0  0
  4  6  1  0  0  0  0
  4  7  1  0  0  0  0
  7  8  1  0  0  0  0
  7  9  1  0  0  0  0
  7 10  1  0  0  0  0
 10 11  1  0  0  0  0
  1 12  1  0  0  0  0
 10 12  1  0  0  0  0
 12 13  1  0  0  0  0
 12 14  1  0  0  0  0
 10 15  1  0  0  0  0
 15 16  1  0  0  0  0
M  END
> <VConfSearch Rank>
561

> <Conf_Id>
20

> <Delta U+W>
-0.483

> <U+W>
2.527

> <U>
4.508

> <W>
-1.981

> <W(PB)>
-3.712

> <W(SA)>
1.732

> <Valence>
14.705

> <Coulomb>
-10.687

> <VdW>
0.490

> <VdW6>
-3.745

> <VdW12>
4.235

> <Bond>
0.068

> <Angle>
3.901

> <Pdih>
10.737

> <Idih>
0.000

> <Tether>
0.000

$$$$
VeraChem MOL file


 16 16  0  0  0  0  0  0  0  0999 V2000     
   19.7093   19.9552   22.4797 C   0  0  0  0  0  0  0  0  0  0  0  0
   19.0563   20.4964   21.7807 H   0  0  0  0  0  0  0  0  0  0  0  0
   20.3006   20.6926   23.0392 H   0  0  0  0  0  0  0  0  0  0  0  0
   20.5889   18.9670   21.7015 C   0  0  0  0  0  0  0  0  0  0  0  0
   20.9469   19.3851   20.7509 H   0  0  0  0  0  0  0  0  0  0  0  0
   21.4637   18.6940   22.3079 H   0  0  0  0  0  0  0  0  0  0  0  0
   19.6908   17.7331   21.4976 C   0  0  0  0  0  0  0  0  0  0  0  0
   20.2835   16.8112   21.4372 H   0  0  0  0  0  0  0  0  0  0  0  0
   19.1356   17.8396   20.5557 H   0  0  0  0  0  0  0  0  0  0  0  0
   18.7152   17.7030   22.6930 C   0  0  0  0  0  0  0  0  0  0  0  0
   18.9986   16.9010   23.3900 H   0  0  0  0  0  0  0  0  0  0  0  0
   18.8538   19.0664   23.4013 C   0  0  0  0  0  0  0  0  0  0  0  0
   17.8796   19.5258   23.6156 H   0  0  0  0  0  0  0  0  0  0  0  0
   19.3720   18.9216   24.3582 H   0  0  0  0  0  0  0  0  0  0  0  0
   17.3810   17.5224   22.2333 O   0  0  0  0  0  0  0  0  0  0  0  0
   17.3537   16.6510   21.7845 H   0  0  0  0  0  0  0  0  0  0  0  0
  1  2  1  0  0  0  0
  1  3  1  0  0  0  0
  1  4  1  0  0  0  0
  4  5  1  0  0  0  0
  4  6  1  0  0  0  0
  4  7  1  0  0  0  0
  7  8  1  0  0  0  0
  7  9  1  0  0  0  0
  7 10  1  0  0  0  0
 10 11  1  0  0  0  0
  1 12  1  0  0  0  0
 10 12  1  0  0  0  0
 12 13  1  0  0  0  0
 12 14  1  0  0  0  0
 10 15  1  0  0  0  0
 15 16  1  0  0  0  0
M  END
> <VConfSearch Rank>
562

> <Conf_Id>
59

> <Delta U+W>
0.000

> <U+W>
3.010

> <U>
5.843

> <W>
-2.833

> <W(PB)>
-4.568

> <W(SA)>
1.735

> <Valence>
13.789

> <Coulomb>
-8.574

> <VdW>
0.628

> <VdW6>
-3.284

> <VdW12>
3.912

> <Bond>
0.054

> <Angle>
4.034

> <Pdih>
9.702

> <Idih>
0.000

> <Tether>
0.000

$$$$
VeraChem MOL file


 16 16  0  0  0  0  0  0  0  0999 V2000     
   20.4288   19.2720   21.4731 C   0  0  0  0  0  0  0  0  0  0  0  0
   20.6264   19.4728   20.4113 H   0  0  0  0  0  0  0  0  0  0  0  0
   21.1493   19.8469   22.0714 H   0  0  0  0  0  0  0  0  0  0  0  0
   20.5457   17.7808   21.8170 C   0  0  0  0  0  0  0  0  0  0  0  0
   20.1134   17.1804   21.0043 H   0  0  0  0  0  0  0  0  0  0  0  0
   21.5874   17.4641   21.9622 H   0  0  0  0  0  0  0  0  0  0  0  0
   19.6971   17.6115   23.0907 C   0  0  0  0  0  0  0  0  0  0  0  0
   20.3265   17.7683   23.9763 H   0  0  0  0  0  0  0  0  0  0  0  0
   19.2687   16.6026   23.1600 H   0  0  0  0  0  0  0  0  0  0  0  0
   18.6115   18.7066   23.0447 C   0  0  0  0  0  0  0  0  0  0  0  0
   18.6138   19.2605   23.9948 H   0  0  0  0  0  0  0  0  0  0  0  0
   18.9933   19.6485   21.8833 C   0  0  0  0  0  0  0  0  0  0  0  0
   18.3191   19.4932   21.0300 H   0  0  0  0  0  0  0  0  0  0  0  0
   18.9244   20.7031   22.1798 H   0  0  0  0  0  0  0  0  0  0  0  0
   17.3363   18.1235   22.8050 O   0  0  0  0  0  0  0  0  0  0  0  0
   16.6909   18.8612   22.7746 H   0  0  0  0  0  0  0  0  0  0  0  0
  1  2  1  0  0  0  0
  1  3  1  0  0  0  0
  1  4  1  0  0  0  0
  4  5  1  0  0  0  0
  4  6  1  0  0  0  0
  4  7  1  0  0  0  0
  7  8  1  0  0  0  0
  7  9  1  0  0  0  0
  7 10  1  0  0  0  0
 10 11  1  0  0  0  0
  1 12  1  0  0  0  0
 10 12  1  0  0  0  0
 12 13  1  0  0  0  0
 12 14  1  0  0  0  0
 10 15  1  0  0  0  0
 15 16  1  0  0  0  0
M  END
> <VConfSearch Rank>
563

> <Conf_Id>
33

> <Delta U+W>
0.015

> <U+W>
3.025

> <U>
5.843

> <W>
-2.819

> <W(PB)>
-4.568

> <W(SA)>
1.750

> <Valence>
13.789

> <Coulomb>
-8.574

> <VdW>
0.628

> <VdW6>
-3.284

> <VdW12>
3.913

> <Bond>
0.054

> <Angle>
4.033

> <Pdih>
9.702

> <Idih>
0.000

> <Tether>
0.000

$$$$
VeraChem MOL file


 16 16  0  0  0  0  0  0  0  0999 V2000     
   19.8833   17.4570   22.7053 C   0  0  0  0  0  0  0  0  0  0  0  0
   19.5920   17.2046   23.7342 H   0  0  0  0  0  0  0  0  0  0  0  0
   20.5168   16.6422   22.3289 H   0  0  0  0  0  0  0  0  0  0  0  0
   20.6277   18.8100   22.6871 C   0  0  0  0  0  0  0  0  0  0  0  0
   20.6977   19.2119   23.7073 H   0  0  0  0  0  0  0  0  0  0  0  0
   21.6504   18.7031   22.3002 H   0  0  0  0  0  0  0  0  0  0  0  0
   19.7941   19.7563   21.7973 C   0  0  0  0  0  0  0  0  0  0  0  0
   20.2197   19.7781   20.7853 H   0  0  0  0  0  0  0  0  0  0  0  0
   19.7856   20.7862   22.1784 H   0  0  0  0  0  0  0  0  0  0  0  0
   18.3863   19.1488   21.7328 C   0  0  0  0  0  0  0  0  0  0  0  0
   17.8709   19.4201   20.8001 H   0  0  0  0  0  0  0  0  0  0  0  0
   18.6283   17.6363   21.8248 C   0  0  0  0  0  0  0  0  0  0  0  0
   17.7583   17.0994   22.2259 H   0  0  0  0  0  0  0  0  0  0  0  0
   18.8274   17.2451   20.8183 H   0  0  0  0  0  0  0  0  0  0  0  0
   17.6415   19.5731   22.8651 O   0  0  0  0  0  0  0  0  0  0  0  0
   18.1717   19.2916   23.6389 H   0  0  0  0  0  0  0  0  0  0  0  0
  1  2  1  0  0  0  0
  1  3  1  0  0  0  0
  1  4  1  0  0  0  0
  4  5  1  0  0  0  0
  4  6  1  0  0  0  0
  4  7  1  0  0  0  0
  7  8  1  0  0  0  0
  7  9  1  0  0  0  0
  7 10  1  0  0  0  0
 10 11  1  0  0  0  0
  1 12  1  0  0  0  0
 10 12  1  0  0  0  0
 12 13  1  0  0  0  0
 12 14  1  0  0  0  0
 10 15  1  0  0  0  0
 15 16  1  0  0  0  0
M  END
> <VConfSearch Rank>
564

> <Conf_Id>
20

> <Delta U+W>
-0.483

> <U+W>
2.527

> <U>
4.508

> <W>
-1.981

> <W(PB)>
-3.712

> <W(SA)>
1.732

> <Valence>
14.705

> <Coulomb>
-10.687

> <VdW>
0.490

> <VdW6>
-3.745

> <VdW12>
4.235

> <Bond>
0.068

> <Angle>
3.901

> <Pdih>
10.737

> <Idih>
0.000

> <Tether>
0.000

$$$$
VeraChem MOL file


 16 16  0  0  0  0  0  0  0  0999 V2000     
   20.5791   19.2418   21.9270 C   0  0  0  0  0  0  0  0  0  0  0  0
   20.7649   19.9662   22.7322 H   0  0  0  0  0  0  0  0  0  0  0  0
   21.4100   19.3025   21.2110 H   0  0  0  0  0  0  0  0  0  0  0  0
   19.2209   19.5348   21.2749 C   0  0  0  0  0  0  0  0  0  0  0  0
   19.0334   20.6116   21.1652 H   0  0  0  0  0  0  0  0  0  0  0  0
   19.1833   19.0761   20.2770 H   0  0  0  0  0  0  0  0  0  0  0  0
   18.1966   18.8530   22.2004 C   0  0  0  0  0  0  0  0  0  0  0  0
   17.3049   18.5337   21.6457 H   0  0  0  0  0  0  0  0  0  0  0  0
   17.8760   19.5643   22.9739 H   0  0  0  0  0  0  0  0  0  0  0  0
   18.9234   17.6538   22.8449 C   0  0  0  0  0  0  0  0  0  0  0  0
   18.5671   16.7138   22.3988 H   0  0  0  0  0  0  0  0  0  0  0  0
   20.4224   17.8325   22.5273 C   0  0  0  0  0  0  0  0  0  0  0  0
   21.0553   17.6984   23.4146 H   0  0  0  0  0  0  0  0  0  0  0  0
   20.7233   17.0808   21.7861 H   0  0  0  0  0  0  0  0  0  0  0  0
   18.7168   17.6533   24.2525 O   0  0  0  0  0  0  0  0  0  0  0  0
   17.7523   17.5487   24.3951 H   0  0  0  0  0  0  0  0  0  0  0  0
  1  2  1  0  0  0  0
  1  3  1  0  0  0  0
  1  4  1  0  0  0  0
  4  5  1  0  0  0  0
  4  6  1  0  0  0  0
  4  7  1  0  0  0  0
  7  8  1  0  0  0  0
  7  9  1  0  0  0  0
  7 10  1  0  0  0  0
 10 11  1  0  0  0  0
  1 12  1  0  0  0  0
 10 12  1  0  0  0  0
 12 13  1  0  0  0  0
 12 14  1  0  0  0  0
 10 15  1  0  0  0  0
 15 16  1  0  0  0  0
M  END
> <VConfSearch Rank>
565

> <Conf_Id>
59

> <Delta U+W>
0.000

> <U+W>
3.010

> <U>
5.843

> <W>
-2.833

> <W(PB)>
-4.568

> <W(SA)>
1.735

> <Valence>
13.789

> <Coulomb>
-8.574

> <VdW>
0.628

> <VdW6>
-3.284

> <VdW12>
3.912

> <Bond>
0.054

> <Angle>
4.034

> <Pdih>
9.702

> <Idih>
0.000

> <Tether>
0.000

$$$$
VeraChem MOL file


 16 16  0  0  0  0  0  0  0  0999 V2000     
   18.5178   19.3682   21.5073 C   0  0  0  0  0  0  0  0  0  0  0  0
   18.5003   19.9819   20.5964 H   0  0  0  0  0  0  0  0  0  0  0  0
   17.4813   19.2159   21.8390 H   0  0  0  0  0  0  0  0  0  0  0  0
   19.3301   20.0198   22.6348 C   0  0  0  0  0  0  0  0  0  0  0  0
   20.2288   20.4930   22.2152 H   0  0  0  0  0  0  0  0  0  0  0  0
   18.7580   20.7863   23.1752 H   0  0  0  0  0  0  0  0  0  0  0  0
   19.7414   18.8453   23.5417 C   0  0  0  0  0  0  0  0  0  0  0  0
   18.9752   18.6888   24.3121 H   0  0  0  0  0  0  0  0  0  0  0  0
   20.6931   19.0431   24.0528 H   0  0  0  0  0  0  0  0  0  0  0  0
   19.8100   17.5960   22.6393 C   0  0  0  0  0  0  0  0  0  0  0  0
   19.2162   16.7882   23.0914 H   0  0  0  0  0  0  0  0  0  0  0  0
   19.1985   18.0055   21.2828 C   0  0  0  0  0  0  0  0  0  0  0  0
   19.9879   18.1140   20.5266 H   0  0  0  0  0  0  0  0  0  0  0  0
   18.4843   17.2555   20.9194 H   0  0  0  0  0  0  0  0  0  0  0  0
   21.1624   17.1900   22.4656 O   0  0  0  0  0  0  0  0  0  0  0  0
   21.1470   16.4045   21.8788 H   0  0  0  0  0  0  0  0  0  0  0  0
  1  2  1  0  0  0  0
  1  3  1  0  0  0  0
  1  4  1  0  0  0  0
  4  5  1  0  0  0  0
  4  6  1  0  0  0  0
  4  7  1  0  0  0  0
  7  8  1  0  0  0  0
  7  9  1  0  0  0  0
  7 10  1  0  0  0  0
 10 11  1  0  0  0  0
  1 12  1  0  0  0  0
 10 12  1  0  0  0  0
 12 13  1  0  0  0  0
 12 14  1  0  0  0  0
 10 15  1  0  0  0  0
 15 16  1  0  0  0  0
M  END
> <VConfSearch Rank>
566

> <Conf_Id>
33

> <Delta U+W>
0.015

> <U+W>
3.025

> <U>
5.843

> <W>
-2.819

> <W(PB)>
-4.568

> <W(SA)>
1.750

> <Valence>
13.789

> <Coulomb>
-8.574

> <VdW>
0.628

> <VdW6>
-3.284

> <VdW12>
3.913

> <Bond>
0.054

> <Angle>
4.033

> <Pdih>
9.702

> <Idih>
0.000

> <Tether>
0.000

$$$$
VeraChem MOL file


 16 16  0  0  0  0  0  0  0  0999 V2000     
   19.3067   17.4269   22.8743 C   0  0  0  0  0  0  0  0  0  0  0  0
   18.9536   17.4789   23.9134 H   0  0  0  0  0  0  0  0  0  0  0  0
   19.4876   16.3698   22.6362 H   0  0  0  0  0  0  0  0  0  0  0  0
   20.5886   18.2728   22.7123 C   0  0  0  0  0  0  0  0  0  0  0  0
   20.8564   18.7333   23.6733 H   0  0  0  0  0  0  0  0  0  0  0  0
   21.4398   17.6583   22.3885 H   0  0  0  0  0  0  0  0  0  0  0  0
   20.2641   19.3642   21.6702 C   0  0  0  0  0  0  0  0  0  0  0  0
   20.6310   19.0505   20.6841 H   0  0  0  0  0  0  0  0  0  0  0  0
   20.7373   20.3251   21.9127 H   0  0  0  0  0  0  0  0  0  0  0  0
   18.7335   19.4655   21.6233 C   0  0  0  0  0  0  0  0  0  0  0  0
   18.3809   19.8122   20.6413 H   0  0  0  0  0  0  0  0  0  0  0  0
   18.2561   18.0382   21.9230 C   0  0  0  0  0  0  0  0  0  0  0  0
   17.2452   18.0191   22.3518 H   0  0  0  0  0  0  0  0  0  0  0  0
   18.2324   17.4660   20.9862 H   0  0  0  0  0  0  0  0  0  0  0  0
   18.2903   20.3335   22.6562 O   0  0  0  0  0  0  0  0  0  0  0  0
   18.6482   19.9493   23.4830 H   0  0  0  0  0  0  0  0  0  0  0  0
  1  2  1  0  0  0  0
  1  3  1  0  0  0  0
  1  4  1  0  0  0  0
  4  5  1  0  0  0  0
  4  6  1  0  0  0  0
  4  7  1  0  0  0  0
  7  8  1  0  0  0  0
  7  9  1  0  0  0  0
  7 10  1  0  0  0  0
 10 11  1  0  0  0  0
  1 12  1  0  0  0  0
 10 12  1  0  0  0  0
 12 13  1  0  0  0  0
 12 14  1  0  0  0  0
 10 15  1  0  0  0  0
 15 16  1  0  0  0  0
M  END
> <VConfSearch Rank>
567

> <Conf_Id>
20

> <Delta U+W>
-0.483

> <U+W>
2.527

> <U>
4.508

> <W>
-1.981

> <W(PB)>
-3.712

> <W(SA)>
1.732

> <Valence>
14.705

> <Coulomb>
-10.687

> <VdW>
0.490

> <VdW6>
-3.745

> <VdW12>
4.235

> <Bond>
0.068

> <Angle>
3.901

> <Pdih>
10.737

> <Idih>
0.000

> <Tether>
0.000

$$$$
VeraChem MOL file


 16 16  0  0  0  0  0  0  0  0999 V2000     
   19.8101   18.9359   23.6422 C   0  0  0  0  0  0  0  0  0  0  0  0
   18.9015   18.9443   24.2602 H   0  0  0  0  0  0  0  0  0  0  0  0
   20.6688   19.1597   24.2896 H   0  0  0  0  0  0  0  0  0  0  0  0
   19.6617   19.9453   22.4956 C   0  0  0  0  0  0  0  0  0  0  0  0
   19.1651   20.8714   22.8157 H   0  0  0  0  0  0  0  0  0  0  0  0
   20.6540   20.2060   22.1018 H   0  0  0  0  0  0  0  0  0  0  0  0
   18.8571   19.1900   21.4219 C   0  0  0  0  0  0  0  0  0  0  0  0
   19.1026   19.5453   20.4128 H   0  0  0  0  0  0  0  0  0  0  0  0
   17.7841   19.3579   21.5871 H   0  0  0  0  0  0  0  0  0  0  0  0
   19.1973   17.6947   21.5952 C   0  0  0  0  0  0  0  0  0  0  0  0
   19.8583   17.3624   20.7815 H   0  0  0  0  0  0  0  0  0  0  0  0
   19.9434   17.5720   22.9399 C   0  0  0  0  0  0  0  0  0  0  0  0
   19.5500   16.7569   23.5619 H   0  0  0  0  0  0  0  0  0  0  0  0
   21.0025   17.3605   22.7436 H   0  0  0  0  0  0  0  0  0  0  0  0
   18.0046   16.9199   21.6234 O   0  0  0  0  0  0  0  0  0  0  0  0
   17.5685   17.0433   20.7538 H   0  0  0  0  0  0  0  0  0  0  0  0
  1  2  1  0  0  0  0
  1  3  1  0  0  0  0
  1  4  1  0  0  0  0
  4  5  1  0  0  0  0
  4  6  1  0  0  0  0
  4  7  1  0  0  0  0
  7  8  1  0  0  0  0
  7  9  1  0  0  0  0
  7 10  1  0  0  0  0
 10 11  1  0  0  0  0
  1 12  1  0  0  0  0
 10 12  1  0  0  0  0
 12 13  1  0  0  0  0
 12 14  1  0  0  0  0
 10 15  1  0  0  0  0
 15 16  1  0  0  0  0
M  END
> <VConfSearch Rank>
568

> <Conf_Id>
59

> <Delta U+W>
0.000

> <U+W>
3.010

> <U>
5.843

> <W>
-2.833

> <W(PB)>
-4.568

> <W(SA)>
1.735

> <Valence>
13.789

> <Coulomb>
-8.574

> <VdW>
0.628

> <VdW6>
-3.284

> <VdW12>
3.912

> <Bond>
0.054

> <Angle>
4.034

> <Pdih>
9.702

> <Idih>
0.000

> <Tether>
0.000

$$$$
VeraChem MOL file


 16 16  0  0  0  0  0  0  0  0999 V2000     
   19.9300   17.2648   22.4210 C   0  0  0  0  0  0  0  0  0  0  0  0
   20.8057   16.6619   22.1448 H   0  0  0  0  0  0  0  0  0  0  0  0
   19.2928   16.6620   23.0831 H   0  0  0  0  0  0  0  0  0  0  0  0
   19.1217   17.7157   21.1967 C   0  0  0  0  0  0  0  0  0  0  0  0
   19.8078   17.9947   20.3848 H   0  0  0  0  0  0  0  0  0  0  0  0
   18.4500   16.9301   20.8249 H   0  0  0  0  0  0  0  0  0  0  0  0
   18.3576   18.9631   21.6776 C   0  0  0  0  0  0  0  0  0  0  0  0
   17.3858   18.6633   22.0909 H   0  0  0  0  0  0  0  0  0  0  0  0
   18.1680   19.6638   20.8535 H   0  0  0  0  0  0  0  0  0  0  0  0
   19.2080   19.5946   22.7991 C   0  0  0  0  0  0  0  0  0  0  0  0
   18.5768   19.7600   23.6844 H   0  0  0  0  0  0  0  0  0  0  0  0
   20.3206   18.5764   23.1266 C   0  0  0  0  0  0  0  0  0  0  0  0
   21.2849   18.9269   22.7340 H   0  0  0  0  0  0  0  0  0  0  0  0
   20.4298   18.4323   24.2092 H   0  0  0  0  0  0  0  0  0  0  0  0
   19.7788   20.8185   22.3519 O   0  0  0  0  0  0  0  0  0  0  0  0
   20.3141   21.1676   23.0957 H   0  0  0  0  0  0  0  0  0  0  0  0
  1  2  1  0  0  0  0
  1  3  1  0  0  0  0
  1  4  1  0  0  0  0
  4  5  1  0  0  0  0
  4  6  1  0  0  0  0
  4  7  1  0  0  0  0
  7  8  1  0  0  0  0
  7  9  1  0  0  0  0
  7 10  1  0  0  0  0
 10 11  1  0  0  0  0
  1 12  1  0  0  0  0
 10 12  1  0  0  0  0
 12 13  1  0  0  0  0
 12 14  1  0  0  0  0
 10 15  1  0  0  0  0
 15 16  1  0  0  0  0
M  END
> <VConfSearch Rank>
569

> <Conf_Id>
33

> <Delta U+W>
0.015

> <U+W>
3.025

> <U>
5.843

> <W>
-2.819

> <W(PB)>
-4.568

> <W(SA)>
1.750

> <Valence>
13.789

> <Coulomb>
-8.574

> <VdW>
0.628

> <VdW6>
-3.284

> <VdW12>
3.913

> <Bond>
0.054

> <Angle>
4.033

> <Pdih>
9.702

> <Idih>
0.000

> <Tether>
0.000

$$$$
VeraChem MOL file


 16 16  0  0  0  0  0  0  0  0999 V2000     
   18.8653   17.9303   23.2874 C   0  0  0  0  0  0  0  0  0  0  0  0
   18.7877   16.8471   23.1201 H   0  0  0  0  0  0  0  0  0  0  0  0
   18.4976   18.1380   24.3016 H   0  0  0  0  0  0  0  0  0  0  0  0
   18.0449   18.6868   22.2199 C   0  0  0  0  0  0  0  0  0  0  0  0
   17.5693   17.9697   21.5365 H   0  0  0  0  0  0  0  0  0  0  0  0
   17.2486   19.2911   22.6758 H   0  0  0  0  0  0  0  0  0  0  0  0
   19.0438   19.5759   21.4491 C   0  0  0  0  0  0  0  0  0  0  0  0
   19.0142   20.5963   21.8533 H   0  0  0  0  0  0  0  0  0  0  0  0
   18.8088   19.6338   20.3779 H   0  0  0  0  0  0  0  0  0  0  0  0
   20.4330   18.9774   21.7079 C   0  0  0  0  0  0  0  0  0  0  0  0
   21.2211   19.7415   21.6434 H   0  0  0  0  0  0  0  0  0  0  0  0
   20.3290   18.3916   23.1224 C   0  0  0  0  0  0  0  0  0  0  0  0
   21.0440   17.5747   23.2880 H   0  0  0  0  0  0  0  0  0  0  0  0
   20.5492   19.1815   23.8526 H   0  0  0  0  0  0  0  0  0  0  0  0
   20.6693   17.9264   20.7826 O   0  0  0  0  0  0  0  0  0  0  0  0
   19.9261   17.3017   20.9113 H   0  0  0  0  0  0  0  0  0  0  0  0
  1  2  1  0  0  0  0
  1  3  1  0  0  0  0
  1  4  1  0  0  0  0
  4  5  1  0  0  0  0
  4  6  1  0  0  0  0
  4  7  1  0  0  0  0
  7  8  1  0  0  0  0
  7  9  1  0  0  0  0
  7 10  1  0  0  0  0
 10 11  1  0  0  0  0
  1 12  1  0  0  0  0
 10 12  1  0  0  0  0
 12 13  1  0  0  0  0
 12 14  1  0  0  0  0
 10 15  1  0  0  0  0
 15 16  1  0  0  0  0
M  END
> <VConfSearch Rank>
570

> <Conf_Id>
20

> <Delta U+W>
-0.483

> <U+W>
2.527

> <U>
4.508

> <W>
-1.981

> <W(PB)>
-3.712

> <W(SA)>
1.732

> <Valence>
14.705

> <Coulomb>
-10.687

> <VdW>
0.490

> <VdW6>
-3.745

> <VdW12>
4.235

> <Bond>
0.068

> <Angle>
3.901

> <Pdih>
10.737

> <Idih>
0.000

> <Tether>
0.000

$$$$
VeraChem MOL file


 16 16  0  0  0  0  0  0  0  0999 V2000     
   17.9998   19.0725   22.3142 C   0  0  0  0  0  0  0  0  0  0  0  0
   18.1040   20.1426   22.0868 H   0  0  0  0  0  0  0  0  0  0  0  0
   16.9290   18.8390   22.3879 H   0  0  0  0  0  0  0  0  0  0  0  0
   18.7615   18.7447   23.6058 C   0  0  0  0  0  0  0  0  0  0  0  0
   18.6535   19.5307   24.3656 H   0  0  0  0  0  0  0  0  0  0  0  0
   18.3838   17.8035   24.0289 H   0  0  0  0  0  0  0  0  0  0  0  0
   20.2221   18.5636   23.1537 C   0  0  0  0  0  0  0  0  0  0  0  0
   20.7591   17.8611   23.8041 H   0  0  0  0  0  0  0  0  0  0  0  0
   20.7399   19.5312   23.2018 H   0  0  0  0  0  0  0  0  0  0  0  0
   20.1668   18.0586   21.6965 C   0  0  0  0  0  0  0  0  0  0  0  0
   20.4285   16.9910   21.6579 H   0  0  0  0  0  0  0  0  0  0  0  0
   18.7087   18.2430   21.2277 C   0  0  0  0  0  0  0  0  0  0  0  0
   18.6452   18.7269   20.2439 H   0  0  0  0  0  0  0  0  0  0  0  0
   18.2315   17.2578   21.1464 H   0  0  0  0  0  0  0  0  0  0  0  0
   21.0455   18.8221   20.8786 O   0  0  0  0  0  0  0  0  0  0  0  0
   21.9507   18.6770   21.2264 H   0  0  0  0  0  0  0  0  0  0  0  0
  1  2  1  0  0  0  0
  1  3  1  0  0  0  0
  1  4  1  0  0  0  0
  4  5  1  0  0  0  0
  4  6  1  0  0  0  0
  4  7  1  0  0  0  0
  7  8  1  0  0  0  0
  7  9  1  0  0  0  0
  7 10  1  0  0  0  0
 10 11  1  0  0  0  0
  1 12  1  0  0  0  0
 10 12  1  0  0  0  0
 12 13  1  0  0  0  0
 12 14  1  0  0  0  0
 10 15  1  0  0  0  0
 15 16  1  0  0  0  0
M  END
> <VConfSearch Rank>
571

> <Conf_Id>
59

> <Delta U+W>
0.000

> <U+W>
3.010

> <U>
5.843

> <W>
-2.833

> <W(PB)>
-4.568

> <W(SA)>
1.735

> <Valence>
13.789

> <Coulomb>
-8.574

> <VdW>
0.628

> <VdW6>
-3.284

> <VdW12>
3.912

> <Bond>
0.054

> <Angle>
4.034

> <Pdih>
9.702

> <Idih>
0.000

> <Tether>
0.000

$$$$
VeraChem MOL file


 16 16  0  0  0  0  0  0  0  0999 V2000     
   20.2215   18.0505   23.3661 C   0  0  0  0  0  0  0  0  0  0  0  0
   21.1333   17.4562   23.5151 H   0  0  0  0  0  0  0  0  0  0  0  0
   19.8707   18.3938   24.3493 H   0  0  0  0  0  0  0  0  0  0  0  0
   19.1104   17.2511   22.6717 C   0  0  0  0  0  0  0  0  0  0  0  0
   19.5474   16.6191   21.8860 H   0  0  0  0  0  0  0  0  0  0  0  0
   18.5614   16.6033   23.3686 H   0  0  0  0  0  0  0  0  0  0  0  0
   18.2087   18.3219   22.0303 C   0  0  0  0  0  0  0  0  0  0  0  0
   17.4241   18.6159   22.7396 H   0  0  0  0  0  0  0  0  0  0  0  0
   17.7155   17.9452   21.1243 H   0  0  0  0  0  0  0  0  0  0  0  0
   19.1095   19.5408   21.7430 C   0  0  0  0  0  0  0  0  0  0  0  0
   18.6450   20.4436   22.1658 H   0  0  0  0  0  0  0  0  0  0  0  0
   20.4555   19.2615   22.4445 C   0  0  0  0  0  0  0  0  0  0  0  0
   21.2262   19.0102   21.7031 H   0  0  0  0  0  0  0  0  0  0  0  0
   20.8043   20.1348   23.0106 H   0  0  0  0  0  0  0  0  0  0  0  0
   19.3071   19.6853   20.3416 O   0  0  0  0  0  0  0  0  0  0  0  0
   19.8919   20.4628   20.2187 H   0  0  0  0  0  0  0  0  0  0  0  0
  1  2  1  0  0  0  0
  1  3  1  0  0  0  0
  1  4  1  0  0  0  0
  4  5  1  0  0  0  0
  4  6  1  0  0  0  0
  4  7  1  0  0  0  0
  7  8  1  0  0  0  0
  7  9  1  0  0  0  0
  7 10  1  0  0  0  0
 10 11  1  0  0  0  0
  1 12  1  0  0  0  0
 10 12  1  0  0  0  0
 12 13  1  0  0  0  0
 12 14  1  0  0  0  0
 10 15  1  0  0  0  0
 15 16  1  0  0  0  0
M  END
> <VConfSearch Rank>
572

> <Conf_Id>
33

> <Delta U+W>
0.015

> <U+W>
3.025

> <U>
5.843

> <W>
-2.819

> <W(PB)>
-4.568

> <W(SA)>
1.750

> <Valence>
13.789

> <Coulomb>
-8.574

> <VdW>
0.628

> <VdW6>
-3.284

> <VdW12>
3.913

> <Bond>
0.054

> <Angle>
4.033

> <Pdih>
9.702

> <Idih>
0.000

> <Tether>
0.000

$$$$
VeraChem MOL file


 16 16  0  0  0  0  0  0  0  0999 V2000     
   18.4853   17.7653   22.7814 C   0  0  0  0  0  0  0  0  0  0  0  0
   17.4405   18.0054   22.5406 H   0  0  0  0  0  0  0  0  0  0  0  0
   18.4851   16.8528   23.3932 H   0  0  0  0  0  0  0  0  0  0  0  0
   19.1377   18.9494   23.5279 C   0  0  0  0  0  0  0  0  0  0  0  0
   18.4084   19.7622   23.6493 H   0  0  0  0  0  0  0  0  0  0  0  0
   19.4797   18.6561   24.5299 H   0  0  0  0  0  0  0  0  0  0  0  0
   20.3197   19.4200   22.6539 C   0  0  0  0  0  0  0  0  0  0  0  0
   21.2522   18.9778   23.0290 H   0  0  0  0  0  0  0  0  0  0  0  0
   20.4386   20.5116   22.6672 H   0  0  0  0  0  0  0  0  0  0  0  0
   20.0456   18.8824   21.2429 C   0  0  0  0  0  0  0  0  0  0  0  0
   20.9781   18.7220   20.6828 H   0  0  0  0  0  0  0  0  0  0  0  0
   19.2984   17.5640   21.4849 C   0  0  0  0  0  0  0  0  0  0  0  0
   18.6628   17.2839   20.6343 H   0  0  0  0  0  0  0  0  0  0  0  0
   20.0318   16.7604   21.6329 H   0  0  0  0  0  0  0  0  0  0  0  0
   19.1911   19.7851   20.5563 O   0  0  0  0  0  0  0  0  0  0  0  0
   18.3966   19.8652   21.1233 H   0  0  0  0  0  0  0  0  0  0  0  0
  1  2  1  0  0  0  0
  1  3  1  0  0  0  0
  1  4  1  0  0  0  0
  4  5  1  0  0  0  0
  4  6  1  0  0  0  0
  4  7  1  0  0  0  0
  7  8  1  0  0  0  0
  7  9  1  0  0  0  0
  7 10  1  0  0  0  0
 10 11  1  0  0  0  0
  1 12  1  0  0  0  0
 10 12  1  0  0  0  0
 12 13  1  0  0  0  0
 12 14  1  0  0  0  0
 10 15  1  0  0  0  0
 15 16  1  0  0  0  0
M  END
> <VConfSearch Rank>
573

> <Conf_Id>
20

> <Delta U+W>
-0.483

> <U+W>
2.527

> <U>
4.508

> <W>
-1.981

> <W(PB)>
-3.712

> <W(SA)>
1.732

> <Valence>
14.705

> <Coulomb>
-10.687

> <VdW>
0.490

> <VdW6>
-3.745

> <VdW12>
4.235

> <Bond>
0.068

> <Angle>
3.901

> <Pdih>
10.737

> <Idih>
0.000

> <Tether>
0.000

$$$$
VeraChem MOL file


 16 16  0  0  0  0  0  0  0  0999 V2000     
   18.3594   19.1711   21.4564 C   0  0  0  0  0  0  0  0  0  0  0  0
   18.8474   19.2687   20.4766 H   0  0  0  0  0  0  0  0  0  0  0  0
   17.3229   19.5221   21.3611 H   0  0  0  0  0  0  0  0  0  0  0  0
   19.1518   19.9616   22.5067 C   0  0  0  0  0  0  0  0  0  0  0  0
   19.5233   20.9190   22.1166 H   0  0  0  0  0  0  0  0  0  0  0  0
   18.5102   20.1698   23.3742 H   0  0  0  0  0  0  0  0  0  0  0  0
   20.2933   19.0140   22.9185 C   0  0  0  0  0  0  0  0  0  0  0  0
   20.6089   19.1926   23.9545 H   0  0  0  0  0  0  0  0  0  0  0  0
   21.1610   19.1861   22.2671 H   0  0  0  0  0  0  0  0  0  0  0  0
   19.7577   17.5793   22.7279 C   0  0  0  0  0  0  0  0  0  0  0  0
   19.5460   17.1236   23.7062 H   0  0  0  0  0  0  0  0  0  0  0  0
   18.4433   17.7085   21.9308 C   0  0  0  0  0  0  0  0  0  0  0  0
   18.3965   17.0067   21.0875 H   0  0  0  0  0  0  0  0  0  0  0  0
   17.5982   17.4879   22.5958 H   0  0  0  0  0  0  0  0  0  0  0  0
   20.6975   16.7970   22.0009 O   0  0  0  0  0  0  0  0  0  0  0  0
   21.5119   16.7576   22.5456 H   0  0  0  0  0  0  0  0  0  0  0  0
  1  2  1  0  0  0  0
  1  3  1  0  0  0  0
  1  4  1  0  0  0  0
  4  5  1  0  0  0  0
  4  6  1  0  0  0  0
  4  7  1  0  0  0  0
  7  8  1  0  0  0  0
  7  9  1  0  0  0  0
  7 10  1  0  0  0  0
 10 11  1  0  0  0  0
  1 12  1  0  0  0  0
 10 12  1  0  0  0  0
 12 13  1  0  0  0  0
 12 14  1  0  0  0  0
 10 15  1  0  0  0  0
 15 16  1  0  0  0  0
M  END
> <VConfSearch Rank>
574

> <Conf_Id>
59

> <Delta U+W>
0.000

> <U+W>
3.010

> <U>
5.843

> <W>
-2.833

> <W(PB)>
-4.568

> <W(SA)>
1.735

> <Valence>
13.789

> <Coulomb>
-8.574

> <VdW>
0.628

> <VdW6>
-3.284

> <VdW12>
3.912

> <Bond>
0.054

> <Angle>
4.034

> <Pdih>
9.702

> <Idih>
0.000

> <Tether>
0.000

$$$$
VeraChem MOL file


 16 16  0  0  0  0  0  0  0  0999 V2000     
   18.0723   18.5621   21.8995 C   0  0  0  0  0  0  0  0  0  0  0  0
   17.3559   19.1391   21.2990 H   0  0  0  0  0  0  0  0  0  0  0  0
   17.5952   17.6148   22.1871 H   0  0  0  0  0  0  0  0  0  0  0  0
   18.5210   19.3172   23.1582 C   0  0  0  0  0  0  0  0  0  0  0  0
   18.6608   20.3807   22.9193 H   0  0  0  0  0  0  0  0  0  0  0  0
   17.7911   19.2411   23.9756 H   0  0  0  0  0  0  0  0  0  0  0  0
   19.8783   18.6876   23.5218 C   0  0  0  0  0  0  0  0  0  0  0  0
   19.7210   17.8398   24.2011 H   0  0  0  0  0  0  0  0  0  0  0  0
   20.5339   19.4064   24.0313 H   0  0  0  0  0  0  0  0  0  0  0  0
   20.4900   18.1694   22.2038 C   0  0  0  0  0  0  0  0  0  0  0  0
   20.7897   17.1189   22.3308 H   0  0  0  0  0  0  0  0  0  0  0  0
   19.3794   18.2766   21.1376 C   0  0  0  0  0  0  0  0  0  0  0  0
   19.5892   19.1087   20.4517 H   0  0  0  0  0  0  0  0  0  0  0  0
   19.3034   17.3587   20.5405 H   0  0  0  0  0  0  0  0  0  0  0  0
   21.6058   18.9700   21.8326 O   0  0  0  0  0  0  0  0  0  0  0  0
   21.9456   18.6049   20.9884 H   0  0  0  0  0  0  0  0  0  0  0  0
  1  2  1  0  0  0  0
  1  3  1  0  0  0  0
  1  4  1  0  0  0  0
  4  5  1  0  0  0  0
  4  6  1  0  0  0  0
  4  7  1  0  0  0  0
  7  8  1  0  0  0  0
  7  9  1  0  0  0  0
  7 10  1  0  0  0  0
 10 11  1  0  0  0  0
  1 12  1  0  0  0  0
 10 12  1  0  0  0  0
 12 13  1  0  0  0  0
 12 14  1  0  0  0  0
 10 15  1  0  0  0  0
 15 16  1  0  0  0  0
M  END
> <VConfSearch Rank>
575

> <Conf_Id>
33

> <Delta U+W>
0.015

> <U+W>
3.025

> <U>
5.843

> <W>
-2.819

> <W(PB)>
-4.568

> <W(SA)>
1.750

> <Valence>
13.789

> <Coulomb>
-8.574

> <VdW>
0.628

> <VdW6>
-3.284

> <VdW12>
3.913

> <Bond>
0.054

> <Angle>
4.033

> <Pdih>
9.702

> <Idih>
0.000

> <Tether>
0.000

$$$$
VeraChem MOL file


 16 16  0  0  0  0  0  0  0  0999 V2000     
   18.2946   18.2411   22.9470 C   0  0  0  0  0  0  0  0  0  0  0  0
   17.9594   18.9770   23.6909 H   0  0  0  0  0  0  0  0  0  0  0  0
   17.5987   17.3917   22.9813 H   0  0  0  0  0  0  0  0  0  0  0  0
   19.7422   17.8020   23.2579 C   0  0  0  0  0  0  0  0  0  0  0  0
   20.1072   18.3246   24.1529 H   0  0  0  0  0  0  0  0  0  0  0  0
   19.8037   16.7228   23.4538 H   0  0  0  0  0  0  0  0  0  0  0  0
   20.5913   18.1921   22.0293 C   0  0  0  0  0  0  0  0  0  0  0  0
   20.7178   17.3171   21.3781 H   0  0  0  0  0  0  0  0  0  0  0  0
   21.5919   18.5467   22.3105 H   0  0  0  0  0  0  0  0  0  0  0  0
   19.7859   19.2604   21.2777 C   0  0  0  0  0  0  0  0  0  0  0  0
   20.0166   19.2593   20.2027 H   0  0  0  0  0  0  0  0  0  0  0  0
   18.3231   18.8789   21.5417 C   0  0  0  0  0  0  0  0  0  0  0  0
   17.6474   19.7409   21.4620 H   0  0  0  0  0  0  0  0  0  0  0  0
   18.0079   18.1373   20.7958 H   0  0  0  0  0  0  0  0  0  0  0  0
   20.0480   20.5331   21.8508 O   0  0  0  0  0  0  0  0  0  0  0  0
   19.8159   20.4388   22.7976 H   0  0  0  0  0  0  0  0  0  0  0  0
  1  2  1  0  0  0  0
  1  3  1  0  0  0  0
  1  4  1  0  0  0  0
  4  5  1  0  0  0  0
  4  6  1  0  0  0  0
  4  7  1  0  0  0  0
  7  8  1  0  0  0  0
  7  9  1  0  0  0  0
  7 10  1  0  0  0  0
 10 11  1  0  0  0  0
  1 12  1  0  0  0  0
 10 12  1  0  0  0  0
 12 13  1  0  0  0  0
 12 14  1  0  0  0  0
 10 15  1  0  0  0  0
 15 16  1  0  0  0  0
M  END
> <VConfSearch Rank>
576

> <Conf_Id>
20

> <Delta U+W>
-0.483

> <U+W>
2.527

> <U>
4.508

> <W>
-1.981

> <W(PB)>
-3.712

> <W(SA)>
1.732

> <Valence>
14.705

> <Coulomb>
-10.687

> <VdW>
0.490

> <VdW6>
-3.745

> <VdW12>
4.235

> <Bond>
0.068

> <Angle>
3.901

> <Pdih>
10.737

> <Idih>
0.000

> <Tether>
0.000

$$$$
VeraChem MOL file


 16 16  0  0  0  0  0  0  0  0999 V2000     
   20.7510   18.5866   21.8988 C   0  0  0  0  0  0  0  0  0  0  0  0
   20.7558   18.1589   20.8865 H   0  0  0  0  0  0  0  0  0  0  0  0
   21.7736   18.9050   22.1428 H   0  0  0  0  0  0  0  0  0  0  0  0
   20.2067   17.5509   22.8922 C   0  0  0  0  0  0  0  0  0  0  0  0
   20.5633   16.5350   22.6742 H   0  0  0  0  0  0  0  0  0  0  0  0
   20.5225   17.8146   23.9112 H   0  0  0  0  0  0  0  0  0  0  0  0
   18.6766   17.6729   22.7729 C   0  0  0  0  0  0  0  0  0  0  0  0
   18.1786   17.4100   23.7151 H   0  0  0  0  0  0  0  0  0  0  0  0
   18.3165   16.9835   21.9972 H   0  0  0  0  0  0  0  0  0  0  0  0
   18.3871   19.1333   22.3666 C   0  0  0  0  0  0  0  0  0  0  0  0
   17.9771   19.6881   23.2231 H   0  0  0  0  0  0  0  0  0  0  0  0
   19.7428   19.7488   21.9627 C   0  0  0  0  0  0  0  0  0  0  0  0
   19.6875   20.2889   21.0081 H   0  0  0  0  0  0  0  0  0  0  0  0
   20.0546   20.4651   22.7338 H   0  0  0  0  0  0  0  0  0  0  0  0
   17.4856   19.1673   21.2665 O   0  0  0  0  0  0  0  0  0  0  0  0
   16.6503   18.7564   21.5746 H   0  0  0  0  0  0  0  0  0  0  0  0
  1  2  1  0  0  0  0
  1  3  1  0  0  0  0
  1  4  1  0  0  0  0
  4  5  1  0  0  0  0
  4  6  1  0  0  0  0
  4  7  1  0  0  0  0
  7  8  1  0  0  0  0
  7  9  1  0  0  0  0
  7 10  1  0  0  0  0
 10 11  1  0  0  0  0
  1 12  1  0  0  0  0
 10 12  1  0  0  0  0
 12 13  1  0  0  0  0
 12 14  1  0  0  0  0
 10 15  1  0  0  0  0
 15 16  1  0  0  0  0
M  END
> <VConfSearch Rank>
577

> <Conf_Id>
59

> <Delta U+W>
0.000

> <U+W>
3.010

> <U>
5.843

> <W>
-2.833

> <W(PB)>
-4.568

> <W(SA)>
1.735

> <Valence>
13.789

> <Coulomb>
-8.574

> <VdW>
0.628

> <VdW6>
-3.284

> <VdW12>
3.912

> <Bond>
0.054

> <Angle>
4.034

> <Pdih>
9.702

> <Idih>
0.000

> <Tether>
0.000

$$$$
VeraChem MOL file


 16 16  0  0  0  0  0  0  0  0999 V2000     
   19.6067   17.3833   21.5670 C   0  0  0  0  0  0  0  0  0  0  0  0
   18.9869   16.6357   21.0533 H   0  0  0  0  0  0  0  0  0  0  0  0
   20.6617   17.1564   21.3590 H   0  0  0  0  0  0  0  0  0  0  0  0
   19.3704   17.3953   23.0834 C   0  0  0  0  0  0  0  0  0  0  0  0
   18.2994   17.2624   23.2904 H   0  0  0  0  0  0  0  0  0  0  0  0
   19.9223   16.5985   23.6004 H   0  0  0  0  0  0  0  0  0  0  0  0
   19.8115   18.8011   23.5309 C   0  0  0  0  0  0  0  0  0  0  0  0
   20.8776   18.7870   23.7923 H   0  0  0  0  0  0  0  0  0  0  0  0
   19.2552   19.1367   24.4163 H   0  0  0  0  0  0  0  0  0  0  0  0
   19.6027   19.7338   22.3200 C   0  0  0  0  0  0  0  0  0  0  0  0
   20.5287   20.2963   22.1308 H   0  0  0  0  0  0  0  0  0  0  0  0
   19.2845   18.8202   21.1175 C   0  0  0  0  0  0  0  0  0  0  0  0
   18.2193   18.8895   20.8582 H   0  0  0  0  0  0  0  0  0  0  0  0
   19.8664   19.1031   20.2309 H   0  0  0  0  0  0  0  0  0  0  0  0
   18.5166   20.6195   22.5645 O   0  0  0  0  0  0  0  0  0  0  0  0
   18.4227   21.1772   21.7635 H   0  0  0  0  0  0  0  0  0  0  0  0
  1  2  1  0  0  0  0
  1  3  1  0  0  0  0
  1  4  1  0  0  0  0
  4  5  1  0  0  0  0
  4  6  1  0  0  0  0
  4  7  1  0  0  0  0
  7  8  1  0  0  0  0
  7  9  1  0  0  0  0
  7 10  1  0  0  0  0
 10 11  1  0  0  0  0
  1 12  1  0  0  0  0
 10 12  1  0  0  0  0
 12 13  1  0  0  0  0
 12 14  1  0  0  0  0
 10 15  1  0  0  0  0
 15 16  1  0  0  0  0
M  END
> <VConfSearch Rank>
578

> <Conf_Id>
33

> <Delta U+W>
0.015

> <U+W>
3.025

> <U>
5.843

> <W>
-2.819

> <W(PB)>
-4.568

> <W(SA)>
1.750

> <Valence>
13.789

> <Coulomb>
-8.574

> <VdW>
0.628

> <VdW6>
-3.284

> <VdW12>
3.913

> <Bond>
0.054

> <Angle>
4.033

> <Pdih>
9.702

> <Idih>
0.000

> <Tether>
0.000

$$$$
VeraChem MOL file


 16 16  0  0  0  0  0  0  0  0999 V2000     
   20.5392   18.1088   22.6890 C   0  0  0  0  0  0  0  0  0  0  0  0
   20.5153   17.0310   22.9012 H   0  0  0  0  0  0  0  0  0  0  0  0
   21.5595   18.4649   22.8869 H   0  0  0  0  0  0  0  0  0  0  0  0
   19.5018   18.8405   23.5684 C   0  0  0  0  0  0  0  0  0  0  0  0
   18.9765   18.1169   24.2070 H   0  0  0  0  0  0  0  0  0  0  0  0
   19.9793   19.5800   24.2257 H   0  0  0  0  0  0  0  0  0  0  0  0
   18.5079   19.5178   22.6011 C   0  0  0  0  0  0  0  0  0  0  0  0
   18.7862   20.5715   22.4676 H   0  0  0  0  0  0  0  0  0  0  0  0
   17.4764   19.4897   22.9770 H   0  0  0  0  0  0  0  0  0  0  0  0
   18.6574   18.7890   21.2588 C   0  0  0  0  0  0  0  0  0  0  0  0
   18.4009   19.4427   20.4127 H   0  0  0  0  0  0  0  0  0  0  0  0
   20.1340   18.3726   21.2232 C   0  0  0  0  0  0  0  0  0  0  0  0
   20.3043   17.4985   20.5805 H   0  0  0  0  0  0  0  0  0  0  0  0
   20.7292   19.2034   20.8218 H   0  0  0  0  0  0  0  0  0  0  0  0
   17.8433   17.6254   21.2652 O   0  0  0  0  0  0  0  0  0  0  0  0
   18.1405   17.1108   22.0436 H   0  0  0  0  0  0  0  0  0  0  0  0
  1  2  1  0  0  0  0
  1  3  1  0  0  0  0
  1  4  1  0  0  0  0
  4  5  1  0  0  0  0
  4  6  1  0  0  0  0
  4  7  1  0  0  0  0
  7  8  1  0  0  0  0
  7  9  1  0  0  0  0
  7 10  1  0  0  0  0
 10 11  1  0  0  0  0
  1 12  1  0  0  0  0
 10 12  1  0  0  0  0
 12 13  1  0  0  0  0
 12 14  1  0  0  0  0
 10 15  1  0  0  0  0
 15 16  1  0  0  0  0
M  END
> <VConfSearch Rank>
579

> <Conf_Id>
20

> <Delta U+W>
-0.483

> <U+W>
2.527

> <U>
4.508

> <W>
-1.981

> <W(PB)>
-3.712

> <W(SA)>
1.732

> <Valence>
14.705

> <Coulomb>
-10.687

> <VdW>
0.490

> <VdW6>
-3.745

> <VdW12>
4.235

> <Bond>
0.068

> <Angle>
3.901

> <Pdih>
10.737

> <Idih>
0.000

> <Tether>
0.000

$$$$
VeraChem MOL file


 16 16  0  0  0  0  0  0  0  0999 V2000     
   19.3336   18.3843   23.7579 C   0  0  0  0  0  0  0  0  0  0  0  0
   19.6049   19.3686   24.1645 H   0  0  0  0  0  0  0  0  0  0  0  0
   19.1069   17.7151   24.5990 H   0  0  0  0  0  0  0  0  0  0  0  0
   20.4776   17.8570   22.8810 C   0  0  0  0  0  0  0  0  0  0  0  0
   21.4661   18.0759   23.3074 H   0  0  0  0  0  0  0  0  0  0  0  0
   20.3854   16.7677   22.7687 H   0  0  0  0  0  0  0  0  0  0  0  0
   20.2627   18.5412   21.5186 C   0  0  0  0  0  0  0  0  0  0  0  0
   20.6383   17.9209   20.6945 H   0  0  0  0  0  0  0  0  0  0  0  0
   20.8095   19.4938   21.5002 H   0  0  0  0  0  0  0  0  0  0  0  0
   18.7453   18.7931   21.3930 C   0  0  0  0  0  0  0  0  0  0  0  0
   18.3050   18.0878   20.6731 H   0  0  0  0  0  0  0  0  0  0  0  0
   18.1451   18.5358   22.7906 C   0  0  0  0  0  0  0  0  0  0  0  0
   17.4662   19.3389   23.1070 H   0  0  0  0  0  0  0  0  0  0  0  0
   17.5686   17.6019   22.7662 H   0  0  0  0  0  0  0  0  0  0  0  0
   18.5021   20.1369   20.9944 O   0  0  0  0  0  0  0  0  0  0  0  0
   18.9122   20.2467   20.1105 H   0  0  0  0  0  0  0  0  0  0  0  0
  1  2  1  0  0  0  0
  1  3  1  0  0  0  0
  1  4  1  0  0  0  0
  4  5  1  0  0  0  0
  4  6  1  0  0  0  0
  4  7  1  0  0  0  0
  7  8  1  0  0  0  0
  7  9  1  0  0  0  0
  7 10  1  0  0  0  0
 10 11  1  0  0  0  0
  1 12  1  0  0  0  0
 10 12  1  0  0  0  0
 12 13  1  0  0  0  0
 12 14  1  0  0  0  0
 10 15  1  0  0  0  0
 15 16  1  0  0  0  0
M  END
> <VConfSearch Rank>
580

> <Conf_Id>
59

> <Delta U+W>
0.000

> <U+W>
3.010

> <U>
5.843

> <W>
-2.833

> <W(PB)>
-4.568

> <W(SA)>
1.735

> <Valence>
13.789

> <Coulomb>
-8.574

> <VdW>
0.628

> <VdW6>
-3.284

> <VdW12>
3.912

> <Bond>
0.054

> <Angle>
4.034

> <Pdih>
9.702

> <Idih>
0.000

> <Tether>
0.000

$$$$
VeraChem MOL file


 16 16  0  0  0  0  0  0  0  0999 V2000     
   19.8977   18.6849   20.9298 C   0  0  0  0  0  0  0  0  0  0  0  0
   19.6404   18.2691   19.9461 H   0  0  0  0  0  0  0  0  0  0  0  0
   20.6569   19.4661   20.7847 H   0  0  0  0  0  0  0  0  0  0  0  0
   20.4336   17.6170   21.8932 C   0  0  0  0  0  0  0  0  0  0  0  0
   19.8608   16.6875   21.7681 H   0  0  0  0  0  0  0  0  0  0  0  0
   21.4952   17.3926   21.7223 H   0  0  0  0  0  0  0  0  0  0  0  0
   20.1740   18.1979   23.2954 C   0  0  0  0  0  0  0  0  0  0  0  0
   21.0423   18.7880   23.6163 H   0  0  0  0  0  0  0  0  0  0  0  0
   20.0161   17.4051   24.0387 H   0  0  0  0  0  0  0  0  0  0  0  0
   18.9521   19.1307   23.1657 C   0  0  0  0  0  0  0  0  0  0  0  0
   19.1962   20.1115   23.5993 H   0  0  0  0  0  0  0  0  0  0  0  0
   18.6744   19.2755   21.6545 C   0  0  0  0  0  0  0  0  0  0  0  0
   17.7772   18.7060   21.3761 H   0  0  0  0  0  0  0  0  0  0  0  0
   18.5091   20.3236   21.3734 H   0  0  0  0  0  0  0  0  0  0  0  0
   17.8259   18.5575   23.8191 O   0  0  0  0  0  0  0  0  0  0  0  0
   17.0808   19.1830   23.6959 H   0  0  0  0  0  0  0  0  0  0  0  0
  1  2  1  0  0  0  0
  1  3  1  0  0  0  0
  1  4  1  0  0  0  0
  4  5  1  0  0  0  0
  4  6  1  0  0  0  0
  4  7  1  0  0  0  0
  7  8  1  0  0  0  0
  7  9  1  0  0  0  0
  7 10  1  0  0  0  0
 10 11  1  0  0  0  0
  1 12  1  0  0  0  0
 10 12  1  0  0  0  0
 12 13  1  0  0  0  0
 12 14  1  0  0  0  0
 10 15  1  0  0  0  0
 15 16  1  0  0  0  0
M  END
> <VConfSearch Rank>
581

> <Conf_Id>
33

> <Delta U+W>
0.015

> <U+W>
3.025

> <U>
5.843

> <W>
-2.819

> <W(PB)>
-4.568

> <W(SA)>
1.750

> <Valence>
13.789

> <Coulomb>
-8.574

> <VdW>
0.628

> <VdW6>
-3.284

> <VdW12>
3.913

> <Bond>
0.054

> <Angle>
4.033

> <Pdih>
9.702

> <Idih>
0.000

> <Tether>
0.000

$$$$
VeraChem MOL file


 16 16  0  0  0  0  0  0  0  0999 V2000     
   19.3875   18.1201   23.5010 C   0  0  0  0  0  0  0  0  0  0  0  0
   19.2642   17.0298   23.5580 H   0  0  0  0  0  0  0  0  0  0  0  0
   19.5037   18.4965   24.5266 H   0  0  0  0  0  0  0  0  0  0  0  0
   18.1649   18.7511   22.7995 C   0  0  0  0  0  0  0  0  0  0  0  0
   17.4493   17.9662   22.5180 H   0  0  0  0  0  0  0  0  0  0  0  0
   17.6420   19.4583   23.4579 H   0  0  0  0  0  0  0  0  0  0  0  0
   18.7017   19.4604   21.5382 C   0  0  0  0  0  0  0  0  0  0  0  0
   18.8352   20.5300   21.7476 H   0  0  0  0  0  0  0  0  0  0  0  0
   18.0153   19.3700   20.6858 H   0  0  0  0  0  0  0  0  0  0  0  0
   20.0727   18.8344   21.2494 C   0  0  0  0  0  0  0  0  0  0  0  0
   20.7360   19.5371   20.7248 H   0  0  0  0  0  0  0  0  0  0  0  0
   20.6175   18.4730   22.6378 C   0  0  0  0  0  0  0  0  0  0  0  0
   21.3471   17.6532   22.5979 H   0  0  0  0  0  0  0  0  0  0  0  0
   21.1236   19.3504   23.0616 H   0  0  0  0  0  0  0  0  0  0  0  0
   19.8941   17.6457   20.4931 O   0  0  0  0  0  0  0  0  0  0  0  0
   19.2969   17.0877   21.0327 H   0  0  0  0  0  0  0  0  0  0  0  0
  1  2  1  0  0  0  0
  1  3  1  0  0  0  0
  1  4  1  0  0  0  0
  4  5  1  0  0  0  0
  4  6  1  0  0  0  0
  4  7  1  0  0  0  0
  7  8  1  0  0  0  0
  7  9  1  0  0  0  0
  7 10  1  0  0  0  0
 10 11  1  0  0  0  0
  1 12  1  0  0  0  0
 10 12  1  0  0  0  0
 12 13  1  0  0  0  0
 12 14  1  0  0  0  0
 10 15  1  0  0  0  0
 15 16  1  0  0  0  0
M  END
> <VConfSearch Rank>
582

> <Conf_Id>
20

> <Delta U+W>
-0.483

> <U+W>
2.527

> <U>
4.508

> <W>
-1.981

> <W(PB)>
-3.712

> <W(SA)>
1.732

> <Valence>
14.705

> <Coulomb>
-10.687

> <VdW>
0.490

> <VdW6>
-3.745

> <VdW12>
4.235

> <Bond>
0.068

> <Angle>
3.901

> <Pdih>
10.737

> <Idih>
0.000

> <Tether>
0.000

$$$$
VeraChem MOL file


 16 16  0  0  0  0  0  0  0  0999 V2000     
   19.3056   20.0068   22.2913 C   0  0  0  0  0  0  0  0  0  0  0  0
   18.3230   20.2491   21.8630 H   0  0  0  0  0  0  0  0  0  0  0  0
   19.8012   20.9470   22.5690 H   0  0  0  0  0  0  0  0  0  0  0  0
   20.1211   19.1913   21.2786 C   0  0  0  0  0  0  0  0  0  0  0  0
   19.9901   19.5518   20.2492 H   0  0  0  0  0  0  0  0  0  0  0  0
   21.1892   19.2511   21.5302 H   0  0  0  0  0  0  0  0  0  0  0  0
   19.6231   17.7459   21.4610 C   0  0  0  0  0  0  0  0  0  0  0  0
   20.4078   17.0176   21.2186 H   0  0  0  0  0  0  0  0  0  0  0  0
   18.7755   17.5658   20.7858 H   0  0  0  0  0  0  0  0  0  0  0  0
   19.1707   17.6240   22.9314 C   0  0  0  0  0  0  0  0  0  0  0  0
   19.9022   17.0338   23.5025 H   0  0  0  0  0  0  0  0  0  0  0  0
   19.1254   19.0603   23.4924 C   0  0  0  0  0  0  0  0  0  0  0  0
   18.1926   19.2671   24.0337 H   0  0  0  0  0  0  0  0  0  0  0  0
   19.9568   19.1960   24.1964 H   0  0  0  0  0  0  0  0  0  0  0  0
   17.8802   17.0294   23.0003 O   0  0  0  0  0  0  0  0  0  0  0  0
   17.9651   16.1284   22.6229 H   0  0  0  0  0  0  0  0  0  0  0  0
  1  2  1  0  0  0  0
  1  3  1  0  0  0  0
  1  4  1  0  0  0  0
  4  5  1  0  0  0  0
  4  6  1  0  0  0  0
  4  7  1  0  0  0  0
  7  8  1  0  0  0  0
  7  9  1  0  0  0  0
  7 10  1  0  0  0  0
 10 11  1  0  0  0  0
  1 12  1  0  0  0  0
 10 12  1  0  0  0  0
 12 13  1  0  0  0  0
 12 14  1  0  0  0  0
 10 15  1  0  0  0  0
 15 16  1  0  0  0  0
M  END
> <VConfSearch Rank>
583

> <Conf_Id>
59

> <Delta U+W>
0.000

> <U+W>
3.010

> <U>
5.843

> <W>
-2.833

> <W(PB)>
-4.568

> <W(SA)>
1.735

> <Valence>
13.789

> <Coulomb>
-8.574

> <VdW>
0.628

> <VdW6>
-3.284

> <VdW12>
3.912

> <Bond>
0.054

> <Angle>
4.034

> <Pdih>
9.702

> <Idih>
0.000

> <Tether>
0.000

$$$$
VeraChem MOL file


 16 16  0  0  0  0  0  0  0  0999 V2000     
   19.9530   17.4529   21.6100 C   0  0  0  0  0  0  0  0  0  0  0  0
   20.4792   17.1962   20.6805 H   0  0  0  0  0  0  0  0  0  0  0  0
   19.8993   16.5506   22.2349 H   0  0  0  0  0  0  0  0  0  0  0  0
   18.5374   17.9868   21.3513 C   0  0  0  0  0  0  0  0  0  0  0  0
   18.5463   18.6415   20.4688 H   0  0  0  0  0  0  0  0  0  0  0  0
   17.8111   17.1817   21.1752 H   0  0  0  0  0  0  0  0  0  0  0  0
   18.2032   18.8158   22.6052 C   0  0  0  0  0  0  0  0  0  0  0  0
   17.7222   18.1734   23.3542 H   0  0  0  0  0  0  0  0  0  0  0  0
   17.5105   19.6362   22.3746 H   0  0  0  0  0  0  0  0  0  0  0  0
   19.5468   19.3245   23.1671 C   0  0  0  0  0  0  0  0  0  0  0  0
   19.6104   19.0767   24.2367 H   0  0  0  0  0  0  0  0  0  0  0  0
   20.6528   18.5834   22.3865 C   0  0  0  0  0  0  0  0  0  0  0  0
   21.1393   19.2652   21.6758 H   0  0  0  0  0  0  0  0  0  0  0  0
   21.4260   18.1892   23.0586 H   0  0  0  0  0  0  0  0  0  0  0  0
   19.6619   20.7284   22.9678 O   0  0  0  0  0  0  0  0  0  0  0  0
   20.5333   20.9935   23.3310 H   0  0  0  0  0  0  0  0  0  0  0  0
  1  2  1  0  0  0  0
  1  3  1  0  0  0  0
  1  4  1  0  0  0  0
  4  5  1  0  0  0  0
  4  6  1  0  0  0  0
  4  7  1  0  0  0  0
  7  8  1  0  0  0  0
  7  9  1  0  0  0  0
  7 10  1  0  0  0  0
 10 11  1  0  0  0  0
  1 12  1  0  0  0  0
 10 12  1  0  0  0  0
 12 13  1  0  0  0  0
 12 14  1  0  0  0  0
 10 15  1  0  0  0  0
 15 16  1  0  0  0  0
M  END
> <VConfSearch Rank>
584

> <Conf_Id>
33

> <Delta U+W>
0.015

> <U+W>
3.025

> <U>
5.843

> <W>
-2.819

> <W(PB)>
-4.568

> <W(SA)>
1.750

> <Valence>
13.789

> <Coulomb>
-8.574

> <VdW>
0.628

> <VdW6>
-3.284

> <VdW12>
3.913

> <Bond>
0.054

> <Angle>
4.033

> <Pdih>
9.702

> <Idih>
0.000

> <Tether>
0.000

$$$$
VeraChem MOL file


 16 16  0  0  0  0  0  0  0  0999 V2000     
   19.3241   19.3871   23.3437 C   0  0  0  0  0  0  0  0  0  0  0  0
   18.8189   20.3499   23.1860 H   0  0  0  0  0  0  0  0  0  0  0  0
   19.6326   19.3412   24.3972 H   0  0  0  0  0  0  0  0  0  0  0  0
   20.5343   19.2667   22.3918 C   0  0  0  0  0  0  0  0  0  0  0  0
   20.6154   20.1718   21.7742 H   0  0  0  0  0  0  0  0  0  0  0  0
   21.4757   19.1568   22.9473 H   0  0  0  0  0  0  0  0  0  0  0  0
   20.2691   18.0348   21.5004 C   0  0  0  0  0  0  0  0  0  0  0  0
   20.8037   17.1661   21.9067 H   0  0  0  0  0  0  0  0  0  0  0  0
   20.6129   18.1860   20.4685 H   0  0  0  0  0  0  0  0  0  0  0  0
   18.7592   17.7715   21.5774 C   0  0  0  0  0  0  0  0  0  0  0  0
   18.5248   16.7098   21.4133 H   0  0  0  0  0  0  0  0  0  0  0  0
   18.3737   18.2227   22.9926 C   0  0  0  0  0  0  0  0  0  0  0  0
   17.3168   18.5122   23.0635 H   0  0  0  0  0  0  0  0  0  0  0  0
   18.5397   17.3907   23.6897 H   0  0  0  0  0  0  0  0  0  0  0  0
   18.0926   18.5902   20.6276 O   0  0  0  0  0  0  0  0  0  0  0  0
   18.3583   19.5063   20.8499 H   0  0  0  0  0  0  0  0  0  0  0  0
  1  2  1  0  0  0  0
  1  3  1  0  0  0  0
  1  4  1  0  0  0  0
  4  5  1  0  0  0  0
  4  6  1  0  0  0  0
  4  7  1  0  0  0  0
  7  8  1  0  0  0  0
  7  9  1  0  0  0  0
  7 10  1  0  0  0  0
 10 11  1  0  0  0  0
  1 12  1  0  0  0  0
 10 12  1  0  0  0  0
 12 13  1  0  0  0  0
 12 14  1  0  0  0  0
 10 15  1  0  0  0  0
 15 16  1  0  0  0  0
M  END
> <VConfSearch Rank>
585

> <Conf_Id>
20

> <Delta U+W>
-0.483

> <U+W>
2.527

> <U>
4.508

> <W>
-1.981

> <W(PB)>
-3.712

> <W(SA)>
1.732

> <Valence>
14.705

> <Coulomb>
-10.687

> <VdW>
0.490

> <VdW6>
-3.745

> <VdW12>
4.235

> <Bond>
0.068

> <Angle>
3.901

> <Pdih>
10.737

> <Idih>
0.000

> <Tether>
0.000

$$$$
VeraChem MOL file


 16 16  0  0  0  0  0  0  0  0999 V2000     
   19.9232   18.6498   23.6503 C   0  0  0  0  0  0  0  0  0  0  0  0
   19.2533   19.3303   24.1942 H   0  0  0  0  0  0  0  0  0  0  0  0
   20.6907   18.2908   24.3494 H   0  0  0  0  0  0  0  0  0  0  0  0
   20.5261   19.3788   22.4417 C   0  0  0  0  0  0  0  0  0  0  0  0
   20.7894   20.4204   22.6705 H   0  0  0  0  0  0  0  0  0  0  0  0
   21.4365   18.8586   22.1126 H   0  0  0  0  0  0  0  0  0  0  0  0
   19.4436   19.2739   21.3519 C   0  0  0  0  0  0  0  0  0  0  0  0
   19.8850   19.2719   20.3469 H   0  0  0  0  0  0  0  0  0  0  0  0
   18.7712   20.1397   21.4233 H   0  0  0  0  0  0  0  0  0  0  0  0
   18.6679   17.9698   21.6334 C   0  0  0  0  0  0  0  0  0  0  0  0
   18.9396   17.2030   20.8933 H   0  0  0  0  0  0  0  0  0  0  0  0
   19.1030   17.4999   23.0369 C   0  0  0  0  0  0  0  0  0  0  0  0
   18.2471   17.2311   23.6704 H   0  0  0  0  0  0  0  0  0  0  0  0
   19.7361   16.6088   22.9358 H   0  0  0  0  0  0  0  0  0  0  0  0
   17.2671   18.2172   21.6112 O   0  0  0  0  0  0  0  0  0  0  0  0
   17.0497   18.5216   20.7048 H   0  0  0  0  0  0  0  0  0  0  0  0
  1  2  1  0  0  0  0
  1  3  1  0  0  0  0
  1  4  1  0  0  0  0
  4  5  1  0  0  0  0
  4  6  1  0  0  0  0
  4  7  1  0  0  0  0
  7  8  1  0  0  0  0
  7  9  1  0  0  0  0
  7 10  1  0  0  0  0
 10 11  1  0  0  0  0
  1 12  1  0  0  0  0
 10 12  1  0  0  0  0
 12 13  1  0  0  0  0
 12 14  1  0  0  0  0
 10 15  1  0  0  0  0
 15 16  1  0  0  0  0
M  END
> <VConfSearch Rank>
586

> <Conf_Id>
59

> <Delta U+W>
0.000

> <U+W>
3.010

> <U>
5.843

> <W>
-2.833

> <W(PB)>
-4.568

> <W(SA)>
1.735

> <Valence>
13.789

> <Coulomb>
-8.574

> <VdW>
0.628

> <VdW6>
-3.284

> <VdW12>
3.912

> <Bond>
0.054

> <Angle>
4.034

> <Pdih>
9.702

> <Idih>
0.000

> <Tether>
0.000

$$$$
VeraChem MOL file


 16 16  0  0  0  0  0  0  0  0999 V2000     
   18.4104   19.4075   22.8782 C   0  0  0  0  0  0  0  0  0  0  0  0
   17.4000   19.7649   22.6370 H   0  0  0  0  0  0  0  0  0  0  0  0
   18.6222   19.6578   23.9270 H   0  0  0  0  0  0  0  0  0  0  0  0
   19.4817   20.0300   21.9723 C   0  0  0  0  0  0  0  0  0  0  0  0
   19.1007   20.0970   20.9437 H   0  0  0  0  0  0  0  0  0  0  0  0
   19.7723   21.0381   22.2979 H   0  0  0  0  0  0  0  0  0  0  0  0
   20.6555   19.0347   22.0237 C   0  0  0  0  0  0  0  0  0  0  0  0
   21.3303   19.3029   22.8469 H   0  0  0  0  0  0  0  0  0  0  0  0
   21.2401   19.0506   21.0942 H   0  0  0  0  0  0  0  0  0  0  0  0
   20.0434   17.6472   22.3068 C   0  0  0  0  0  0  0  0  0  0  0  0
   20.5653   17.1869   23.1585 H   0  0  0  0  0  0  0  0  0  0  0  0
   18.5619   17.8903   22.6639 C   0  0  0  0  0  0  0  0  0  0  0  0
   17.9137   17.5740   21.8353 H   0  0  0  0  0  0  0  0  0  0  0  0
   18.2648   17.3274   23.5582 H   0  0  0  0  0  0  0  0  0  0  0  0
   20.1410   16.8230   21.1514 O   0  0  0  0  0  0  0  0  0  0  0  0
   19.7294   15.9637   21.3833 H   0  0  0  0  0  0  0  0  0  0  0  0
  1  2  1  0  0  0  0
  1  3  1  0  0  0  0
  1  4  1  0  0  0  0
  4  5  1  0  0  0  0
  4  6  1  0  0  0  0
  4  7  1  0  0  0  0
  7  8  1  0  0  0  0
  7  9  1  0  0  0  0
  7 10  1  0  0  0  0
 10 11  1  0  0  0  0
  1 12  1  0  0  0  0
 10 12  1  0  0  0  0
 12 13  1  0  0  0  0
 12 14  1  0  0  0  0
 10 15  1  0  0  0  0
 15 16  1  0  0  0  0
M  END
> <VConfSearch Rank>
587

> <Conf_Id>
33

> <Delta U+W>
0.015

> <U+W>
3.025

> <U>
5.843

> <W>
-2.819

> <W(PB)>
-4.568

> <W(SA)>
1.750

> <Valence>
13.789

> <Coulomb>
-8.574

> <VdW>
0.628

> <VdW6>
-3.284

> <VdW12>
3.913

> <Bond>
0.054

> <Angle>
4.033

> <Pdih>
9.702

> <Idih>
0.000

> <Tether>
0.000

$$$$
VeraChem MOL file


 16 16  0  0  0  0  0  0  0  0999 V2000     
   19.7186   17.7730   23.2421 C   0  0  0  0  0  0  0  0  0  0  0  0
   20.7544   17.8832   23.5915 H   0  0  0  0  0  0  0  0  0  0  0  0
   19.2460   16.9845   23.8437 H   0  0  0  0  0  0  0  0  0  0  0  0
   19.7060   17.4241   21.7378 C   0  0  0  0  0  0  0  0  0  0  0  0
   20.7358   17.3643   21.3593 H   0  0  0  0  0  0  0  0  0  0  0  0
   19.2259   16.4534   21.5523 H   0  0  0  0  0  0  0  0  0  0  0  0
   18.9433   18.5644   21.0303 C   0  0  0  0  0  0  0  0  0  0  0  0
   17.9005   18.2619   20.8667 H   0  0  0  0  0  0  0  0  0  0  0  0
   19.3771   18.8110   20.0520 H   0  0  0  0  0  0  0  0  0  0  0  0
   18.9707   19.7570   21.9956 C   0  0  0  0  0  0  0  0  0  0  0  0
   18.1022   20.4155   21.8499 H   0  0  0  0  0  0  0  0  0  0  0  0
   18.9619   19.1105   23.3874 C   0  0  0  0  0  0  0  0  0  0  0  0
   19.4090   19.7609   24.1510 H   0  0  0  0  0  0  0  0  0  0  0  0
   17.9228   18.9139   23.6827 H   0  0  0  0  0  0  0  0  0  0  0  0
   20.1845   20.4730   21.8202 O   0  0  0  0  0  0  0  0  0  0  0  0
   20.8931   19.8132   21.9674 H   0  0  0  0  0  0  0  0  0  0  0  0
  1  2  1  0  0  0  0
  1  3  1  0  0  0  0
  1  4  1  0  0  0  0
  4  5  1  0  0  0  0
  4  6  1  0  0  0  0
  4  7  1  0  0  0  0
  7  8  1  0  0  0  0
  7  9  1  0  0  0  0
  7 10  1  0  0  0  0
 10 11  1  0  0  0  0
  1 12  1  0  0  0  0
 10 12  1  0  0  0  0
 12 13  1  0  0  0  0
 12 14  1  0  0  0  0
 10 15  1  0  0  0  0
 15 16  1  0  0  0  0
M  END
> <VConfSearch Rank>
588

> <Conf_Id>
20

> <Delta U+W>
-0.483

> <U+W>
2.527

> <U>
4.508

> <W>
-1.981

> <W(PB)>
-3.712

> <W(SA)>
1.732

> <Valence>
14.705

> <Coulomb>
-10.687

> <VdW>
0.490

> <VdW6>
-3.745

> <VdW12>
4.235

> <Bond>
0.068

> <Angle>
3.901

> <Pdih>
10.737

> <Idih>
0.000

> <Tether>
0.000

$$$$
VeraChem MOL file


 16 16  0  0  0  0  0  0  0  0999 V2000     
   18.2521   17.8674   21.6668 C   0  0  0  0  0  0  0  0  0  0  0  0
   18.6760   16.9178   21.3116 H   0  0  0  0  0  0  0  0  0  0  0  0
   17.1779   17.8719   21.4374 H   0  0  0  0  0  0  0  0  0  0  0  0
   18.9963   19.0395   21.0126 C   0  0  0  0  0  0  0  0  0  0  0  0
   19.2320   18.8479   19.9569 H   0  0  0  0  0  0  0  0  0  0  0  0
   18.3783   19.9466   21.0675 H   0  0  0  0  0  0  0  0  0  0  0  0
   20.2610   19.2181   21.8723 C   0  0  0  0  0  0  0  0  0  0  0  0
   20.6041   20.2608   21.8694 H   0  0  0  0  0  0  0  0  0  0  0  0
   21.0689   18.5960   21.4636 H   0  0  0  0  0  0  0  0  0  0  0  0
   19.8904   18.7468   23.2943 C   0  0  0  0  0  0  0  0  0  0  0  0
   19.7828   19.6139   23.9621 H   0  0  0  0  0  0  0  0  0  0  0  0
   18.5321   18.0257   23.1727 C   0  0  0  0  0  0  0  0  0  0  0  0
   18.5270   17.0563   23.6889 H   0  0  0  0  0  0  0  0  0  0  0  0
   17.7530   18.6505   23.6286 H   0  0  0  0  0  0  0  0  0  0  0  0
   20.8791   17.8507   23.7878 O   0  0  0  0  0  0  0  0  0  0  0  0
   21.7184   18.3557   23.8339 H   0  0  0  0  0  0  0  0  0  0  0  0
  1  2  1  0  0  0  0
  1  3  1  0  0  0  0
  1  4  1  0  0  0  0
  4  5  1  0  0  0  0
  4  6  1  0  0  0  0
  4  7  1  0  0  0  0
  7  8  1  0  0  0  0
  7  9  1  0  0  0  0
  7 10  1  0  0  0  0
 10 11  1  0  0  0  0
  1 12  1  0  0  0  0
 10 12  1  0  0  0  0
 12 13  1  0  0  0  0
 12 14  1  0  0  0  0
 10 15  1  0  0  0  0
 15 16  1  0  0  0  0
M  END
> <VConfSearch Rank>
589

> <Conf_Id>
59

> <Delta U+W>
0.000

> <U+W>
3.010

> <U>
5.843

> <W>
-2.833

> <W(PB)>
-4.568

> <W(SA)>
1.735

> <Valence>
13.789

> <Coulomb>
-8.574

> <VdW>
0.628

> <VdW6>
-3.284

> <VdW12>
3.912

> <Bond>
0.054

> <Angle>
4.034

> <Pdih>
9.702

> <Idih>
0.000

> <Tether>
0.000

$$$$
VeraChem MOL file


 16 16  0  0  0  0  0  0  0  0999 V2000     
   20.6588   19.0147   22.9574 C   0  0  0  0  0  0  0  0  0  0  0  0
   21.3021   18.6877   23.7857 H   0  0  0  0  0  0  0  0  0  0  0  0
   21.1673   19.8340   22.4303 H   0  0  0  0  0  0  0  0  0  0  0  0
   19.2808   19.4881   23.4400 C   0  0  0  0  0  0  0  0  0  0  0  0
   18.9282   18.8319   24.2479 H   0  0  0  0  0  0  0  0  0  0  0  0
   19.3001   20.5193   23.8179 H   0  0  0  0  0  0  0  0  0  0  0  0
   18.3669   19.3296   22.2109 C   0  0  0  0  0  0  0  0  0  0  0  0
   18.3751   20.2570   21.6236 H   0  0  0  0  0  0  0  0  0  0  0  0
   17.3275   19.1288   22.5032 H   0  0  0  0  0  0  0  0  0  0  0  0
   18.9666   18.1906   21.3608 C   0  0  0  0  0  0  0  0  0  0  0  0
   19.0835   18.5348   20.3228 H   0  0  0  0  0  0  0  0  0  0  0  0
   20.3483   17.8740   21.9710 C   0  0  0  0  0  0  0  0  0  0  0  0
   20.3142   16.9212   22.5167 H   0  0  0  0  0  0  0  0  0  0  0  0
   21.1220   17.7916   21.1968 H   0  0  0  0  0  0  0  0  0  0  0  0
   18.1294   17.0419   21.4191 O   0  0  0  0  0  0  0  0  0  0  0  0
   18.5618   16.3508   20.8742 H   0  0  0  0  0  0  0  0  0  0  0  0
  1  2  1  0  0  0  0
  1  3  1  0  0  0  0
  1  4  1  0  0  0  0
  4  5  1  0  0  0  0
  4  6  1  0  0  0  0
  4  7  1  0  0  0  0
  7  8  1  0  0  0  0
  7  9  1  0  0  0  0
  7 10  1  0  0  0  0
 10 11  1  0  0  0  0
  1 12  1  0  0  0  0
 10 12  1  0  0  0  0
 12 13  1  0  0  0  0
 12 14  1  0  0  0  0
 10 15  1  0  0  0  0
 15 16  1  0  0  0  0
M  END
> <VConfSearch Rank>
590

> <Conf_Id>
33

> <Delta U+W>
0.015

> <U+W>
3.025

> <U>
5.843

> <W>
-2.819

> <W(PB)>
-4.568

> <W(SA)>
1.750

> <Valence>
13.789

> <Coulomb>
-8.574

> <VdW>
0.628

> <VdW6>
-3.284

> <VdW12>
3.913

> <Bond>
0.054

> <Angle>
4.033

> <Pdih>
9.702

> <Idih>
0.000

> <Tether>
0.000

$$$$
VeraChem MOL file


 16 16  0  0  0  0  0  0  0  0999 V2000     
   20.6930   18.8443   22.2181 C   0  0  0  0  0  0  0  0  0  0  0  0
   21.0255   19.6680   22.8647 H   0  0  0  0  0  0  0  0  0  0  0  0
   21.5817   18.4299   21.7227 H   0  0  0  0  0  0  0  0  0  0  0  0
   19.6621   19.3648   21.1926 C   0  0  0  0  0  0  0  0  0  0  0  0
   19.4966   20.4406   21.3423 H   0  0  0  0  0  0  0  0  0  0  0  0
   20.0112   19.2217   20.1608 H   0  0  0  0  0  0  0  0  0  0  0  0
   18.3561   18.5835   21.4499 C   0  0  0  0  0  0  0  0  0  0  0  0
   18.2837   17.7469   20.7423 H   0  0  0  0  0  0  0  0  0  0  0  0
   17.4636   19.2099   21.3191 H   0  0  0  0  0  0  0  0  0  0  0  0
   18.4693   18.0232   22.8740 C   0  0  0  0  0  0  0  0  0  0  0  0
   17.8842   17.0999   22.9933 H   0  0  0  0  0  0  0  0  0  0  0  0
   19.9715   17.7671   23.0556 C   0  0  0  0  0  0  0  0  0  0  0  0
   20.2727   17.7898   24.1114 H   0  0  0  0  0  0  0  0  0  0  0  0
   20.2138   16.7718   22.6603 H   0  0  0  0  0  0  0  0  0  0  0  0
   18.0482   19.0132   23.8010 O   0  0  0  0  0  0  0  0  0  0  0  0
   18.6185   19.7890   23.6217 H   0  0  0  0  0  0  0  0  0  0  0  0
  1  2  1  0  0  0  0
  1  3  1  0  0  0  0
  1  4  1  0  0  0  0
  4  5  1  0  0  0  0
  4  6  1  0  0  0  0
  4  7  1  0  0  0  0
  7  8  1  0  0  0  0
  7  9  1  0  0  0  0
  7 10  1  0  0  0  0
 10 11  1  0  0  0  0
  1 12  1  0  0  0  0
 10 12  1  0  0  0  0
 12 13  1  0  0  0  0
 12 14  1  0  0  0  0
 10 15  1  0  0  0  0
 15 16  1  0  0  0  0
M  END
> <VConfSearch Rank>
591

> <Conf_Id>
20

> <Delta U+W>
-0.483

> <U+W>
2.527

> <U>
4.508

> <W>
-1.981

> <W(PB)>
-3.712

> <W(SA)>
1.732

> <Valence>
14.705

> <Coulomb>
-10.687

> <VdW>
0.490

> <VdW6>
-3.745

> <VdW12>
4.235

> <Bond>
0.068

> <Angle>
3.901

> <Pdih>
10.737

> <Idih>
0.000

> <Tether>
0.000

$$$$
VeraChem MOL file


 16 16  0  0  0  0  0  0  0  0999 V2000     
   19.6653   18.3696   20.9051 C   0  0  0  0  0  0  0  0  0  0  0  0
   18.7490   17.9498   20.4671 H   0  0  0  0  0  0  0  0  0  0  0  0
   20.3938   18.5231   20.0975 H   0  0  0  0  0  0  0  0  0  0  0  0
   20.1910   17.4285   21.9977 C   0  0  0  0  0  0  0  0  0  0  0  0
   20.0912   16.3701   21.7212 H   0  0  0  0  0  0  0  0  0  0  0  0
   21.2538   17.6362   22.1844 H   0  0  0  0  0  0  0  0  0  0  0  0
   19.3629   17.7889   23.2447 C   0  0  0  0  0  0  0  0  0  0  0  0
   19.9270   17.6041   24.1680 H   0  0  0  0  0  0  0  0  0  0  0  0
   18.4578   17.1669   23.2720 H   0  0  0  0  0  0  0  0  0  0  0  0
   18.9842   19.2780   23.0998 C   0  0  0  0  0  0  0  0  0  0  0  0
   19.5801   19.8872   23.7950 H   0  0  0  0  0  0  0  0  0  0  0  0
   19.3296   19.6750   21.6497 C   0  0  0  0  0  0  0  0  0  0  0  0
   18.5113   20.2203   21.1607 H   0  0  0  0  0  0  0  0  0  0  0  0
   20.2096   20.3311   21.6581 H   0  0  0  0  0  0  0  0  0  0  0  0
   17.5933   19.4564   23.3394 O   0  0  0  0  0  0  0  0  0  0  0  0
   17.4298   19.1802   24.2659 H   0  0  0  0  0  0  0  0  0  0  0  0
  1  2  1  0  0  0  0
  1  3  1  0  0  0  0
  1  4  1  0  0  0  0
  4  5  1  0  0  0  0
  4  6  1  0  0  0  0
  4  7  1  0  0  0  0
  7  8  1  0  0  0  0
  7  9  1  0  0  0  0
  7 10  1  0  0  0  0
 10 11  1  0  0  0  0
  1 12  1  0  0  0  0
 10 12  1  0  0  0  0
 12 13  1  0  0  0  0
 12 14  1  0  0  0  0
 10 15  1  0  0  0  0
 15 16  1  0  0  0  0
M  END
> <VConfSearch Rank>
592

> <Conf_Id>
59

> <Delta U+W>
0.000

> <U+W>
3.010

> <U>
5.843

> <W>
-2.833

> <W(PB)>
-4.568

> <W(SA)>
1.735

> <Valence>
13.789

> <Coulomb>
-8.574

> <VdW>
0.628

> <VdW6>
-3.284

> <VdW12>
3.912

> <Bond>
0.054

> <Angle>
4.034

> <Pdih>
9.702

> <Idih>
0.000

> <Tether>
0.000

$$$$
VeraChem MOL file


 16 16  0  0  0  0  0  0  0  0999 V2000     
   18.3942   18.2922   21.3764 C   0  0  0  0  0  0  0  0  0  0  0  0
   17.6695   17.4882   21.1891 H   0  0  0  0  0  0  0  0  0  0  0  0
   18.1459   19.1382   20.7204 H   0  0  0  0  0  0  0  0  0  0  0  0
   19.8402   17.8466   21.1192 C   0  0  0  0  0  0  0  0  0  0  0  0
   19.9794   16.8193   21.4838 H   0  0  0  0  0  0  0  0  0  0  0  0
   20.1038   17.8721   20.0531 H   0  0  0  0  0  0  0  0  0  0  0  0
   20.6962   18.8123   21.9593 C   0  0  0  0  0  0  0  0  0  0  0  0
   20.9595   19.6910   21.3563 H   0  0  0  0  0  0  0  0  0  0  0  0
   21.6318   18.3411   22.2888 H   0  0  0  0  0  0  0  0  0  0  0  0
   19.8173   19.2610   23.1451 C   0  0  0  0  0  0  0  0  0  0  0  0
   19.8213   20.3591   23.2052 H   0  0  0  0  0  0  0  0  0  0  0  0
   18.3909   18.7536   22.8453 C   0  0  0  0  0  0  0  0  0  0  0  0
   18.1461   17.9010   23.4933 H   0  0  0  0  0  0  0  0  0  0  0  0
   17.6400   19.5352   23.0185 H   0  0  0  0  0  0  0  0  0  0  0  0
   20.2975   18.6887   24.3558 O   0  0  0  0  0  0  0  0  0  0  0  0
   19.6990   18.9963   25.0690 H   0  0  0  0  0  0  0  0  0  0  0  0
  1  2  1  0  0  0  0
  1  3  1  0  0  0  0
  1  4  1  0  0  0  0
  4  5  1  0  0  0  0
  4  6  1  0  0  0  0
  4  7  1  0  0  0  0
  7  8  1  0  0  0  0
  7  9  1  0  0  0  0
  7 10  1  0  0  0  0
 10 11  1  0  0  0  0
  1 12  1  0  0  0  0
 10 12  1  0  0  0  0
 12 13  1  0  0  0  0
 12 14  1  0  0  0  0
 10 15  1  0  0  0  0
 15 16  1  0  0  0  0
M  END
> <VConfSearch Rank>
593

> <Conf_Id>
33

> <Delta U+W>
0.015

> <U+W>
3.025

> <U>
5.843

> <W>
-2.819

> <W(PB)>
-4.568

> <W(SA)>
1.750

> <Valence>
13.789

> <Coulomb>
-8.574

> <VdW>
0.628

> <VdW6>
-3.284

> <VdW12>
3.913

> <Bond>
0.054

> <Angle>
4.033

> <Pdih>
9.702

> <Idih>
0.000

> <Tether>
0.000

$$$$
VeraChem MOL file


 16 16  0  0  0  0  0  0  0  0999 V2000     
   19.2161   19.8745   21.8578 C   0  0  0  0  0  0  0  0  0  0  0  0
   18.5100   19.9982   21.0252 H   0  0  0  0  0  0  0  0  0  0  0  0
   19.5814   20.8726   22.1361 H   0  0  0  0  0  0  0  0  0  0  0  0
   20.3732   18.9448   21.4315 C   0  0  0  0  0  0  0  0  0  0  0  0
   20.2276   18.6193   20.3922 H   0  0  0  0  0  0  0  0  0  0  0  0
   21.3439   19.4562   21.4877 H   0  0  0  0  0  0  0  0  0  0  0  0
   20.3308   17.7292   22.3818 C   0  0  0  0  0  0  0  0  0  0  0  0
   21.0585   17.8712   23.1917 H   0  0  0  0  0  0  0  0  0  0  0  0
   20.5806   16.7909   21.8688 H   0  0  0  0  0  0  0  0  0  0  0  0
   18.9177   17.7063   22.9799 C   0  0  0  0  0  0  0  0  0  0  0  0
   18.9067   17.2364   23.9739 H   0  0  0  0  0  0  0  0  0  0  0  0
   18.5187   19.1865   23.0505 C   0  0  0  0  0  0  0  0  0  0  0  0
   17.4295   19.3250   23.0322 H   0  0  0  0  0  0  0  0  0  0  0  0
   18.8939   19.6124   23.9904 H   0  0  0  0  0  0  0  0  0  0  0  0
   18.0438   17.0284   22.0892 O   0  0  0  0  0  0  0  0  0  0  0  0
   18.1194   17.5117   21.2408 H   0  0  0  0  0  0  0  0  0  0  0  0
  1  2  1  0  0  0  0
  1  3  1  0  0  0  0
  1  4  1  0  0  0  0
  4  5  1  0  0  0  0
  4  6  1  0  0  0  0
  4  7  1  0  0  0  0
  7  8  1  0  0  0  0
  7  9  1  0  0  0  0
  7 10  1  0  0  0  0
 10 11  1  0  0  0  0
  1 12  1  0  0  0  0
 10 12  1  0  0  0  0
 12 13  1  0  0  0  0
 12 14  1  0  0  0  0
 10 15  1  0  0  0  0
 15 16  1  0  0  0  0
M  END
> <VConfSearch Rank>
594

> <Conf_Id>
20

> <Delta U+W>
-0.483

> <U+W>
2.527

> <U>
4.508

> <W>
-1.981

> <W(PB)>
-3.712

> <W(SA)>
1.732

> <Valence>
14.705

> <Coulomb>
-10.687

> <VdW>
0.490

> <VdW6>
-3.745

> <VdW12>
4.235

> <Bond>
0.068

> <Angle>
3.901

> <Pdih>
10.737

> <Idih>
0.000

> <Tether>
0.000

$$$$
VeraChem MOL file


 16 16  0  0  0  0  0  0  0  0999 V2000     
   19.6368   18.6034   20.8881 C   0  0  0  0  0  0  0  0  0  0  0  0
   19.3394   17.6169   20.5060 H   0  0  0  0  0  0  0  0  0  0  0  0
   19.9598   19.2189   20.0375 H   0  0  0  0  0  0  0  0  0  0  0  0
   20.7396   18.4357   21.9424 C   0  0  0  0  0  0  0  0  0  0  0  0
   21.4647   17.6572   21.6685 H   0  0  0  0  0  0  0  0  0  0  0  0
   21.2823   19.3835   22.0637 H   0  0  0  0  0  0  0  0  0  0  0  0
   19.9814   18.0998   23.2397 C   0  0  0  0  0  0  0  0  0  0  0  0
   20.5288   18.4470   24.1255 H   0  0  0  0  0  0  0  0  0  0  0  0
   19.8647   17.0105   23.3206 H   0  0  0  0  0  0  0  0  0  0  0  0
   18.6002   18.7785   23.1243 C   0  0  0  0  0  0  0  0  0  0  0  0
   18.5566   19.6578   23.7835 H   0  0  0  0  0  0  0  0  0  0  0  0
   18.4613   19.2344   21.6571 C   0  0  0  0  0  0  0  0  0  0  0  0
   17.4941   18.9495   21.2218 H   0  0  0  0  0  0  0  0  0  0  0  0
   18.5374   20.3286   21.6135 H   0  0  0  0  0  0  0  0  0  0  0  0
   17.5698   17.8533   23.4502 O   0  0  0  0  0  0  0  0  0  0  0  0
   17.7128   17.5906   24.3841 H   0  0  0  0  0  0  0  0  0  0  0  0
  1  2  1  0  0  0  0
  1  3  1  0  0  0  0
  1  4  1  0  0  0  0
  4  5  1  0  0  0  0
  4  6  1  0  0  0  0
  4  7  1  0  0  0  0
  7  8  1  0  0  0  0
  7  9  1  0  0  0  0
  7 10  1  0  0  0  0
 10 11  1  0  0  0  0
  1 12  1  0  0  0  0
 10 12  1  0  0  0  0
 12 13  1  0  0  0  0
 12 14  1  0  0  0  0
 10 15  1  0  0  0  0
 15 16  1  0  0  0  0
M  END
> <VConfSearch Rank>
595

> <Conf_Id>
59

> <Delta U+W>
0.000

> <U+W>
3.010

> <U>
5.843

> <W>
-2.833

> <W(PB)>
-4.568

> <W(SA)>
1.735

> <Valence>
13.789

> <Coulomb>
-8.574

> <VdW>
0.628

> <VdW6>
-3.284

> <VdW12>
3.912

> <Bond>
0.054

> <Angle>
4.034

> <Pdih>
9.702

> <Idih>
0.000

> <Tether>
0.000

$$$$
VeraChem MOL file


 16 16  0  0  0  0  0  0  0  0999 V2000     
   18.6911   17.4938   22.7726 C   0  0  0  0  0  0  0  0  0  0  0  0
   18.7347   16.7364   23.5670 H   0  0  0  0  0  0  0  0  0  0  0  0
   17.7127   17.4171   22.2781 H   0  0  0  0  0  0  0  0  0  0  0  0
   19.8088   17.3176   21.7357 C   0  0  0  0  0  0  0  0  0  0  0  0
   20.7419   17.0373   22.2440 H   0  0  0  0  0  0  0  0  0  0  0  0
   19.5746   16.5419   20.9940 H   0  0  0  0  0  0  0  0  0  0  0  0
   19.9669   18.7107   21.0991 C   0  0  0  0  0  0  0  0  0  0  0  0
   19.3025   18.7959   20.2293 H   0  0  0  0  0  0  0  0  0  0  0  0
   20.9946   18.8825   20.7521 H   0  0  0  0  0  0  0  0  0  0  0  0
   19.5307   19.7345   22.1674 C   0  0  0  0  0  0  0  0  0  0  0  0
   18.7887   20.4198   21.7323 H   0  0  0  0  0  0  0  0  0  0  0  0
   18.8912   18.9217   23.3128 C   0  0  0  0  0  0  0  0  0  0  0  0
   19.5649   18.8909   24.1800 H   0  0  0  0  0  0  0  0  0  0  0  0
   17.9411   19.3637   23.6396 H   0  0  0  0  0  0  0  0  0  0  0  0
   20.6602   20.4541   22.6473 O   0  0  0  0  0  0  0  0  0  0  0  0
   20.3281   21.0781   23.3269 H   0  0  0  0  0  0  0  0  0  0  0  0
  1  2  1  0  0  0  0
  1  3  1  0  0  0  0
  1  4  1  0  0  0  0
  4  5  1  0  0  0  0
  4  6  1  0  0  0  0
  4  7  1  0  0  0  0
  7  8  1  0  0  0  0
  7  9  1  0  0  0  0
  7 10  1  0  0  0  0
 10 11  1  0  0  0  0
  1 12  1  0  0  0  0
 10 12  1  0  0  0  0
 12 13  1  0  0  0  0
 12 14  1  0  0  0  0
 10 15  1  0  0  0  0
 15 16  1  0  0  0  0
M  END
> <VConfSearch Rank>
596

> <Conf_Id>
33

> <Delta U+W>
0.015

> <U+W>
3.025

> <U>
5.843

> <W>
-2.819

> <W(PB)>
-4.568

> <W(SA)>
1.750

> <Valence>
13.789

> <Coulomb>
-8.574

> <VdW>
0.628

> <VdW6>
-3.284

> <VdW12>
3.913

> <Bond>
0.054

> <Angle>
4.033

> <Pdih>
9.702

> <Idih>
0.000

> <Tether>
0.000

$$$$
VeraChem MOL file


 16 16  0  0  0  0  0  0  0  0999 V2000     
   20.5846   18.2827   21.7866 C   0  0  0  0  0  0  0  0  0  0  0  0
   21.4218   18.7526   22.3210 H   0  0  0  0  0  0  0  0  0  0  0  0
   21.0082   17.6428   21.0004 H   0  0  0  0  0  0  0  0  0  0  0  0
   19.6611   19.3709   21.1967 C   0  0  0  0  0  0  0  0  0  0  0  0
   20.0519   20.3674   21.4448 H   0  0  0  0  0  0  0  0  0  0  0  0
   19.6008   19.2996   20.1021 H   0  0  0  0  0  0  0  0  0  0  0  0
   18.2746   19.1659   21.8433 C   0  0  0  0  0  0  0  0  0  0  0  0
   17.6343   18.5889   21.1630 H   0  0  0  0  0  0  0  0  0  0  0  0
   17.7680   20.1175   22.0524 H   0  0  0  0  0  0  0  0  0  0  0  0
   18.5166   18.3442   23.1166 C   0  0  0  0  0  0  0  0  0  0  0  0
   17.6363   17.7416   23.3827 H   0  0  0  0  0  0  0  0  0  0  0  0
   19.7212   17.4601   22.7665 C   0  0  0  0  0  0  0  0  0  0  0  0
   20.2832   17.1509   23.6578 H   0  0  0  0  0  0  0  0  0  0  0  0
   19.3627   16.5512   22.2655 H   0  0  0  0  0  0  0  0  0  0  0  0
   18.8713   19.2191   24.1775 O   0  0  0  0  0  0  0  0  0  0  0  0
   19.6552   19.7083   23.8530 H   0  0  0  0  0  0  0  0  0  0  0  0
  1  2  1  0  0  0  0
  1  3  1  0  0  0  0
  1  4  1  0  0  0  0
  4  5  1  0  0  0  0
  4  6  1  0  0  0  0
  4  7  1  0  0  0  0
  7  8  1  0  0  0  0
  7  9  1  0  0  0  0
  7 10  1  0  0  0  0
 10 11  1  0  0  0  0
  1 12  1  0  0  0  0
 10 12  1  0  0  0  0
 12 13  1  0  0  0  0
 12 14  1  0  0  0  0
 10 15  1  0  0  0  0
 15 16  1  0  0  0  0
M  END
> <VConfSearch Rank>
597

> <Conf_Id>
20

> <Delta U+W>
-0.483

> <U+W>
2.527

> <U>
4.508

> <W>
-1.981

> <W(PB)>
-3.712

> <W(SA)>
1.732

> <Valence>
14.705

> <Coulomb>
-10.687

> <VdW>
0.490

> <VdW6>
-3.745

> <VdW12>
4.235

> <Bond>
0.068

> <Angle>
3.901

> <Pdih>
10.737

> <Idih>
0.000

> <Tether>
0.000

$$$$
VeraChem MOL file


 16 16  0  0  0  0  0  0  0  0999 V2000     
   20.1023   17.5732   21.5410 C   0  0  0  0  0  0  0  0  0  0  0  0
   19.7246   16.5984   21.8797 H   0  0  0  0  0  0  0  0  0  0  0  0
   20.8286   17.3998   20.7354 H   0  0  0  0  0  0  0  0  0  0  0  0
   20.7138   18.3287   22.7289 C   0  0  0  0  0  0  0  0  0  0  0  0
   21.2812   17.6672   23.3976 H   0  0  0  0  0  0  0  0  0  0  0  0
   21.3934   19.1095   22.3601 H   0  0  0  0  0  0  0  0  0  0  0  0
   19.5075   18.9777   23.4320 C   0  0  0  0  0  0  0  0  0  0  0  0
   19.7919   19.9090   23.9387 H   0  0  0  0  0  0  0  0  0  0  0  0
   19.1146   18.2872   24.1908 H   0  0  0  0  0  0  0  0  0  0  0  0
   18.4489   19.2279   22.3373 C   0  0  0  0  0  0  0  0  0  0  0  0
   18.3974   20.3009   22.1018 H   0  0  0  0  0  0  0  0  0  0  0  0
   18.9231   18.4546   21.0895 C   0  0  0  0  0  0  0  0  0  0  0  0
   18.1198   17.8558   20.6400 H   0  0  0  0  0  0  0  0  0  0  0  0
   19.2677   19.1719   20.3334 H   0  0  0  0  0  0  0  0  0  0  0  0
   17.1801   18.7440   22.7616 O   0  0  0  0  0  0  0  0  0  0  0  0
   16.9346   19.2598   23.5586 H   0  0  0  0  0  0  0  0  0  0  0  0
  1  2  1  0  0  0  0
  1  3  1  0  0  0  0
  1  4  1  0  0  0  0
  4  5  1  0  0  0  0
  4  6  1  0  0  0  0
  4  7  1  0  0  0  0
  7  8  1  0  0  0  0
  7  9  1  0  0  0  0
  7 10  1  0  0  0  0
 10 11  1  0  0  0  0
  1 12  1  0  0  0  0
 10 12  1  0  0  0  0
 12 13  1  0  0  0  0
 12 14  1  0  0  0  0
 10 15  1  0  0  0  0
 15 16  1  0  0  0  0
M  END
> <VConfSearch Rank>
598

> <Conf_Id>
59

> <Delta U+W>
0.000

> <U+W>
3.010

> <U>
5.843

> <W>
-2.833

> <W(PB)>
-4.568

> <W(SA)>
1.735

> <Valence>
13.789

> <Coulomb>
-8.574

> <VdW>
0.628

> <VdW6>
-3.284

> <VdW12>
3.912

> <Bond>
0.054

> <Angle>
4.034

> <Pdih>
9.702

> <Idih>
0.000

> <Tether>
0.000

$$$$
VeraChem MOL file


 16 16  0  0  0  0  0  0  0  0999 V2000     
   19.6085   19.0288   20.9276 C   0  0  0  0  0  0  0  0  0  0  0  0
   18.9909   19.2226   20.0401 H   0  0  0  0  0  0  0  0  0  0  0  0
   20.6336   19.3610   20.7122 H   0  0  0  0  0  0  0  0  0  0  0  0
   19.6183   17.5449   21.3195 C   0  0  0  0  0  0  0  0  0  0  0  0
   18.6126   17.1222   21.1870 H   0  0  0  0  0  0  0  0  0  0  0  0
   20.3215   16.9560   20.7151 H   0  0  0  0  0  0  0  0  0  0  0  0
   19.9851   17.5438   22.8151 C   0  0  0  0  0  0  0  0  0  0  0  0
   21.0754   17.4834   22.9270 H   0  0  0  0  0  0  0  0  0  0  0  0
   19.5477   16.6829   23.3380 H   0  0  0  0  0  0  0  0  0  0  0  0
   19.4942   18.8889   23.3892 C   0  0  0  0  0  0  0  0  0  0  0  0
   20.3180   19.3742   23.9327 H   0  0  0  0  0  0  0  0  0  0  0  0
   19.0787   19.7522   22.1793 C   0  0  0  0  0  0  0  0  0  0  0  0
   17.9841   19.8244   22.1212 H   0  0  0  0  0  0  0  0  0  0  0  0
   19.4803   20.7710   22.2538 H   0  0  0  0  0  0  0  0  0  0  0  0
   18.3796   18.6782   24.2478 O   0  0  0  0  0  0  0  0  0  0  0  0
   18.1041   19.5614   24.5728 H   0  0  0  0  0  0  0  0  0  0  0  0
  1  2  1  0  0  0  0
  1  3  1  0  0  0  0
  1  4  1  0  0  0  0
  4  5  1  0  0  0  0
  4  6  1  0  0  0  0
  4  7  1  0  0  0  0
  7  8  1  0  0  0  0
  7  9  1  0  0  0  0
  7 10  1  0  0  0  0
 10 11  1  0  0  0  0
  1 12  1  0  0  0  0
 10 12  1  0  0  0  0
 12 13  1  0  0  0  0
 12 14  1  0  0  0  0
 10 15  1  0  0  0  0
 15 16  1  0  0  0  0
M  END
> <VConfSearch Rank>
599

> <Conf_Id>
33

> <Delta U+W>
0.015

> <U+W>
3.025

> <U>
5.843

> <W>
-2.819

> <W(PB)>
-4.568

> <W(SA)>
1.750

> <Valence>
13.789

> <Coulomb>
-8.574

> <VdW>
0.628

> <VdW6>
-3.284

> <VdW12>
3.913

> <Bond>
0.054

> <Angle>
4.033

> <Pdih>
9.702

> <Idih>
0.000

> <Tether>
0.000

$$$$
VeraChem MOL file


 16 16  0  0  0  0  0  0  0  0999 V2000     
   19.6827   19.5214   23.1865 C   0  0  0  0  0  0  0  0  0  0  0  0
   18.8623   20.2105   23.4300 H   0  0  0  0  0  0  0  0  0  0  0  0
   20.5407   19.7882   23.8187 H   0  0  0  0  0  0  0  0  0  0  0  0
   20.0290   19.6268   21.6852 C   0  0  0  0  0  0  0  0  0  0  0  0
   19.3769   20.3676   21.2023 H   0  0  0  0  0  0  0  0  0  0  0  0
   21.0685   19.9478   21.5320 H   0  0  0  0  0  0  0  0  0  0  0  0
   19.7856   18.2276   21.0806 C   0  0  0  0  0  0  0  0  0  0  0  0
   20.7376   17.6839   21.0191 H   0  0  0  0  0  0  0  0  0  0  0  0
   19.3643   18.2794   20.0678 H   0  0  0  0  0  0  0  0  0  0  0  0
   18.8569   17.4971   22.0599 C   0  0  0  0  0  0  0  0  0  0  0  0
   18.9990   16.4077   22.0160 H   0  0  0  0  0  0  0  0  0  0  0  0
   19.2443   18.0622   23.4331 C   0  0  0  0  0  0  0  0  0  0  0  0
   18.4231   17.9913   24.1588 H   0  0  0  0  0  0  0  0  0  0  0  0
   20.0911   17.4867   23.8295 H   0  0  0  0  0  0  0  0  0  0  0  0
   17.5098   17.8443   21.7743 O   0  0  0  0  0  0  0  0  0  0  0  0
   17.4799   18.8212   21.8361 H   0  0  0  0  0  0  0  0  0  0  0  0
  1  2  1  0  0  0  0
  1  3  1  0  0  0  0
  1  4  1  0  0  0  0
  4  5  1  0  0  0  0
  4  6  1  0  0  0  0
  4  7  1  0  0  0  0
  7  8  1  0  0  0  0
  7  9  1  0  0  0  0
  7 10  1  0  0  0  0
 10 11  1  0  0  0  0
  1 12  1  0  0  0  0
 10 12  1  0  0  0  0
 12 13  1  0  0  0  0
 12 14  1  0  0  0  0
 10 15  1  0  0  0  0
 15 16  1  0  0  0  0
M  END
> <VConfSearch Rank>
600

> <Conf_Id>
20

> <Delta U+W>
-0.483

> <U+W>
2.527

> <U>
4.508

> <W>
-1.981

> <W(PB)>
-3.712

> <W(SA)>
1.732

> <Valence>
14.705

> <Coulomb>
-10.687

> <VdW>
0.490

> <VdW6>
-3.745

> <VdW12>
4.235

> <Bond>
0.068

> <Angle>
3.901

> <Pdih>
10.737

> <Idih>
0.000

> <Tether>
0.000

$$$$
VeraChem MOL file


 16 16  0  0  0  0  0  0  0  0999 V2000     
   18.3048   17.6575   21.8665 C   0  0  0  0  0  0  0  0  0  0  0  0
   18.5396   17.4462   20.8140 H   0  0  0  0  0  0  0  0  0  0  0  0
   17.4216   17.0677   22.1472 H   0  0  0  0  0  0  0  0  0  0  0  0
   18.0859   19.1653   22.0520 C   0  0  0  0  0  0  0  0  0  0  0  0
   17.5340   19.6136   21.2147 H   0  0  0  0  0  0  0  0  0  0  0  0
   17.5167   19.3455   22.9746 H   0  0  0  0  0  0  0  0  0  0  0  0
   19.5057   19.7438   22.1945 C   0  0  0  0  0  0  0  0  0  0  0  0
   19.5095   20.6491   22.8152 H   0  0  0  0  0  0  0  0  0  0  0  0
   19.8892   20.0141   21.2012 H   0  0  0  0  0  0  0  0  0  0  0  0
   20.3702   18.6265   22.8157 C   0  0  0  0  0  0  0  0  0  0  0  0
   20.5871   18.8597   23.8683 H   0  0  0  0  0  0  0  0  0  0  0  0
   19.5293   17.3352   22.7428 C   0  0  0  0  0  0  0  0  0  0  0  0
   20.1012   16.4875   22.3422 H   0  0  0  0  0  0  0  0  0  0  0  0
   19.1981   17.0661   23.7542 H   0  0  0  0  0  0  0  0  0  0  0  0
   21.5753   18.4696   22.0761 O   0  0  0  0  0  0  0  0  0  0  0  0
   22.0614   19.3182   22.1473 H   0  0  0  0  0  0  0  0  0  0  0  0
  1  2  1  0  0  0  0
  1  3  1  0  0  0  0
  1  4  1  0  0  0  0
  4  5  1  0  0  0  0
  4  6  1  0  0  0  0
  4  7  1  0  0  0  0
  7  8  1  0  0  0  0
  7  9  1  0  0  0  0
  7 10  1  0  0  0  0
 10 11  1  0  0  0  0
  1 12  1  0  0  0  0
 10 12  1  0  0  0  0
 12 13  1  0  0  0  0
 12 14  1  0  0  0  0
 10 15  1  0  0  0  0
 15 16  1  0  0  0  0
M  END
> <VConfSearch Rank>
601

> <Conf_Id>
59

> <Delta U+W>
0.000

> <U+W>
3.010

> <U>
5.843

> <W>
-2.833

> <W(PB)>
-4.568

> <W(SA)>
1.735

> <Valence>
13.789

> <Coulomb>
-8.574

> <VdW>
0.628

> <VdW6>
-3.284

> <VdW12>
3.912

> <Bond>
0.054

> <Angle>
4.034

> <Pdih>
9.702

> <Idih>
0.000

> <Tether>
0.000

$$$$
VeraChem MOL file


 16 16  0  0  0  0  0  0  0  0999 V2000     
   20.4677   18.0917   23.1631 C   0  0  0  0  0  0  0  0  0  0  0  0
   21.1748   18.4483   23.9244 H   0  0  0  0  0  0  0  0  0  0  0  0
   20.4897   16.9930   23.1615 H   0  0  0  0  0  0  0  0  0  0  0  0
   20.8052   18.6169   21.7609 C   0  0  0  0  0  0  0  0  0  0  0  0
   21.1333   19.6635   21.8288 H   0  0  0  0  0  0  0  0  0  0  0  0
   21.6024   18.0370   21.2764 H   0  0  0  0  0  0  0  0  0  0  0  0
   19.4737   18.5428   20.9910 C   0  0  0  0  0  0  0  0  0  0  0  0
   19.3856   17.5647   20.5006 H   0  0  0  0  0  0  0  0  0  0  0  0
   19.4141   19.3138   20.2112 H   0  0  0  0  0  0  0  0  0  0  0  0
   18.3509   18.6827   22.0397 C   0  0  0  0  0  0  0  0  0  0  0  0
   17.6322   17.8597   21.9143 H   0  0  0  0  0  0  0  0  0  0  0  0
   19.0317   18.5836   23.4211 C   0  0  0  0  0  0  0  0  0  0  0  0
   19.0667   19.5717   23.9000 H   0  0  0  0  0  0  0  0  0  0  0  0
   18.4890   17.9037   24.0905 H   0  0  0  0  0  0  0  0  0  0  0  0
   17.7038   19.9419   21.9005 O   0  0  0  0  0  0  0  0  0  0  0  0
   17.0120   19.9808   22.5943 H   0  0  0  0  0  0  0  0  0  0  0  0
  1  2  1  0  0  0  0
  1  3  1  0  0  0  0
  1  4  1  0  0  0  0
  4  5  1  0  0  0  0
  4  6  1  0  0  0  0
  4  7  1  0  0  0  0
  7  8  1  0  0  0  0
  7  9  1  0  0  0  0
  7 10  1  0  0  0  0
 10 11  1  0  0  0  0
  1 12  1  0  0  0  0
 10 12  1  0  0  0  0
 12 13  1  0  0  0  0
 12 14  1  0  0  0  0
 10 15  1  0  0  0  0
 15 16  1  0  0  0  0
M  END
> <VConfSearch Rank>
602

> <Conf_Id>
33

> <Delta U+W>
0.015

> <U+W>
3.025

> <U>
5.843

> <W>
-2.819

> <W(PB)>
-4.568

> <W(SA)>
1.750

> <Valence>
13.789

> <Coulomb>
-8.574

> <VdW>
0.628

> <VdW6>
-3.284

> <VdW12>
3.913

> <Bond>
0.054

> <Angle>
4.033

> <Pdih>
9.702

> <Idih>
0.000

> <Tether>
0.000

$$$$
VeraChem MOL file


 16 16  0  0  0  0  0  0  0  0999 V2000     
   19.7455   19.3532   23.3060 C   0  0  0  0  0  0  0  0  0  0  0  0
   19.6181   18.8578   24.2784 H   0  0  0  0  0  0  0  0  0  0  0  0
   20.1712   20.3487   23.4923 H   0  0  0  0  0  0  0  0  0  0  0  0
   18.3852   19.4440   22.5805 C   0  0  0  0  0  0  0  0  0  0  0  0
   17.5993   18.9935   23.2023 H   0  0  0  0  0  0  0  0  0  0  0  0
   18.0998   20.4870   22.3865 H   0  0  0  0  0  0  0  0  0  0  0  0
   18.5389   18.6564   21.2620 C   0  0  0  0  0  0  0  0  0  0  0  0
   18.7549   19.3533   20.4415 H   0  0  0  0  0  0  0  0  0  0  0  0
   17.6276   18.1029   20.9991 H   0  0  0  0  0  0  0  0  0  0  0  0
   19.7458   17.7292   21.4589 C   0  0  0  0  0  0  0  0  0  0  0  0
   20.2396   17.4994   20.5037 H   0  0  0  0  0  0  0  0  0  0  0  0
   20.6706   18.5152   22.3980 C   0  0  0  0  0  0  0  0  0  0  0  0
   21.3348   17.8574   22.9742 H   0  0  0  0  0  0  0  0  0  0  0  0
   21.3014   19.1851   21.7988 H   0  0  0  0  0  0  0  0  0  0  0  0
   19.3209   16.5400   22.1085 O   0  0  0  0  0  0  0  0  0  0  0  0
   18.8981   16.8405   22.9392 H   0  0  0  0  0  0  0  0  0  0  0  0
  1  2  1  0  0  0  0
  1  3  1  0  0  0  0
  1  4  1  0  0  0  0
  4  5  1  0  0  0  0
  4  6  1  0  0  0  0
  4  7  1  0  0  0  0
  7  8  1  0  0  0  0
  7  9  1  0  0  0  0
  7 10  1  0  0  0  0
 10 11  1  0  0  0  0
  1 12  1  0  0  0  0
 10 12  1  0  0  0  0
 12 13  1  0  0  0  0
 12 14  1  0  0  0  0
 10 15  1  0  0  0  0
 15 16  1  0  0  0  0
M  END
> <VConfSearch Rank>
603

> <Conf_Id>
20

> <Delta U+W>
-0.483

> <U+W>
2.527

> <U>
4.508

> <W>
-1.981

> <W(PB)>
-3.712

> <W(SA)>
1.732

> <Valence>
14.705

> <Coulomb>
-10.687

> <VdW>
0.490

> <VdW6>
-3.745

> <VdW12>
4.235

> <Bond>
0.068

> <Angle>
3.901

> <Pdih>
10.737

> <Idih>
0.000

> <Tether>
0.000

$$$$
VeraChem MOL file


 16 16  0  0  0  0  0  0  0  0999 V2000     
   18.7267   17.2467   22.3903 C   0  0  0  0  0  0  0  0  0  0  0  0
   17.6471   17.4518   22.3871 H   0  0  0  0  0  0  0  0  0  0  0  0
   18.8701   16.1576   22.3920 H   0  0  0  0  0  0  0  0  0  0  0  0
   19.3756   17.9253   23.6045 C   0  0  0  0  0  0  0  0  0  0  0  0
   18.7512   17.8554   24.5056 H   0  0  0  0  0  0  0  0  0  0  0  0
   20.3434   17.4512   23.8195 H   0  0  0  0  0  0  0  0  0  0  0  0
   19.5969   19.3816   23.1565 C   0  0  0  0  0  0  0  0  0  0  0  0
   20.4620   19.8297   23.6621 H   0  0  0  0  0  0  0  0  0  0  0  0
   18.7107   19.9787   23.4112 H   0  0  0  0  0  0  0  0  0  0  0  0
   19.7926   19.3410   21.6263 C   0  0  0  0  0  0  0  0  0  0  0  0
   20.8503   19.5108   21.3774 H   0  0  0  0  0  0  0  0  0  0  0  0
   19.3838   17.9240   21.1735 C   0  0  0  0  0  0  0  0  0  0  0  0
   18.7090   17.9417   20.3073 H   0  0  0  0  0  0  0  0  0  0  0  0
   20.2843   17.3672   20.8835 H   0  0  0  0  0  0  0  0  0  0  0  0
   18.9654   20.3140   20.9995 O   0  0  0  0  0  0  0  0  0  0  0  0
   19.2604   21.1888   21.3300 H   0  0  0  0  0  0  0  0  0  0  0  0
  1  2  1  0  0  0  0
  1  3  1  0  0  0  0
  1  4  1  0  0  0  0
  4  5  1  0  0  0  0
  4  6  1  0  0  0  0
  4  7  1  0  0  0  0
  7  8  1  0  0  0  0
  7  9  1  0  0  0  0
  7 10  1  0  0  0  0
 10 11  1  0  0  0  0
  1 12  1  0  0  0  0
 10 12  1  0  0  0  0
 12 13  1  0  0  0  0
 12 14  1  0  0  0  0
 10 15  1  0  0  0  0
 15 16  1  0  0  0  0
M  END
> <VConfSearch Rank>
604

> <Conf_Id>
59

> <Delta U+W>
0.000

> <U+W>
3.010

> <U>
5.843

> <W>
-2.833

> <W(PB)>
-4.568

> <W(SA)>
1.735

> <Valence>
13.789

> <Coulomb>
-8.574

> <VdW>
0.628

> <VdW6>
-3.284

> <VdW12>
3.912

> <Bond>
0.054

> <Angle>
4.034

> <Pdih>
9.702

> <Idih>
0.000

> <Tether>
0.000

$$$$
VeraChem MOL file


 16 16  0  0  0  0  0  0  0  0999 V2000     
   18.6912   17.4654   22.7004 C   0  0  0  0  0  0  0  0  0  0  0  0
   18.0419   16.6969   22.2593 H   0  0  0  0  0  0  0  0  0  0  0  0
   18.8858   17.1916   23.7467 H   0  0  0  0  0  0  0  0  0  0  0  0
   18.0635   18.8647   22.6410 C   0  0  0  0  0  0  0  0  0  0  0  0
   17.5487   18.9969   21.6791 H   0  0  0  0  0  0  0  0  0  0  0  0
   17.3358   19.0326   23.4466 H   0  0  0  0  0  0  0  0  0  0  0  0
   19.2618   19.8283   22.7212 C   0  0  0  0  0  0  0  0  0  0  0  0
   19.4708   20.0697   23.7715 H   0  0  0  0  0  0  0  0  0  0  0  0
   19.0584   20.7711   22.1961 H   0  0  0  0  0  0  0  0  0  0  0  0
   20.4711   19.0766   22.1277 C   0  0  0  0  0  0  0  0  0  0  0  0
   21.3128   19.1276   22.8337 H   0  0  0  0  0  0  0  0  0  0  0  0
   20.0242   17.6110   21.9436 C   0  0  0  0  0  0  0  0  0  0  0  0
   19.8631   17.3930   20.8790 H   0  0  0  0  0  0  0  0  0  0  0  0
   20.7785   16.9087   22.3211 H   0  0  0  0  0  0  0  0  0  0  0  0
   20.8319   19.6411   20.8727 O   0  0  0  0  0  0  0  0  0  0  0  0
   21.5930   19.1209   20.5386 H   0  0  0  0  0  0  0  0  0  0  0  0
  1  2  1  0  0  0  0
  1  3  1  0  0  0  0
  1  4  1  0  0  0  0
  4  5  1  0  0  0  0
  4  6  1  0  0  0  0
  4  7  1  0  0  0  0
  7  8  1  0  0  0  0
  7  9  1  0  0  0  0
  7 10  1  0  0  0  0
 10 11  1  0  0  0  0
  1 12  1  0  0  0  0
 10 12  1  0  0  0  0
 12 13  1  0  0  0  0
 12 14  1  0  0  0  0
 10 15  1  0  0  0  0
 15 16  1  0  0  0  0
M  END
> <VConfSearch Rank>
605

> <Conf_Id>
33

> <Delta U+W>
0.015

> <U+W>
3.025

> <U>
5.843

> <W>
-2.819

> <W(PB)>
-4.568

> <W(SA)>
1.750

> <Valence>
13.789

> <Coulomb>
-8.574

> <VdW>
0.628

> <VdW6>
-3.284

> <VdW12>
3.913

> <Bond>
0.054

> <Angle>
4.033

> <Pdih>
9.702

> <Idih>
0.000

> <Tether>
0.000

$$$$
VeraChem MOL file


 16 16  0  0  0  0  0  0  0  0999 V2000     
   19.1453   19.8116   21.7221 C   0  0  0  0  0  0  0  0  0  0  0  0
   18.6305   19.7818   20.7519 H   0  0  0  0  0  0  0  0  0  0  0  0
   19.3069   20.8670   21.9813 H   0  0  0  0  0  0  0  0  0  0  0  0
   20.4790   19.0380   21.6331 C   0  0  0  0  0  0  0  0  0  0  0  0
   20.6102   18.6347   20.6196 H   0  0  0  0  0  0  0  0  0  0  0  0
   21.3382   19.6885   21.8468 H   0  0  0  0  0  0  0  0  0  0  0  0
   20.3864   17.8869   22.6572 C   0  0  0  0  0  0  0  0  0  0  0  0
   20.8924   18.1809   23.5863 H   0  0  0  0  0  0  0  0  0  0  0  0
   20.8633   16.9670   22.2937 H   0  0  0  0  0  0  0  0  0  0  0  0
   18.8914   17.6923   22.9441 C   0  0  0  0  0  0  0  0  0  0  0  0
   18.7224   17.2847   23.9512 H   0  0  0  0  0  0  0  0  0  0  0  0
   18.2974   19.0997   22.7975 C   0  0  0  0  0  0  0  0  0  0  0  0
   17.2305   19.0759   22.5381 H   0  0  0  0  0  0  0  0  0  0  0  0
   18.3970   19.6301   23.7537 H   0  0  0  0  0  0  0  0  0  0  0  0
   18.3317   16.8429   21.9532 O   0  0  0  0  0  0  0  0  0  0  0  0
   18.5293   17.2818   21.1002 H   0  0  0  0  0  0  0  0  0  0  0  0
  1  2  1  0  0  0  0
  1  3  1  0  0  0  0
  1  4  1  0  0  0  0
  4  5  1  0  0  0  0
  4  6  1  0  0  0  0
  4  7  1  0  0  0  0
  7  8  1  0  0  0  0
  7  9  1  0  0  0  0
  7 10  1  0  0  0  0
 10 11  1  0  0  0  0
  1 12  1  0  0  0  0
 10 12  1  0  0  0  0
 12 13  1  0  0  0  0
 12 14  1  0  0  0  0
 10 15  1  0  0  0  0
 15 16  1  0  0  0  0
M  END
> <VConfSearch Rank>
606

> <Conf_Id>
20

> <Delta U+W>
-0.483

> <U+W>
2.527

> <U>
4.508

> <W>
-1.981

> <W(PB)>
-3.712

> <W(SA)>
1.732

> <Valence>
14.705

> <Coulomb>
-10.687

> <VdW>
0.490

> <VdW6>
-3.745

> <VdW12>
4.235

> <Bond>
0.068

> <Angle>
3.901

> <Pdih>
10.737

> <Idih>
0.000

> <Tether>
0.000

$$$$
VeraChem MOL file


 16 16  0  0  0  0  0  0  0  0999 V2000     
   18.4926   17.6911   21.5268 C   0  0  0  0  0  0  0  0  0  0  0  0
   17.6143   17.5128   22.1628 H   0  0  0  0  0  0  0  0  0  0  0  0
   18.3233   17.1978   20.5601 H   0  0  0  0  0  0  0  0  0  0  0  0
   19.7533   17.1764   22.2348 C   0  0  0  0  0  0  0  0  0  0  0  0
   19.5793   16.2282   22.7615 H   0  0  0  0  0  0  0  0  0  0  0  0
   20.5528   17.0182   21.4975 H   0  0  0  0  0  0  0  0  0  0  0  0
   20.1466   18.3154   23.1932 C   0  0  0  0  0  0  0  0  0  0  0  0
   21.2299   18.3361   23.3685 H   0  0  0  0  0  0  0  0  0  0  0  0
   19.6509   18.1626   24.1616 H   0  0  0  0  0  0  0  0  0  0  0  0
   19.6525   19.6234   22.5401 C   0  0  0  0  0  0  0  0  0  0  0  0
   20.5056   20.1885   22.1372 H   0  0  0  0  0  0  0  0  0  0  0  0
   18.7243   19.2064   21.3806 C   0  0  0  0  0  0  0  0  0  0  0  0
   17.7772   19.7624   21.3843 H   0  0  0  0  0  0  0  0  0  0  0  0
   19.2281   19.4118   20.4272 H   0  0  0  0  0  0  0  0  0  0  0  0
   18.9337   20.4042   23.4875 O   0  0  0  0  0  0  0  0  0  0  0  0
   19.5653   20.6302   24.2027 H   0  0  0  0  0  0  0  0  0  0  0  0
  1  2  1  0  0  0  0
  1  3  1  0  0  0  0
  1  4  1  0  0  0  0
  4  5  1  0  0  0  0
  4  6  1  0  0  0  0
  4  7  1  0  0  0  0
  7  8  1  0  0  0  0
  7  9  1  0  0  0  0
  7 10  1  0  0  0  0
 10 11  1  0  0  0  0
  1 12  1  0  0  0  0
 10 12  1  0  0  0  0
 12 13  1  0  0  0  0
 12 14  1  0  0  0  0
 10 15  1  0  0  0  0
 15 16  1  0  0  0  0
M  END
> <VConfSearch Rank>
607

> <Conf_Id>
59

> <Delta U+W>
0.000

> <U+W>
3.010

> <U>
5.843

> <W>
-2.833

> <W(PB)>
-4.568

> <W(SA)>
1.735

> <Valence>
13.789

> <Coulomb>
-8.574

> <VdW>
0.628

> <VdW6>
-3.284

> <VdW12>
3.912

> <Bond>
0.054

> <Angle>
4.034

> <Pdih>
9.702

> <Idih>
0.000

> <Tether>
0.000

$$$$
VeraChem MOL file


 16 16  0  0  0  0  0  0  0  0999 V2000     
   18.6081   17.4704   22.0814 C   0  0  0  0  0  0  0  0  0  0  0  0
   17.8252   16.9053   22.6053 H   0  0  0  0  0  0  0  0  0  0  0  0
   18.6714   17.0949   21.0506 H   0  0  0  0  0  0  0  0  0  0  0  0
   19.9771   17.3410   22.7630 C   0  0  0  0  0  0  0  0  0  0  0  0
   19.8492   17.3674   23.8542 H   0  0  0  0  0  0  0  0  0  0  0  0
   20.4904   16.4063   22.4992 H   0  0  0  0  0  0  0  0  0  0  0  0
   20.7552   18.5882   22.3047 C   0  0  0  0  0  0  0  0  0  0  0  0
   21.3002   18.3629   21.3789 H   0  0  0  0  0  0  0  0  0  0  0  0
   21.4906   18.9048   23.0564 H   0  0  0  0  0  0  0  0  0  0  0  0
   19.7047   19.6807   22.0169 C   0  0  0  0  0  0  0  0  0  0  0  0
   19.8789   20.0970   21.0139 H   0  0  0  0  0  0  0  0  0  0  0  0
   18.3283   18.9844   22.0680 C   0  0  0  0  0  0  0  0  0  0  0  0
   17.7945   19.2634   22.9867 H   0  0  0  0  0  0  0  0  0  0  0  0
   17.7004   19.2687   21.2137 H   0  0  0  0  0  0  0  0  0  0  0  0
   19.7753   20.7017   23.0050 O   0  0  0  0  0  0  0  0  0  0  0  0
   19.0831   21.3589   22.7804 H   0  0  0  0  0  0  0  0  0  0  0  0
  1  2  1  0  0  0  0
  1  3  1  0  0  0  0
  1  4  1  0  0  0  0
  4  5  1  0  0  0  0
  4  6  1  0  0  0  0
  4  7  1  0  0  0  0
  7  8  1  0  0  0  0
  7  9  1  0  0  0  0
  7 10  1  0  0  0  0
 10 11  1  0  0  0  0
  1 12  1  0  0  0  0
 10 12  1  0  0  0  0
 12 13  1  0  0  0  0
 12 14  1  0  0  0  0
 10 15  1  0  0  0  0
 15 16  1  0  0  0  0
M  END
> <VConfSearch Rank>
608

> <Conf_Id>
33

> <Delta U+W>
0.015

> <U+W>
3.025

> <U>
5.843

> <W>
-2.819

> <W(PB)>
-4.568

> <W(SA)>
1.750

> <Valence>
13.789

> <Coulomb>
-8.574

> <VdW>
0.628

> <VdW6>
-3.284

> <VdW12>
3.913

> <Bond>
0.054

> <Angle>
4.033

> <Pdih>
9.702

> <Idih>
0.000

> <Tether>
0.000

$$$$
VeraChem MOL file


 16 16  0  0  0  0  0  0  0  0999 V2000     
   19.6622   19.2612   21.1265 C   0  0  0  0  0  0  0  0  0  0  0  0
   20.1949   20.2110   21.2727 H   0  0  0  0  0  0  0  0  0  0  0  0
   19.5312   19.1156   20.0455 H   0  0  0  0  0  0  0  0  0  0  0  0
   18.3052   19.3013   21.8627 C   0  0  0  0  0  0  0  0  0  0  0  0
   18.1807   20.2708   22.3644 H   0  0  0  0  0  0  0  0  0  0  0  0
   17.4644   19.1756   21.1669 H   0  0  0  0  0  0  0  0  0  0  0  0
   18.3385   18.1625   22.9041 C   0  0  0  0  0  0  0  0  0  0  0  0
   17.8244   17.2806   22.4999 H   0  0  0  0  0  0  0  0  0  0  0  0
   17.8381   18.4407   23.8413 H   0  0  0  0  0  0  0  0  0  0  0  0
   19.8200   17.8225   23.1151 C   0  0  0  0  0  0  0  0  0  0  0  0
   19.9552   16.7752   23.4216 H   0  0  0  0  0  0  0  0  0  0  0  0
   20.4641   18.0990   21.7499 C   0  0  0  0  0  0  0  0  0  0  0  0
   21.5344   18.3297   21.8339 H   0  0  0  0  0  0  0  0  0  0  0  0
   20.3634   17.2048   21.1206 H   0  0  0  0  0  0  0  0  0  0  0  0
   20.3703   18.7077   24.0796 O   0  0  0  0  0  0  0  0  0  0  0  0
   20.2047   19.6056   23.7252 H   0  0  0  0  0  0  0  0  0  0  0  0
  1  2  1  0  0  0  0
  1  3  1  0  0  0  0
  1  4  1  0  0  0  0
  4  5  1  0  0  0  0
  4  6  1  0  0  0  0
  4  7  1  0  0  0  0
  7  8  1  0  0  0  0
  7  9  1  0  0  0  0
  7 10  1  0  0  0  0
 10 11  1  0  0  0  0
  1 12  1  0  0  0  0
 10 12  1  0  0  0  0
 12 13  1  0  0  0  0
 12 14  1  0  0  0  0
 10 15  1  0  0  0  0
 15 16  1  0  0  0  0
M  END
> <VConfSearch Rank>
609

> <Conf_Id>
20

> <Delta U+W>
-0.483

> <U+W>
2.527

> <U>
4.508

> <W>
-1.981

> <W(PB)>
-3.712

> <W(SA)>
1.732

> <Valence>
14.705

> <Coulomb>
-10.687

> <VdW>
0.490

> <VdW6>
-3.745

> <VdW12>
4.235

> <Bond>
0.068

> <Angle>
3.901

> <Pdih>
10.737

> <Idih>
0.000

> <Tether>
0.000

$$$$
VeraChem MOL file


 16 16  0  0  0  0  0  0  0  0999 V2000     
   20.5176   17.9921   21.6407 C   0  0  0  0  0  0  0  0  0  0  0  0
   21.3630   18.6168   21.9614 H   0  0  0  0  0  0  0  0  0  0  0  0
   20.9071   17.1867   21.0034 H   0  0  0  0  0  0  0  0  0  0  0  0
   19.4805   18.8622   20.9175 C   0  0  0  0  0  0  0  0  0  0  0  0
   19.9468   19.6160   20.2685 H   0  0  0  0  0  0  0  0  0  0  0  0
   18.8336   18.2270   20.2965 H   0  0  0  0  0  0  0  0  0  0  0  0
   18.6543   19.4960   22.0516 C   0  0  0  0  0  0  0  0  0  0  0  0
   17.6251   19.7029   21.7309 H   0  0  0  0  0  0  0  0  0  0  0  0
   19.1138   20.4492   22.3468 H   0  0  0  0  0  0  0  0  0  0  0  0
   18.6921   18.4974   23.2276 C   0  0  0  0  0  0  0  0  0  0  0  0
   17.7198   17.9926   23.3242 H   0  0  0  0  0  0  0  0  0  0  0  0
   19.7746   17.4553   22.8780 C   0  0  0  0  0  0  0  0  0  0  0  0
   20.4622   17.2719   23.7145 H   0  0  0  0  0  0  0  0  0  0  0  0
   19.2880   16.5028   22.6311 H   0  0  0  0  0  0  0  0  0  0  0  0
   19.0314   19.1716   24.4335 O   0  0  0  0  0  0  0  0  0  0  0  0
   18.3196   19.8251   24.6002 H   0  0  0  0  0  0  0  0  0  0  0  0
  1  2  1  0  0  0  0
  1  3  1  0  0  0  0
  1  4  1  0  0  0  0
  4  5  1  0  0  0  0
  4  6  1  0  0  0  0
  4  7  1  0  0  0  0
  7  8  1  0  0  0  0
  7  9  1  0  0  0  0
  7 10  1  0  0  0  0
 10 11  1  0  0  0  0
  1 12  1  0  0  0  0
 10 12  1  0  0  0  0
 12 13  1  0  0  0  0
 12 14  1  0  0  0  0
 10 15  1  0  0  0  0
 15 16  1  0  0  0  0
M  END
> <VConfSearch Rank>
610

> <Conf_Id>
59

> <Delta U+W>
0.000

> <U+W>
3.010

> <U>
5.843

> <W>
-2.833

> <W(PB)>
-4.568

> <W(SA)>
1.735

> <Valence>
13.789

> <Coulomb>
-8.574

> <VdW>
0.628

> <VdW6>
-3.284

> <VdW12>
3.912

> <Bond>
0.054

> <Angle>
4.034

> <Pdih>
9.702

> <Idih>
0.000

> <Tether>
0.000

$$$$
VeraChem MOL file


 16 16  0  0  0  0  0  0  0  0999 V2000     
   18.5775   19.5848   22.8839 C   0  0  0  0  0  0  0  0  0  0  0  0
   17.6382   20.1072   22.6571 H   0  0  0  0  0  0  0  0  0  0  0  0
   18.8548   19.8119   23.9227 H   0  0  0  0  0  0  0  0  0  0  0  0
   19.7175   19.9982   21.9430 C   0  0  0  0  0  0  0  0  0  0  0  0
   19.3287   20.1131   20.9216 H   0  0  0  0  0  0  0  0  0  0  0  0
   20.1852   20.9462   22.2419 H   0  0  0  0  0  0  0  0  0  0  0  0
   20.7033   18.8162   21.9896 C   0  0  0  0  0  0  0  0  0  0  0  0
   21.4341   18.9774   22.7927 H   0  0  0  0  0  0  0  0  0  0  0  0
   21.2590   18.7158   21.0478 H   0  0  0  0  0  0  0  0  0  0  0  0
   19.8686   17.5600   22.3138 C   0  0  0  0  0  0  0  0  0  0  0  0
   20.3241   17.0305   23.1634 H   0  0  0  0  0  0  0  0  0  0  0  0
   18.4602   18.0610   22.6973 C   0  0  0  0  0  0  0  0  0  0  0  0
   17.7472   17.8477   21.8893 H   0  0  0  0  0  0  0  0  0  0  0  0
   18.0926   17.5724   23.6089 H   0  0  0  0  0  0  0  0  0  0  0  0
   19.7946   16.7125   21.1736 O   0  0  0  0  0  0  0  0  0  0  0  0
   19.2470   15.9411   21.4316 H   0  0  0  0  0  0  0  0  0  0  0  0
  1  2  1  0  0  0  0
  1  3  1  0  0  0  0
  1  4  1  0  0  0  0
  4  5  1  0  0  0  0
  4  6  1  0  0  0  0
  4  7  1  0  0  0  0
  7  8  1  0  0  0  0
  7  9  1  0  0  0  0
  7 10  1  0  0  0  0
 10 11  1  0  0  0  0
  1 12  1  0  0  0  0
 10 12  1  0  0  0  0
 12 13  1  0  0  0  0
 12 14  1  0  0  0  0
 10 15  1  0  0  0  0
 15 16  1  0  0  0  0
M  END
> <VConfSearch Rank>
611

> <Conf_Id>
33

> <Delta U+W>
0.015

> <U+W>
3.025

> <U>
5.843

> <W>
-2.819

> <W(PB)>
-4.568

> <W(SA)>
1.750

> <Valence>
13.789

> <Coulomb>
-8.574

> <VdW>
0.628

> <VdW6>
-3.284

> <VdW12>
3.913

> <Bond>
0.054

> <Angle>
4.033

> <Pdih>
9.702

> <Idih>
0.000

> <Tether>
0.000

$$$$
VeraChem MOL file


 16 16  0  0  0  0  0  0  0  0999 V2000     
   19.1932   17.6018   21.4015 C   0  0  0  0  0  0  0  0  0  0  0  0
   18.4066   17.7807   20.6556 H   0  0  0  0  0  0  0  0  0  0  0  0
   19.6231   16.6108   21.2014 H   0  0  0  0  0  0  0  0  0  0  0  0
   18.5971   17.6855   22.8237 C   0  0  0  0  0  0  0  0  0  0  0  0
   17.5219   17.9039   22.7661 H   0  0  0  0  0  0  0  0  0  0  0  0
   18.7162   16.7385   23.3679 H   0  0  0  0  0  0  0  0  0  0  0  0
   19.3368   18.8345   23.5414 C   0  0  0  0  0  0  0  0  0  0  0  0
   20.1439   18.4211   24.1605 H   0  0  0  0  0  0  0  0  0  0  0  0
   18.6725   19.4103   24.1995 H   0  0  0  0  0  0  0  0  0  0  0  0
   19.9520   19.7010   22.4343 C   0  0  0  0  0  0  0  0  0  0  0  0
   20.8559   20.2211   22.7827 H   0  0  0  0  0  0  0  0  0  0  0  0
   20.2716   18.7026   21.3136 C   0  0  0  0  0  0  0  0  0  0  0  0
   20.2985   19.1810   20.3254 H   0  0  0  0  0  0  0  0  0  0  0  0
   21.2605   18.2630   21.4990 H   0  0  0  0  0  0  0  0  0  0  0  0
   18.9807   20.6281   21.9718 O   0  0  0  0  0  0  0  0  0  0  0  0
   18.2212   20.0799   21.6856 H   0  0  0  0  0  0  0  0  0  0  0  0
  1  2  1  0  0  0  0
  1  3  1  0  0  0  0
  1  4  1  0  0  0  0
  4  5  1  0  0  0  0
  4  6  1  0  0  0  0
  4  7  1  0  0  0  0
  7  8  1  0  0  0  0
  7  9  1  0  0  0  0
  7 10  1  0  0  0  0
 10 11  1  0  0  0  0
  1 12  1  0  0  0  0
 10 12  1  0  0  0  0
 12 13  1  0  0  0  0
 12 14  1  0  0  0  0
 10 15  1  0  0  0  0
 15 16  1  0  0  0  0
M  END
> <VConfSearch Rank>
612

> <Conf_Id>
20

> <Delta U+W>
-0.483

> <U+W>
2.527

> <U>
4.508

> <W>
-1.981

> <W(PB)>
-3.712

> <W(SA)>
1.732

> <Valence>
14.705

> <Coulomb>
-10.687

> <VdW>
0.490

> <VdW6>
-3.745

> <VdW12>
4.235

> <Bond>
0.068

> <Angle>
3.901

> <Pdih>
10.737

> <Idih>
0.000

> <Tether>
0.000

$$$$
VeraChem MOL file


 16 16  0  0  0  0  0  0  0  0999 V2000     
   20.1700   19.7503   22.1606 C   0  0  0  0  0  0  0  0  0  0  0  0
   20.1127   19.9975   21.0914 H   0  0  0  0  0  0  0  0  0  0  0  0
   20.7592   20.5296   22.6629 H   0  0  0  0  0  0  0  0  0  0  0  0
   20.7792   18.3521   22.3333 C   0  0  0  0  0  0  0  0  0  0  0  0
   21.6036   18.1658   21.6316 H   0  0  0  0  0  0  0  0  0  0  0  0
   21.1666   18.2414   23.3557 H   0  0  0  0  0  0  0  0  0  0  0  0
   19.5969   17.3898   22.1171 C   0  0  0  0  0  0  0  0  0  0  0  0
   19.7285   16.4591   22.6839 H   0  0  0  0  0  0  0  0  0  0  0  0
   19.5305   17.1296   21.0519 H   0  0  0  0  0  0  0  0  0  0  0  0
   18.3300   18.1506   22.5618 C   0  0  0  0  0  0  0  0  0  0  0  0
   17.9730   17.7567   23.5246 H   0  0  0  0  0  0  0  0  0  0  0  0
   18.7480   19.6251   22.7379 C   0  0  0  0  0  0  0  0  0  0  0  0
   18.0504   20.3174   22.2480 H   0  0  0  0  0  0  0  0  0  0  0  0
   18.7622   19.8676   23.8084 H   0  0  0  0  0  0  0  0  0  0  0  0
   17.3183   18.0429   21.5674 O   0  0  0  0  0  0  0  0  0  0  0  0
   17.1005   17.0899   21.4898 H   0  0  0  0  0  0  0  0  0  0  0  0
  1  2  1  0  0  0  0
  1  3  1  0  0  0  0
  1  4  1  0  0  0  0
  4  5  1  0  0  0  0
  4  6  1  0  0  0  0
  4  7  1  0  0  0  0
  7  8  1  0  0  0  0
  7  9  1  0  0  0  0
  7 10  1  0  0  0  0
 10 11  1  0  0  0  0
  1 12  1  0  0  0  0
 10 12  1  0  0  0  0
 12 13  1  0  0  0  0
 12 14  1  0  0  0  0
 10 15  1  0  0  0  0
 15 16  1  0  0  0  0
M  END
> <VConfSearch Rank>
613

> <Conf_Id>
59

> <Delta U+W>
0.000

> <U+W>
3.010

> <U>
5.843

> <W>
-2.833

> <W(PB)>
-4.568

> <W(SA)>
1.735

> <Valence>
13.789

> <Coulomb>
-8.574

> <VdW>
0.628

> <VdW6>
-3.284

> <VdW12>
3.912

> <Bond>
0.054

> <Angle>
4.034

> <Pdih>
9.702

> <Idih>
0.000

> <Tether>
0.000

$$$$
VeraChem MOL file


 16 16  0  0  0  0  0  0  0  0999 V2000     
   18.0470   18.4419   22.0527 C   0  0  0  0  0  0  0  0  0  0  0  0
   17.2845   17.6523   22.0962 H   0  0  0  0  0  0  0  0  0  0  0  0
   17.5398   19.3998   21.8718 H   0  0  0  0  0  0  0  0  0  0  0  0
   19.0851   18.1911   20.9502 C   0  0  0  0  0  0  0  0  0  0  0  0
   19.3300   17.1205   20.9116 H   0  0  0  0  0  0  0  0  0  0  0  0
   18.7262   18.4980   19.9584 H   0  0  0  0  0  0  0  0  0  0  0  0
   20.3240   18.9876   21.3993 C   0  0  0  0  0  0  0  0  0  0  0  0
   20.2755   20.0055   20.9912 H   0  0  0  0  0  0  0  0  0  0  0  0
   21.2534   18.5272   21.0383 H   0  0  0  0  0  0  0  0  0  0  0  0
   20.2661   19.0598   22.9392 C   0  0  0  0  0  0  0  0  0  0  0  0
   20.3771   20.1064   23.2583 H   0  0  0  0  0  0  0  0  0  0  0  0
   18.8761   18.5277   23.3472 C   0  0  0  0  0  0  0  0  0  0  0  0
   18.9664   17.5255   23.7879 H   0  0  0  0  0  0  0  0  0  0  0  0
   18.3961   19.1799   24.0883 H   0  0  0  0  0  0  0  0  0  0  0  0
   21.2880   18.2492   23.5071 O   0  0  0  0  0  0  0  0  0  0  0  0
   21.1974   18.3234   24.4806 H   0  0  0  0  0  0  0  0  0  0  0  0
  1  2  1  0  0  0  0
  1  3  1  0  0  0  0
  1  4  1  0  0  0  0
  4  5  1  0  0  0  0
  4  6  1  0  0  0  0
  4  7  1  0  0  0  0
  7  8  1  0  0  0  0
  7  9  1  0  0  0  0
  7 10  1  0  0  0  0
 10 11  1  0  0  0  0
  1 12  1  0  0  0  0
 10 12  1  0  0  0  0
 12 13  1  0  0  0  0
 12 14  1  0  0  0  0
 10 15  1  0  0  0  0
 15 16  1  0  0  0  0
M  END
> <VConfSearch Rank>
614

> <Conf_Id>
33

> <Delta U+W>
0.015

> <U+W>
3.025

> <U>
5.843

> <W>
-2.819

> <W(PB)>
-4.568

> <W(SA)>
1.750

> <Valence>
13.789

> <Coulomb>
-8.574

> <VdW>
0.628

> <VdW6>
-3.284

> <VdW12>
3.913

> <Bond>
0.054

> <Angle>
4.033

> <Pdih>
9.702

> <Idih>
0.000

> <Tether>
0.000

$$$$
VeraChem MOL file


 16 16  0  0  0  0  0  0  0  0999 V2000     
   20.0003   17.6289   22.9176 C   0  0  0  0  0  0  0  0  0  0  0  0
   19.3270   16.9517   23.4610 H   0  0  0  0  0  0  0  0  0  0  0  0
   21.0277   17.2716   23.0716 H   0  0  0  0  0  0  0  0  0  0  0  0
   19.8186   19.0739   23.4313 C   0  0  0  0  0  0  0  0  0  0  0  0
   19.0581   19.0960   24.2240 H   0  0  0  0  0  0  0  0  0  0  0  0
   20.7513   19.4730   23.8530 H   0  0  0  0  0  0  0  0  0  0  0  0
   19.3529   19.9129   22.2222 C   0  0  0  0  0  0  0  0  0  0  0  0
   20.2149   20.4305   21.7811 H   0  0  0  0  0  0  0  0  0  0  0  0
   18.6140   20.6748   22.5041 H   0  0  0  0  0  0  0  0  0  0  0  0
   18.7957   18.9129   21.2002 C   0  0  0  0  0  0  0  0  0  0  0  0
   18.8898   19.2904   20.1719 H   0  0  0  0  0  0  0  0  0  0  0  0
   19.6388   17.6491   21.4172 C   0  0  0  0  0  0  0  0  0  0  0  0
   19.1114   16.7383   21.1038 H   0  0  0  0  0  0  0  0  0  0  0  0
   20.5568   17.7260   20.8197 H   0  0  0  0  0  0  0  0  0  0  0  0
   17.4398   18.6301   21.5140 O   0  0  0  0  0  0  0  0  0  0  0  0
   17.4546   18.3036   22.4372 H   0  0  0  0  0  0  0  0  0  0  0  0
  1  2  1  0  0  0  0
  1  3  1  0  0  0  0
  1  4  1  0  0  0  0
  4  5  1  0  0  0  0
  4  6  1  0  0  0  0
  4  7  1  0  0  0  0
  7  8  1  0  0  0  0
  7  9  1  0  0  0  0
  7 10  1  0  0  0  0
 10 11  1  0  0  0  0
  1 12  1  0  0  0  0
 10 12  1  0  0  0  0
 12 13  1  0  0  0  0
 12 14  1  0  0  0  0
 10 15  1  0  0  0  0
 15 16  1  0  0  0  0
M  END
> <VConfSearch Rank>
615

> <Conf_Id>
20

> <Delta U+W>
-0.483

> <U+W>
2.527

> <U>
4.508

> <W>
-1.981

> <W(PB)>
-3.712

> <W(SA)>
1.732

> <Valence>
14.705

> <Coulomb>
-10.687

> <VdW>
0.490

> <VdW6>
-3.745

> <VdW12>
4.235

> <Bond>
0.068

> <Angle>
3.901

> <Pdih>
10.737

> <Idih>
0.000

> <Tether>
0.000

$$$$
VeraChem MOL file


 16 16  0  0  0  0  0  0  0  0999 V2000     
   18.8312   18.4808   20.9611 C   0  0  0  0  0  0  0  0  0  0  0  0
   18.0623   17.6965   20.9976 H   0  0  0  0  0  0  0  0  0  0  0  0
   18.8372   18.9101   19.9500 H   0  0  0  0  0  0  0  0  0  0  0  0
   20.1908   17.8869   21.3539 C   0  0  0  0  0  0  0  0  0  0  0  0
   20.3429   16.8810   20.9395 H   0  0  0  0  0  0  0  0  0  0  0  0
   20.9978   18.5357   20.9860 H   0  0  0  0  0  0  0  0  0  0  0  0
   20.1802   17.8909   22.8935 C   0  0  0  0  0  0  0  0  0  0  0  0
   21.1943   17.9914   23.3014 H   0  0  0  0  0  0  0  0  0  0  0  0
   19.7632   16.9416   23.2564 H   0  0  0  0  0  0  0  0  0  0  0  0
   19.2783   19.0686   23.3192 C   0  0  0  0  0  0  0  0  0  0  0  0
   19.8941   19.8934   23.7064 H   0  0  0  0  0  0  0  0  0  0  0  0
   18.5436   19.5356   22.0456 C   0  0  0  0  0  0  0  0  0  0  0  0
   17.4653   19.6632   22.2095 H   0  0  0  0  0  0  0  0  0  0  0  0
   18.9507   20.5059   21.7330 H   0  0  0  0  0  0  0  0  0  0  0  0
   18.3392   18.6390   24.2977 O   0  0  0  0  0  0  0  0  0  0  0  0
   18.8584   18.3449   25.0757 H   0  0  0  0  0  0  0  0  0  0  0  0
  1  2  1  0  0  0  0
  1  3  1  0  0  0  0
  1  4  1  0  0  0  0
  4  5  1  0  0  0  0
  4  6  1  0  0  0  0
  4  7  1  0  0  0  0
  7  8  1  0  0  0  0
  7  9  1  0  0  0  0
  7 10  1  0  0  0  0
 10 11  1  0  0  0  0
  1 12  1  0  0  0  0
 10 12  1  0  0  0  0
 12 13  1  0  0  0  0
 12 14  1  0  0  0  0
 10 15  1  0  0  0  0
 15 16  1  0  0  0  0
M  END
> <VConfSearch Rank>
616

> <Conf_Id>
59

> <Delta U+W>
0.000

> <U+W>
3.010

> <U>
5.843

> <W>
-2.833

> <W(PB)>
-4.568

> <W(SA)>
1.735

> <Valence>
13.789

> <Coulomb>
-8.574

> <VdW>
0.628

> <VdW6>
-3.284

> <VdW12>
3.912

> <Bond>
0.054

> <Angle>
4.034

> <Pdih>
9.702

> <Idih>
0.000

> <Tether>
0.000

$$$$
VeraChem MOL file


 16 16  0  0  0  0  0  0  0  0999 V2000     
   19.1496   17.2904   21.8214 C   0  0  0  0  0  0  0  0  0  0  0  0
   18.9538   16.2873   22.2242 H   0  0  0  0  0  0  0  0  0  0  0  0
   18.9426   17.2738   20.7423 H   0  0  0  0  0  0  0  0  0  0  0  0
   20.5957   17.7446   22.0629 C   0  0  0  0  0  0  0  0  0  0  0  0
   20.9184   17.4290   23.0649 H   0  0  0  0  0  0  0  0  0  0  0  0
   21.2956   17.3246   21.3278 H   0  0  0  0  0  0  0  0  0  0  0  0
   20.5319   19.2819   22.0020 C   0  0  0  0  0  0  0  0  0  0  0  0
   20.6987   19.6170   20.9700 H   0  0  0  0  0  0  0  0  0  0  0  0
   21.3038   19.7438   22.6318 H   0  0  0  0  0  0  0  0  0  0  0  0
   19.1062   19.6805   22.4360 C   0  0  0  0  0  0  0  0  0  0  0  0
   18.6738   20.3577   21.6851 H   0  0  0  0  0  0  0  0  0  0  0  0
   18.2897   18.3724   22.5001 C   0  0  0  0  0  0  0  0  0  0  0  0
   18.1071   18.0885   23.5454 H   0  0  0  0  0  0  0  0  0  0  0  0
   17.3161   18.4800   22.0049 H   0  0  0  0  0  0  0  0  0  0  0  0
   19.1387   20.3020   23.7153 O   0  0  0  0  0  0  0  0  0  0  0  0
   18.2111   20.5224   23.9445 H   0  0  0  0  0  0  0  0  0  0  0  0
  1  2  1  0  0  0  0
  1  3  1  0  0  0  0
  1  4  1  0  0  0  0
  4  5  1  0  0  0  0
  4  6  1  0  0  0  0
  4  7  1  0  0  0  0
  7  8  1  0  0  0  0
  7  9  1  0  0  0  0
  7 10  1  0  0  0  0
 10 11  1  0  0  0  0
  1 12  1  0  0  0  0
 10 12  1  0  0  0  0
 12 13  1  0  0  0  0
 12 14  1  0  0  0  0
 10 15  1  0  0  0  0
 15 16  1  0  0  0  0
M  END
> <VConfSearch Rank>
617

> <Conf_Id>
33

> <Delta U+W>
0.015

> <U+W>
3.025

> <U>
5.843

> <W>
-2.819

> <W(PB)>
-4.568

> <W(SA)>
1.750

> <Valence>
13.789

> <Coulomb>
-8.574

> <VdW>
0.628

> <VdW6>
-3.284

> <VdW12>
3.913

> <Bond>
0.054

> <Angle>
4.033

> <Pdih>
9.702

> <Idih>
0.000

> <Tether>
0.000

$$$$
VeraChem MOL file


 16 16  0  0  0  0  0  0  0  0999 V2000     
   18.6954   17.4828   22.0401 C   0  0  0  0  0  0  0  0  0  0  0  0
   19.3180   16.6271   21.7445 H   0  0  0  0  0  0  0  0  0  0  0  0
   17.6537   17.1368   22.0866 H   0  0  0  0  0  0  0  0  0  0  0  0
   18.8669   18.6330   21.0239 C   0  0  0  0  0  0  0  0  0  0  0  0
   19.5717   18.3336   20.2360 H   0  0  0  0  0  0  0  0  0  0  0  0
   17.9147   18.8894   20.5396 H   0  0  0  0  0  0  0  0  0  0  0  0
   19.4288   19.8344   21.8135 C   0  0  0  0  0  0  0  0  0  0  0  0
   18.6082   20.5122   22.0832 H   0  0  0  0  0  0  0  0  0  0  0  0
   20.1600   20.4103   21.2306 H   0  0  0  0  0  0  0  0  0  0  0  0
   20.0370   19.2527   23.0967 C   0  0  0  0  0  0  0  0  0  0  0  0
   20.0200   19.9822   23.9193 H   0  0  0  0  0  0  0  0  0  0  0  0
   19.1589   18.0327   23.4058 C   0  0  0  0  0  0  0  0  0  0  0  0
   19.6904   17.2774   24.0000 H   0  0  0  0  0  0  0  0  0  0  0  0
   18.2854   18.3597   23.9852 H   0  0  0  0  0  0  0  0  0  0  0  0
   21.3631   18.8194   22.8312 O   0  0  0  0  0  0  0  0  0  0  0  0
   21.2794   18.1802   22.0938 H   0  0  0  0  0  0  0  0  0  0  0  0
  1  2  1  0  0  0  0
  1  3  1  0  0  0  0
  1  4  1  0  0  0  0
  4  5  1  0  0  0  0
  4  6  1  0  0  0  0
  4  7  1  0  0  0  0
  7  8  1  0  0  0  0
  7  9  1  0  0  0  0
  7 10  1  0  0  0  0
 10 11  1  0  0  0  0
  1 12  1  0  0  0  0
 10 12  1  0  0  0  0
 12 13  1  0  0  0  0
 12 14  1  0  0  0  0
 10 15  1  0  0  0  0
 15 16  1  0  0  0  0
M  END
> <VConfSearch Rank>
618

> <Conf_Id>
20

> <Delta U+W>
-0.483

> <U+W>
2.527

> <U>
4.508

> <W>
-1.981

> <W(PB)>
-3.712

> <W(SA)>
1.732

> <Valence>
14.705

> <Coulomb>
-10.687

> <VdW>
0.490

> <VdW6>
-3.745

> <VdW12>
4.235

> <Bond>
0.068

> <Angle>
3.901

> <Pdih>
10.737

> <Idih>
0.000

> <Tether>
0.000

$$$$
VeraChem MOL file


 16 16  0  0  0  0  0  0  0  0999 V2000     
   19.3850   17.4847   21.3296 C   0  0  0  0  0  0  0  0  0  0  0  0
   19.4663   17.9938   20.3591 H   0  0  0  0  0  0  0  0  0  0  0  0
   19.4153   16.4009   21.1533 H   0  0  0  0  0  0  0  0  0  0  0  0
   18.0967   17.9277   22.0365 C   0  0  0  0  0  0  0  0  0  0  0  0
   17.2519   18.0281   21.3415 H   0  0  0  0  0  0  0  0  0  0  0  0
   17.8241   17.1904   22.8044 H   0  0  0  0  0  0  0  0  0  0  0  0
   18.4669   19.2641   22.7055 C   0  0  0  0  0  0  0  0  0  0  0  0
   17.8763   19.4346   23.6149 H   0  0  0  0  0  0  0  0  0  0  0  0
   18.2602   20.0884   22.0094 H   0  0  0  0  0  0  0  0  0  0  0  0
   19.9771   19.1917   23.0153 C   0  0  0  0  0  0  0  0  0  0  0  0
   20.1335   19.0515   24.0948 H   0  0  0  0  0  0  0  0  0  0  0  0
   20.5173   17.9609   22.2581 C   0  0  0  0  0  0  0  0  0  0  0  0
   21.4333   18.1865   21.6958 H   0  0  0  0  0  0  0  0  0  0  0  0
   20.7564   17.1715   22.9825 H   0  0  0  0  0  0  0  0  0  0  0  0
   20.6285   20.3720   22.5611 O   0  0  0  0  0  0  0  0  0  0  0  0
   20.2408   21.1187   23.0647 H   0  0  0  0  0  0  0  0  0  0  0  0
  1  2  1  0  0  0  0
  1  3  1  0  0  0  0
  1  4  1  0  0  0  0
  4  5  1  0  0  0  0
  4  6  1  0  0  0  0
  4  7  1  0  0  0  0
  7  8  1  0  0  0  0
  7  9  1  0  0  0  0
  7 10  1  0  0  0  0
 10 11  1  0  0  0  0
  1 12  1  0  0  0  0
 10 12  1  0  0  0  0
 12 13  1  0  0  0  0
 12 14  1  0  0  0  0
 10 15  1  0  0  0  0
 15 16  1  0  0  0  0
M  END
> <VConfSearch Rank>
619

> <Conf_Id>
59

> <Delta U+W>
0.000

> <U+W>
3.010

> <U>
5.843

> <W>
-2.833

> <W(PB)>
-4.568

> <W(SA)>
1.735

> <Valence>
13.789

> <Coulomb>
-8.574

> <VdW>
0.628

> <VdW6>
-3.284

> <VdW12>
3.912

> <Bond>
0.054

> <Angle>
4.034

> <Pdih>
9.702

> <Idih>
0.000

> <Tether>
0.000

$$$$
VeraChem MOL file


 16 16  0  0  0  0  0  0  0  0999 V2000     
   18.6734   19.0011   23.4339 C   0  0  0  0  0  0  0  0  0  0  0  0
   17.8094   19.6349   23.6759 H   0  0  0  0  0  0  0  0  0  0  0  0
   18.9357   18.4212   24.3297 H   0  0  0  0  0  0  0  0  0  0  0  0
   19.8878   19.8197   22.9748 C   0  0  0  0  0  0  0  0  0  0  0  0
   19.5534   20.6457   22.3317 H   0  0  0  0  0  0  0  0  0  0  0  0
   20.4497   20.2452   23.8173 H   0  0  0  0  0  0  0  0  0  0  0  0
   20.7289   18.8301   22.1475 C   0  0  0  0  0  0  0  0  0  0  0  0
   21.4428   18.3151   22.8034 H   0  0  0  0  0  0  0  0  0  0  0  0
   21.3044   19.3437   21.3657 H   0  0  0  0  0  0  0  0  0  0  0  0
   19.7440   17.7954   21.5652 C   0  0  0  0  0  0  0  0  0  0  0  0
   20.1034   16.7819   21.7958 H   0  0  0  0  0  0  0  0  0  0  0  0
   18.3890   18.0462   22.2601 C   0  0  0  0  0  0  0  0  0  0  0  0
   17.6871   18.5252   21.5639 H   0  0  0  0  0  0  0  0  0  0  0  0
   17.9337   17.1093   22.6064 H   0  0  0  0  0  0  0  0  0  0  0  0
   19.6160   17.9766   20.1600 O   0  0  0  0  0  0  0  0  0  0  0  0
   18.9741   17.3046   19.8470 H   0  0  0  0  0  0  0  0  0  0  0  0
  1  2  1  0  0  0  0
  1  3  1  0  0  0  0
  1  4  1  0  0  0  0
  4  5  1  0  0  0  0
  4  6  1  0  0  0  0
  4  7  1  0  0  0  0
  7  8  1  0  0  0  0
  7  9  1  0  0  0  0
  7 10  1  0  0  0  0
 10 11  1  0  0  0  0
  1 12  1  0  0  0  0
 10 12  1  0  0  0  0
 12 13  1  0  0  0  0
 12 14  1  0  0  0  0
 10 15  1  0  0  0  0
 15 16  1  0  0  0  0
M  END
> <VConfSearch Rank>
620

> <Conf_Id>
33

> <Delta U+W>
0.015

> <U+W>
3.025

> <U>
5.843

> <W>
-2.819

> <W(PB)>
-4.568

> <W(SA)>
1.750

> <Valence>
13.789

> <Coulomb>
-8.574

> <VdW>
0.628

> <VdW6>
-3.284

> <VdW12>
3.913

> <Bond>
0.054

> <Angle>
4.033

> <Pdih>
9.702

> <Idih>
0.000

> <Tether>
0.000

$$$$
VeraChem MOL file


 16 16  0  0  0  0  0  0  0  0999 V2000     
   19.4239   17.3788   22.7744 C   0  0  0  0  0  0  0  0  0  0  0  0
   18.7720   17.2295   23.6461 H   0  0  0  0  0  0  0  0  0  0  0  0
   19.9281   16.4248   22.5679 H   0  0  0  0  0  0  0  0  0  0  0  0
   20.4387   18.5063   23.0643 C   0  0  0  0  0  0  0  0  0  0  0  0
   20.2786   18.9020   24.0767 H   0  0  0  0  0  0  0  0  0  0  0  0
   21.4738   18.1423   23.0085 H   0  0  0  0  0  0  0  0  0  0  0  0
   20.1807   19.6079   22.0143 C   0  0  0  0  0  0  0  0  0  0  0  0
   20.8951   19.5011   21.1874 H   0  0  0  0  0  0  0  0  0  0  0  0
   20.3007   20.6167   22.4314 H   0  0  0  0  0  0  0  0  0  0  0  0
   18.7622   19.3640   21.4820 C   0  0  0  0  0  0  0  0  0  0  0  0
   18.6476   19.7322   20.4523 H   0  0  0  0  0  0  0  0  0  0  0  0
   18.5917   17.8409   21.5594 C   0  0  0  0  0  0  0  0  0  0  0  0
   17.5375   17.5439   21.6397 H   0  0  0  0  0  0  0  0  0  0  0  0
   18.9971   17.3898   20.6441 H   0  0  0  0  0  0  0  0  0  0  0  0
   17.8241   19.9843   22.3492 O   0  0  0  0  0  0  0  0  0  0  0  0
   17.9999   19.5989   23.2322 H   0  0  0  0  0  0  0  0  0  0  0  0
  1  2  1  0  0  0  0
  1  3  1  0  0  0  0
  1  4  1  0  0  0  0
  4  5  1  0  0  0  0
  4  6  1  0  0  0  0
  4  7  1  0  0  0  0
  7  8  1  0  0  0  0
  7  9  1  0  0  0  0
  7 10  1  0  0  0  0
 10 11  1  0  0  0  0
  1 12  1  0  0  0  0
 10 12  1  0  0  0  0
 12 13  1  0  0  0  0
 12 14  1  0  0  0  0
 10 15  1  0  0  0  0
 15 16  1  0  0  0  0
M  END
> <VConfSearch Rank>
621

> <Conf_Id>
20

> <Delta U+W>
-0.483

> <U+W>
2.527

> <U>
4.508

> <W>
-1.981

> <W(PB)>
-3.712

> <W(SA)>
1.732

> <Valence>
14.705

> <Coulomb>
-10.687

> <VdW>
0.490

> <VdW6>
-3.745

> <VdW12>
4.235

> <Bond>
0.068

> <Angle>
3.901

> <Pdih>
10.737

> <Idih>
0.000

> <Tether>
0.000

$$$$
VeraChem MOL file


 16 16  0  0  0  0  0  0  0  0999 V2000     
   20.4338   19.0929   21.4979 C   0  0  0  0  0  0  0  0  0  0  0  0
   19.9389   19.4864   20.5991 H   0  0  0  0  0  0  0  0  0  0  0  0
   21.5063   19.3197   21.4274 H   0  0  0  0  0  0  0  0  0  0  0  0
   20.1597   17.5875   21.6186 C   0  0  0  0  0  0  0  0  0  0  0  0
   20.1926   17.0774   20.6462 H   0  0  0  0  0  0  0  0  0  0  0  0
   20.9115   17.1263   22.2742 H   0  0  0  0  0  0  0  0  0  0  0  0
   18.7711   17.5027   22.2781 C   0  0  0  0  0  0  0  0  0  0  0  0
   18.6654   16.5870   22.8741 H   0  0  0  0  0  0  0  0  0  0  0  0
   17.9984   17.4881   21.4973 H   0  0  0  0  0  0  0  0  0  0  0  0
   18.6259   18.7673   23.1506 C   0  0  0  0  0  0  0  0  0  0  0  0
   18.7202   18.5037   24.2141 H   0  0  0  0  0  0  0  0  0  0  0  0
   19.7851   19.7045   22.7533 C   0  0  0  0  0  0  0  0  0  0  0  0
   19.4461   20.7334   22.5728 H   0  0  0  0  0  0  0  0  0  0  0  0
   20.5181   19.7333   23.5700 H   0  0  0  0  0  0  0  0  0  0  0  0
   17.3762   19.3979   22.8970 O   0  0  0  0  0  0  0  0  0  0  0  0
   16.6803   18.7573   23.1556 H   0  0  0  0  0  0  0  0  0  0  0  0
  1  2  1  0  0  0  0
  1  3  1  0  0  0  0
  1  4  1  0  0  0  0
  4  5  1  0  0  0  0
  4  6  1  0  0  0  0
  4  7  1  0  0  0  0
  7  8  1  0  0  0  0
  7  9  1  0  0  0  0
  7 10  1  0  0  0  0
 10 11  1  0  0  0  0
  1 12  1  0  0  0  0
 10 12  1  0  0  0  0
 12 13  1  0  0  0  0
 12 14  1  0  0  0  0
 10 15  1  0  0  0  0
 15 16  1  0  0  0  0
M  END
> <VConfSearch Rank>
622

> <Conf_Id>
59

> <Delta U+W>
0.000

> <U+W>
3.010

> <U>
5.843

> <W>
-2.833

> <W(PB)>
-4.568

> <W(SA)>
1.735

> <Valence>
13.789

> <Coulomb>
-8.574

> <VdW>
0.628

> <VdW6>
-3.284

> <VdW12>
3.912

> <Bond>
0.054

> <Angle>
4.034

> <Pdih>
9.702

> <Idih>
0.000

> <Tether>
0.000

$$$$
VeraChem MOL file


 16 16  0  0  0  0  0  0  0  0999 V2000     
   20.5590   19.2497   22.9473 C   0  0  0  0  0  0  0  0  0  0  0  0
   21.4380   18.9807   23.5487 H   0  0  0  0  0  0  0  0  0  0  0  0
   20.6272   20.3177   22.6976 H   0  0  0  0  0  0  0  0  0  0  0  0
   19.2410   18.9750   23.6843 C   0  0  0  0  0  0  0  0  0  0  0  0
   19.3194   18.0297   24.2391 H   0  0  0  0  0  0  0  0  0  0  0  0
   18.9843   19.7714   24.3959 H   0  0  0  0  0  0  0  0  0  0  0  0
   18.1957   18.8295   22.5630 C   0  0  0  0  0  0  0  0  0  0  0  0
   17.7566   19.8105   22.3391 H   0  0  0  0  0  0  0  0  0  0  0  0
   17.3785   18.1572   22.8567 H   0  0  0  0  0  0  0  0  0  0  0  0
   18.9532   18.3217   21.3187 C   0  0  0  0  0  0  0  0  0  0  0  0
   18.7173   18.9682   20.4608 H   0  0  0  0  0  0  0  0  0  0  0  0
   20.4562   18.4183   21.6555 C   0  0  0  0  0  0  0  0  0  0  0  0
   20.8714   17.4170   21.8339 H   0  0  0  0  0  0  0  0  0  0  0  0
   21.0244   18.8779   20.8365 H   0  0  0  0  0  0  0  0  0  0  0  0
   18.5972   16.9719   21.0448 O   0  0  0  0  0  0  0  0  0  0  0  0
   19.1132   16.6994   20.2567 H   0  0  0  0  0  0  0  0  0  0  0  0
  1  2  1  0  0  0  0
  1  3  1  0  0  0  0
  1  4  1  0  0  0  0
  4  5  1  0  0  0  0
  4  6  1  0  0  0  0
  4  7  1  0  0  0  0
  7  8  1  0  0  0  0
  7  9  1  0  0  0  0
  7 10  1  0  0  0  0
 10 11  1  0  0  0  0
  1 12  1  0  0  0  0
 10 12  1  0  0  0  0
 12 13  1  0  0  0  0
 12 14  1  0  0  0  0
 10 15  1  0  0  0  0
 15 16  1  0  0  0  0
M  END
> <VConfSearch Rank>
623

> <Conf_Id>
33

> <Delta U+W>
0.015

> <U+W>
3.025

> <U>
5.843

> <W>
-2.819

> <W(PB)>
-4.568

> <W(SA)>
1.750

> <Valence>
13.789

> <Coulomb>
-8.574

> <VdW>
0.628

> <VdW6>
-3.284

> <VdW12>
3.913

> <Bond>
0.054

> <Angle>
4.033

> <Pdih>
9.702

> <Idih>
0.000

> <Tether>
0.000

$$$$
VeraChem MOL file


 16 16  0  0  0  0  0  0  0  0999 V2000     
   19.7433   19.1697   23.4151 C   0  0  0  0  0  0  0  0  0  0  0  0
   20.7357   19.6408   23.3963 H   0  0  0  0  0  0  0  0  0  0  0  0
   19.3218   19.3203   24.4185 H   0  0  0  0  0  0  0  0  0  0  0  0
   19.8675   17.6693   23.0708 C   0  0  0  0  0  0  0  0  0  0  0  0
   20.9202   17.4141   22.8864 H   0  0  0  0  0  0  0  0  0  0  0  0
   19.5101   17.0351   23.8936 H   0  0  0  0  0  0  0  0  0  0  0  0
   19.0322   17.4430   21.7928 C   0  0  0  0  0  0  0  0  0  0  0  0
   18.0419   17.0552   22.0657 H   0  0  0  0  0  0  0  0  0  0  0  0
   19.4993   16.7177   21.1132 H   0  0  0  0  0  0  0  0  0  0  0  0
   18.8653   18.8236   21.1439 C   0  0  0  0  0  0  0  0  0  0  0  0
   17.9412   18.8830   20.5510 H   0  0  0  0  0  0  0  0  0  0  0  0
   18.8366   19.7933   22.3329 C   0  0  0  0  0  0  0  0  0  0  0  0
   19.1587   20.8051   22.0525 H   0  0  0  0  0  0  0  0  0  0  0  0
   17.8082   19.8630   22.7115 H   0  0  0  0  0  0  0  0  0  0  0  0
   20.0020   19.1030   20.3399 O   0  0  0  0  0  0  0  0  0  0  0  0
   20.7676   19.0275   20.9459 H   0  0  0  0  0  0  0  0  0  0  0  0
  1  2  1  0  0  0  0
  1  3  1  0  0  0  0
  1  4  1  0  0  0  0
  4  5  1  0  0  0  0
  4  6  1  0  0  0  0
  4  7  1  0  0  0  0
  7  8  1  0  0  0  0
  7  9  1  0  0  0  0
  7 10  1  0  0  0  0
 10 11  1  0  0  0  0
  1 12  1  0  0  0  0
 10 12  1  0  0  0  0
 12 13  1  0  0  0  0
 12 14  1  0  0  0  0
 10 15  1  0  0  0  0
 15 16  1  0  0  0  0
M  END
> <VConfSearch Rank>
624

> <Conf_Id>
20

> <Delta U+W>
-0.483

> <U+W>
2.527

> <U>
4.508

> <W>
-1.981

> <W(PB)>
-3.712

> <W(SA)>
1.732

> <Valence>
14.705

> <Coulomb>
-10.687

> <VdW>
0.490

> <VdW6>
-3.745

> <VdW12>
4.235

> <Bond>
0.068

> <Angle>
3.901

> <Pdih>
10.737

> <Idih>
0.000

> <Tether>
0.000

$$$$
VeraChem MOL file


 16 16  0  0  0  0  0  0  0  0999 V2000     
   19.1936   19.7916   21.5690 C   0  0  0  0  0  0  0  0  0  0  0  0
   18.1186   19.8500   21.3486 H   0  0  0  0  0  0  0  0  0  0  0  0
   19.6727   20.7045   21.1898 H   0  0  0  0  0  0  0  0  0  0  0  0
   19.7788   18.5187   20.9421 C   0  0  0  0  0  0  0  0  0  0  0  0
   19.3604   18.3122   19.9476 H   0  0  0  0  0  0  0  0  0  0  0  0
   20.8681   18.6233   20.8417 H   0  0  0  0  0  0  0  0  0  0  0  0
   19.4536   17.4075   21.9570 C   0  0  0  0  0  0  0  0  0  0  0  0
   20.2012   16.6044   21.9258 H   0  0  0  0  0  0  0  0  0  0  0  0
   18.4764   16.9683   21.7141 H   0  0  0  0  0  0  0  0  0  0  0  0
   19.4059   18.0846   23.3430 C   0  0  0  0  0  0  0  0  0  0  0  0
   20.3016   17.8185   23.9229 H   0  0  0  0  0  0  0  0  0  0  0  0
   19.4001   19.6053   23.0836 C   0  0  0  0  0  0  0  0  0  0  0  0
   18.6255   20.1242   23.6640 H   0  0  0  0  0  0  0  0  0  0  0  0
   20.3723   20.0222   23.3769 H   0  0  0  0  0  0  0  0  0  0  0  0
   18.2246   17.7007   24.0365 O   0  0  0  0  0  0  0  0  0  0  0  0
   18.2762   16.7297   24.1638 H   0  0  0  0  0  0  0  0  0  0  0  0
  1  2  1  0  0  0  0
  1  3  1  0  0  0  0
  1  4  1  0  0  0  0
  4  5  1  0  0  0  0
  4  6  1  0  0  0  0
  4  7  1  0  0  0  0
  7  8  1  0  0  0  0
  7  9  1  0  0  0  0
  7 10  1  0  0  0  0
 10 11  1  0  0  0  0
  1 12  1  0  0  0  0
 10 12  1  0  0  0  0
 12 13  1  0  0  0  0
 12 14  1  0  0  0  0
 10 15  1  0  0  0  0
 15 16  1  0  0  0  0
M  END
> <VConfSearch Rank>
625

> <Conf_Id>
59

> <Delta U+W>
0.000

> <U+W>
3.010

> <U>
5.843

> <W>
-2.833

> <W(PB)>
-4.568

> <W(SA)>
1.735

> <Valence>
13.789

> <Coulomb>
-8.574

> <VdW>
0.628

> <VdW6>
-3.284

> <VdW12>
3.912

> <Bond>
0.054

> <Angle>
4.034

> <Pdih>
9.702

> <Idih>
0.000

> <Tether>
0.000

$$$$
VeraChem MOL file


 16 16  0  0  0  0  0  0  0  0999 V2000     
   19.3461   20.0112   21.9886 C   0  0  0  0  0  0  0  0  0  0  0  0
   19.3149   20.6731   21.1125 H   0  0  0  0  0  0  0  0  0  0  0  0
   19.1217   20.6118   22.8811 H   0  0  0  0  0  0  0  0  0  0  0  0
   20.7102   19.3277   22.1558 C   0  0  0  0  0  0  0  0  0  0  0  0
   21.0982   19.0342   21.1705 H   0  0  0  0  0  0  0  0  0  0  0  0
   21.4507   19.9812   22.6367 H   0  0  0  0  0  0  0  0  0  0  0  0
   20.4101   18.0675   22.9882 C   0  0  0  0  0  0  0  0  0  0  0  0
   20.5020   18.3012   24.0568 H   0  0  0  0  0  0  0  0  0  0  0  0
   21.1151   17.2563   22.7621 H   0  0  0  0  0  0  0  0  0  0  0  0
   18.9496   17.6760   22.6827 C   0  0  0  0  0  0  0  0  0  0  0  0
   18.4029   17.5463   23.6281 H   0  0  0  0  0  0  0  0  0  0  0  0
   18.3449   18.8467   21.8791 C   0  0  0  0  0  0  0  0  0  0  0  0
   18.2297   18.5646   20.8237 H   0  0  0  0  0  0  0  0  0  0  0  0
   17.3561   19.1305   22.2620 H   0  0  0  0  0  0  0  0  0  0  0  0
   18.9130   16.4809   21.9118 O   0  0  0  0  0  0  0  0  0  0  0  0
   17.9676   16.2868   21.7386 H   0  0  0  0  0  0  0  0  0  0  0  0
  1  2  1  0  0  0  0
  1  3  1  0  0  0  0
  1  4  1  0  0  0  0
  4  5  1  0  0  0  0
  4  6  1  0  0  0  0
  4  7  1  0  0  0  0
  7  8  1  0  0  0  0
  7  9  1  0  0  0  0
  7 10  1  0  0  0  0
 10 11  1  0  0  0  0
  1 12  1  0  0  0  0
 10 12  1  0  0  0  0
 12 13  1  0  0  0  0
 12 14  1  0  0  0  0
 10 15  1  0  0  0  0
 15 16  1  0  0  0  0
M  END
> <VConfSearch Rank>
626

> <Conf_Id>
33

> <Delta U+W>
0.015

> <U+W>
3.025

> <U>
5.843

> <W>
-2.819

> <W(PB)>
-4.568

> <W(SA)>
1.750

> <Valence>
13.789

> <Coulomb>
-8.574

> <VdW>
0.628

> <VdW6>
-3.284

> <VdW12>
3.913

> <Bond>
0.054

> <Angle>
4.033

> <Pdih>
9.702

> <Idih>
0.000

> <Tether>
0.000

$$$$
VeraChem MOL file


 16 16  0  0  0  0  0  0  0  0999 V2000     
   18.8981   19.7840   21.8379 C   0  0  0  0  0  0  0  0  0  0  0  0
   18.2005   20.2640   22.5380 H   0  0  0  0  0  0  0  0  0  0  0  0
   19.0107   20.4494   20.9709 H   0  0  0  0  0  0  0  0  0  0  0  0
   18.3564   18.3984   21.4238 C   0  0  0  0  0  0  0  0  0  0  0  0
   17.3961   18.2082   21.9227 H   0  0  0  0  0  0  0  0  0  0  0  0
   18.1865   18.3385   20.3400 H   0  0  0  0  0  0  0  0  0  0  0  0
   19.4076   17.3637   21.8785 C   0  0  0  0  0  0  0  0  0  0  0  0
   20.0542   17.1009   21.0309 H   0  0  0  0  0  0  0  0  0  0  0  0
   18.9474   16.4374   22.2475 H   0  0  0  0  0  0  0  0  0  0  0  0
   20.2531   18.0607   22.9529 C   0  0  0  0  0  0  0  0  0  0  0  0
   21.2718   17.6493   22.9961 H   0  0  0  0  0  0  0  0  0  0  0  0
   20.2570   19.5348   22.5262 C   0  0  0  0  0  0  0  0  0  0  0  0
   20.4249   20.2127   23.3736 H   0  0  0  0  0  0  0  0  0  0  0  0
   21.0687   19.6948   21.8043 H   0  0  0  0  0  0  0  0  0  0  0  0
   19.6040   17.9396   24.2103 O   0  0  0  0  0  0  0  0  0  0  0  0
   18.7148   18.3274   24.0764 H   0  0  0  0  0  0  0  0  0  0  0  0
  1  2  1  0  0  0  0
  1  3  1  0  0  0  0
  1  4  1  0  0  0  0
  4  5  1  0  0  0  0
  4  6  1  0  0  0  0
  4  7  1  0  0  0  0
  7  8  1  0  0  0  0
  7  9  1  0  0  0  0
  7 10  1  0  0  0  0
 10 11  1  0  0  0  0
  1 12  1  0  0  0  0
 10 12  1  0  0  0  0
 12 13  1  0  0  0  0
 12 14  1  0  0  0  0
 10 15  1  0  0  0  0
 15 16  1  0  0  0  0
M  END
> <VConfSearch Rank>
627

> <Conf_Id>
20

> <Delta U+W>
-0.483

> <U+W>
2.527

> <U>
4.508

> <W>
-1.981

> <W(PB)>
-3.712

> <W(SA)>
1.732

> <Valence>
14.705

> <Coulomb>
-10.687

> <VdW>
0.490

> <VdW6>
-3.745

> <VdW12>
4.235

> <Bond>
0.068

> <Angle>
3.901

> <Pdih>
10.737

> <Idih>
0.000

> <Tether>
0.000

$$$$
VeraChem MOL file


 16 16  0  0  0  0  0  0  0  0999 V2000     
   18.4824   19.3418   21.4619 C   0  0  0  0  0  0  0  0  0  0  0  0
   19.1048   20.1755   21.1080 H   0  0  0  0  0  0  0  0  0  0  0  0
   17.4958   19.4226   20.9856 H   0  0  0  0  0  0  0  0  0  0  0  0
   18.3983   19.3770   22.9940 C   0  0  0  0  0  0  0  0  0  0  0  0
   18.3058   20.3998   23.3842 H   0  0  0  0  0  0  0  0  0  0  0  0
   17.5248   18.8009   23.3297 H   0  0  0  0  0  0  0  0  0  0  0  0
   19.6908   18.6852   23.4646 C   0  0  0  0  0  0  0  0  0  0  0  0
   19.5504   18.1894   24.4338 H   0  0  0  0  0  0  0  0  0  0  0  0
   20.4832   19.4369   23.5818 H   0  0  0  0  0  0  0  0  0  0  0  0
   20.0703   17.6756   22.3608 C   0  0  0  0  0  0  0  0  0  0  0  0
   19.8575   16.6509   22.6986 H   0  0  0  0  0  0  0  0  0  0  0  0
   19.1804   18.0064   21.1449 C   0  0  0  0  0  0  0  0  0  0  0  0
   19.7551   18.0624   20.2107 H   0  0  0  0  0  0  0  0  0  0  0  0
   18.4277   17.2161   21.0267 H   0  0  0  0  0  0  0  0  0  0  0  0
   21.4435   17.8175   22.0169 O   0  0  0  0  0  0  0  0  0  0  0  0
   21.9588   17.6074   22.8243 H   0  0  0  0  0  0  0  0  0  0  0  0
  1  2  1  0  0  0  0
  1  3  1  0  0  0  0
  1  4  1  0  0  0  0
  4  5  1  0  0  0  0
  4  6  1  0  0  0  0
  4  7  1  0  0  0  0
  7  8  1  0  0  0  0
  7  9  1  0  0  0  0
  7 10  1  0  0  0  0
 10 11  1  0  0  0  0
  1 12  1  0  0  0  0
 10 12  1  0  0  0  0
 12 13  1  0  0  0  0
 12 14  1  0  0  0  0
 10 15  1  0  0  0  0
 15 16  1  0  0  0  0
M  END
> <VConfSearch Rank>
628

> <Conf_Id>
59

> <Delta U+W>
0.000

> <U+W>
3.010

> <U>
5.843

> <W>
-2.833

> <W(PB)>
-4.568

> <W(SA)>
1.735

> <Valence>
13.789

> <Coulomb>
-8.574

> <VdW>
0.628

> <VdW6>
-3.284

> <VdW12>
3.912

> <Bond>
0.054

> <Angle>
4.034

> <Pdih>
9.702

> <Idih>
0.000

> <Tether>
0.000

$$$$
VeraChem MOL file


 16 16  0  0  0  0  0  0  0  0999 V2000     
   18.8558   17.9615   21.1603 C   0  0  0  0  0  0  0  0  0  0  0  0
   19.1316   17.2564   20.3644 H   0  0  0  0  0  0  0  0  0  0  0  0
   17.7689   18.1184   21.1189 H   0  0  0  0  0  0  0  0  0  0  0  0
   19.5776   19.3090   21.0227 C   0  0  0  0  0  0  0  0  0  0  0  0
   20.6166   19.1398   20.7074 H   0  0  0  0  0  0  0  0  0  0  0  0
   19.0978   19.9687   20.2870 H   0  0  0  0  0  0  0  0  0  0  0  0
   19.5600   19.9023   22.4435 C   0  0  0  0  0  0  0  0  0  0  0  0
   18.6545   20.5081   22.5786 H   0  0  0  0  0  0  0  0  0  0  0  0
   20.4266   20.5532   22.6206 H   0  0  0  0  0  0  0  0  0  0  0  0
   19.5160   18.7077   23.4185 C   0  0  0  0  0  0  0  0  0  0  0  0
   18.6920   18.8516   24.1326 H   0  0  0  0  0  0  0  0  0  0  0  0
   19.2559   17.4535   22.5576 C   0  0  0  0  0  0  0  0  0  0  0  0
   20.1708   16.8508   22.4769 H   0  0  0  0  0  0  0  0  0  0  0  0
   18.4725   16.8202   22.9936 H   0  0  0  0  0  0  0  0  0  0  0  0
   20.7582   18.5855   24.1011 O   0  0  0  0  0  0  0  0  0  0  0  0
   20.6778   17.8091   24.6946 H   0  0  0  0  0  0  0  0  0  0  0  0
  1  2  1  0  0  0  0
  1  3  1  0  0  0  0
  1  4  1  0  0  0  0
  4  5  1  0  0  0  0
  4  6  1  0  0  0  0
  4  7  1  0  0  0  0
  7  8  1  0  0  0  0
  7  9  1  0  0  0  0
  7 10  1  0  0  0  0
 10 11  1  0  0  0  0
  1 12  1  0  0  0  0
 10 12  1  0  0  0  0
 12 13  1  0  0  0  0
 12 14  1  0  0  0  0
 10 15  1  0  0  0  0
 15 16  1  0  0  0  0
M  END
> <VConfSearch Rank>
629

> <Conf_Id>
33

> <Delta U+W>
0.015

> <U+W>
3.025

> <U>
5.843

> <W>
-2.819

> <W(PB)>
-4.568

> <W(SA)>
1.750

> <Valence>
13.789

> <Coulomb>
-8.574

> <VdW>
0.628

> <VdW6>
-3.284

> <VdW12>
3.913

> <Bond>
0.054

> <Angle>
4.033

> <Pdih>
9.702

> <Idih>
0.000

> <Tether>
0.000

$$$$
VeraChem MOL file


 16 16  0  0  0  0  0  0  0  0999 V2000     
   18.6269   19.4903   21.5903 C   0  0  0  0  0  0  0  0  0  0  0  0
   17.5777   19.5269   21.9144 H   0  0  0  0  0  0  0  0  0  0  0  0
   18.7548   20.2325   20.7904 H   0  0  0  0  0  0  0  0  0  0  0  0
   18.9774   18.0666   21.1053 C   0  0  0  0  0  0  0  0  0  0  0  0
   18.0976   17.4145   21.1936 H   0  0  0  0  0  0  0  0  0  0  0  0
   19.2896   18.0642   20.0519 H   0  0  0  0  0  0  0  0  0  0  0  0
   20.1114   17.5590   22.0212 C   0  0  0  0  0  0  0  0  0  0  0  0
   21.0792   17.7101   21.5249 H   0  0  0  0  0  0  0  0  0  0  0  0
   20.0158   16.4888   22.2480 H   0  0  0  0  0  0  0  0  0  0  0  0
   20.0584   18.4280   23.2849 C   0  0  0  0  0  0  0  0  0  0  0  0
   21.0455   18.5081   23.7626 H   0  0  0  0  0  0  0  0  0  0  0  0
   19.5631   19.7900   22.7803 C   0  0  0  0  0  0  0  0  0  0  0  0
   19.0627   20.3686   23.5682 H   0  0  0  0  0  0  0  0  0  0  0  0
   20.4240   20.3755   22.4314 H   0  0  0  0  0  0  0  0  0  0  0  0
   19.1024   17.8868   24.1848 O   0  0  0  0  0  0  0  0  0  0  0  0
   18.2652   17.8537   23.6777 H   0  0  0  0  0  0  0  0  0  0  0  0
  1  2  1  0  0  0  0
  1  3  1  0  0  0  0
  1  4  1  0  0  0  0
  4  5  1  0  0  0  0
  4  6  1  0  0  0  0
  4  7  1  0  0  0  0
  7  8  1  0  0  0  0
  7  9  1  0  0  0  0
  7 10  1  0  0  0  0
 10 11  1  0  0  0  0
  1 12  1  0  0  0  0
 10 12  1  0  0  0  0
 12 13  1  0  0  0  0
 12 14  1  0  0  0  0
 10 15  1  0  0  0  0
 15 16  1  0  0  0  0
M  END
> <VConfSearch Rank>
630

> <Conf_Id>
20

> <Delta U+W>
-0.483

> <U+W>
2.527

> <U>
4.508

> <W>
-1.981

> <W(PB)>
-3.712

> <W(SA)>
1.732

> <Valence>
14.705

> <Coulomb>
-10.687

> <VdW>
0.490

> <VdW6>
-3.745

> <VdW12>
4.235

> <Bond>
0.068

> <Angle>
3.901

> <Pdih>
10.737

> <Idih>
0.000

> <Tether>
0.000

$$$$
VeraChem MOL file


 16 16  0  0  0  0  0  0  0  0999 V2000     
   19.5545   19.9937   22.2620 C   0  0  0  0  0  0  0  0  0  0  0  0
   20.4808   20.1748   22.8249 H   0  0  0  0  0  0  0  0  0  0  0  0
   19.2050   20.9530   21.8566 H   0  0  0  0  0  0  0  0  0  0  0  0
   18.5166   19.3318   23.1789 C   0  0  0  0  0  0  0  0  0  0  0  0
   18.5270   19.7521   24.1937 H   0  0  0  0  0  0  0  0  0  0  0  0
   17.5105   19.4713   22.7595 H   0  0  0  0  0  0  0  0  0  0  0  0
   18.8864   17.8373   23.1598 C   0  0  0  0  0  0  0  0  0  0  0  0
   18.0039   17.2038   23.3170 H   0  0  0  0  0  0  0  0  0  0  0  0
   19.5996   17.6292   23.9690 H   0  0  0  0  0  0  0  0  0  0  0  0
   19.5405   17.5686   21.7881 C   0  0  0  0  0  0  0  0  0  0  0  0
   18.8472   17.0086   21.1438 H   0  0  0  0  0  0  0  0  0  0  0  0
   19.8162   18.9504   21.1601 C   0  0  0  0  0  0  0  0  0  0  0  0
   20.8363   19.0310   20.7612 H   0  0  0  0  0  0  0  0  0  0  0  0
   19.1188   19.1109   20.3277 H   0  0  0  0  0  0  0  0  0  0  0  0
   20.7593   16.8544   21.9569 O   0  0  0  0  0  0  0  0  0  0  0  0
   20.5269   15.9946   22.3671 H   0  0  0  0  0  0  0  0  0  0  0  0
  1  2  1  0  0  0  0
  1  3  1  0  0  0  0
  1  4  1  0  0  0  0
  4  5  1  0  0  0  0
  4  6  1  0  0  0  0
  4  7  1  0  0  0  0
  7  8  1  0  0  0  0
  7  9  1  0  0  0  0
  7 10  1  0  0  0  0
 10 11  1  0  0  0  0
  1 12  1  0  0  0  0
 10 12  1  0  0  0  0
 12 13  1  0  0  0  0
 12 14  1  0  0  0  0
 10 15  1  0  0  0  0
 15 16  1  0  0  0  0
M  END
> <VConfSearch Rank>
631

> <Conf_Id>
59

> <Delta U+W>
0.000

> <U+W>
3.010

> <U>
5.843

> <W>
-2.833

> <W(PB)>
-4.568

> <W(SA)>
1.735

> <Valence>
13.789

> <Coulomb>
-8.574

> <VdW>
0.628

> <VdW6>
-3.284

> <VdW12>
3.912

> <Bond>
0.054

> <Angle>
4.034

> <Pdih>
9.702

> <Idih>
0.000

> <Tether>
0.000

$$$$
VeraChem MOL file


 16 16  0  0  0  0  0  0  0  0999 V2000     
   19.8454   17.3803   21.6693 C   0  0  0  0  0  0  0  0  0  0  0  0
   19.8051   16.8951   20.6846 H   0  0  0  0  0  0  0  0  0  0  0  0
   20.4706   16.7643   22.3306 H   0  0  0  0  0  0  0  0  0  0  0  0
   18.4533   17.5559   22.2913 C   0  0  0  0  0  0  0  0  0  0  0  0
   17.7352   17.8449   21.5112 H   0  0  0  0  0  0  0  0  0  0  0  0
   18.0891   16.6372   22.7710 H   0  0  0  0  0  0  0  0  0  0  0  0
   18.6216   18.7142   23.2918 C   0  0  0  0  0  0  0  0  0  0  0  0
   18.9063   18.3145   24.2738 H   0  0  0  0  0  0  0  0  0  0  0  0
   17.6876   19.2778   23.4188 H   0  0  0  0  0  0  0  0  0  0  0  0
   19.7688   19.5953   22.7556 C   0  0  0  0  0  0  0  0  0  0  0  0
   20.5054   19.7593   23.5557 H   0  0  0  0  0  0  0  0  0  0  0  0
   20.4151   18.8088   21.5957 C   0  0  0  0  0  0  0  0  0  0  0  0
   20.1424   19.2595   20.6317 H   0  0  0  0  0  0  0  0  0  0  0  0
   21.5103   18.8081   21.6697 H   0  0  0  0  0  0  0  0  0  0  0  0
   19.2553   20.8347   22.2823 O   0  0  0  0  0  0  0  0  0  0  0  0
   20.0211   21.3461   21.9452 H   0  0  0  0  0  0  0  0  0  0  0  0
  1  2  1  0  0  0  0
  1  3  1  0  0  0  0
  1  4  1  0  0  0  0
  4  5  1  0  0  0  0
  4  6  1  0  0  0  0
  4  7  1  0  0  0  0
  7  8  1  0  0  0  0
  7  9  1  0  0  0  0
  7 10  1  0  0  0  0
 10 11  1  0  0  0  0
  1 12  1  0  0  0  0
 10 12  1  0  0  0  0
 12 13  1  0  0  0  0
 12 14  1  0  0  0  0
 10 15  1  0  0  0  0
 15 16  1  0  0  0  0
M  END
> <VConfSearch Rank>
632

> <Conf_Id>
33

> <Delta U+W>
0.015

> <U+W>
3.025

> <U>
5.843

> <W>
-2.819

> <W(PB)>
-4.568

> <W(SA)>
1.750

> <Valence>
13.789

> <Coulomb>
-8.574

> <VdW>
0.628

> <VdW6>
-3.284

> <VdW12>
3.913

> <Bond>
0.054

> <Angle>
4.033

> <Pdih>
9.702

> <Idih>
0.000

> <Tether>
0.000

$$$$
VeraChem MOL file


 16 16  0  0  0  0  0  0  0  0999 V2000     
   18.2815   19.3382   22.0297 C   0  0  0  0  0  0  0  0  0  0  0  0
   17.3848   18.7455   21.8016 H   0  0  0  0  0  0  0  0  0  0  0  0
   17.9923   20.3980   22.0181 H   0  0  0  0  0  0  0  0  0  0  0  0
   19.3863   19.0395   20.9929 C   0  0  0  0  0  0  0  0  0  0  0  0
   19.0241   18.3032   20.2623 H   0  0  0  0  0  0  0  0  0  0  0  0
   19.6759   19.9434   20.4395 H   0  0  0  0  0  0  0  0  0  0  0  0
   20.5824   18.4646   21.7811 C   0  0  0  0  0  0  0  0  0  0  0  0
   21.3110   19.2627   21.9759 H   0  0  0  0  0  0  0  0  0  0  0  0
   21.0993   17.6674   21.2304 H   0  0  0  0  0  0  0  0  0  0  0  0
   20.0131   17.9724   23.1185 C   0  0  0  0  0  0  0  0  0  0  0  0
   20.7697   18.0022   23.9158 H   0  0  0  0  0  0  0  0  0  0  0  0
   18.8519   18.9337   23.4058 C   0  0  0  0  0  0  0  0  0  0  0  0
   18.0901   18.4832   24.0560 H   0  0  0  0  0  0  0  0  0  0  0  0
   19.2434   19.8233   23.9165 H   0  0  0  0  0  0  0  0  0  0  0  0
   19.5021   16.6577   22.9538 O   0  0  0  0  0  0  0  0  0  0  0  0
   18.8439   16.7287   22.2321 H   0  0  0  0  0  0  0  0  0  0  0  0
  1  2  1  0  0  0  0
  1  3  1  0  0  0  0
  1  4  1  0  0  0  0
  4  5  1  0  0  0  0
  4  6  1  0  0  0  0
  4  7  1  0  0  0  0
  7  8  1  0  0  0  0
  7  9  1  0  0  0  0
  7 10  1  0  0  0  0
 10 11  1  0  0  0  0
  1 12  1  0  0  0  0
 10 12  1  0  0  0  0
 12 13  1  0  0  0  0
 12 14  1  0  0  0  0
 10 15  1  0  0  0  0
 15 16  1  0  0  0  0
M  END
> <VConfSearch Rank>
633

> <Conf_Id>
20

> <Delta U+W>
-0.483

> <U+W>
2.527

> <U>
4.508

> <W>
-1.981

> <W(PB)>
-3.712

> <W(SA)>
1.732

> <Valence>
14.705

> <Coulomb>
-10.687

> <VdW>
0.490

> <VdW6>
-3.745

> <VdW12>
4.235

> <Bond>
0.068

> <Angle>
3.901

> <Pdih>
10.737

> <Idih>
0.000

> <Tether>
0.000

$$$$
VeraChem MOL file


 16 16  0  0  0  0  0  0  0  0999 V2000     
   18.1638   19.2920   22.6924 C   0  0  0  0  0  0  0  0  0  0  0  0
   17.3507   18.8330   22.1129 H   0  0  0  0  0  0  0  0  0  0  0  0
   17.7297   20.0627   23.3436 H   0  0  0  0  0  0  0  0  0  0  0  0
   19.2204   19.8604   21.7351 C   0  0  0  0  0  0  0  0  0  0  0  0
   18.7717   20.3374   20.8531 H   0  0  0  0  0  0  0  0  0  0  0  0
   19.8288   20.6104   22.2593 H   0  0  0  0  0  0  0  0  0  0  0  0
   20.0937   18.6477   21.3646 C   0  0  0  0  0  0  0  0  0  0  0  0
   21.1237   18.9501   21.1357 H   0  0  0  0  0  0  0  0  0  0  0  0
   19.6787   18.1604   20.4718 H   0  0  0  0  0  0  0  0  0  0  0  0
   20.0393   17.6876   22.5717 C   0  0  0  0  0  0  0  0  0  0  0  0
   20.9924   17.7177   23.1197 H   0  0  0  0  0  0  0  0  0  0  0  0
   18.9092   18.2034   23.4864 C   0  0  0  0  0  0  0  0  0  0  0  0
   18.2316   17.4001   23.8052 H   0  0  0  0  0  0  0  0  0  0  0  0
   19.3522   18.6439   24.3891 H   0  0  0  0  0  0  0  0  0  0  0  0
   19.7514   16.3649   22.1344 O   0  0  0  0  0  0  0  0  0  0  0  0
   20.4920   16.0939   21.5516 H   0  0  0  0  0  0  0  0  0  0  0  0
  1  2  1  0  0  0  0
  1  3  1  0  0  0  0
  1  4  1  0  0  0  0
  4  5  1  0  0  0  0
  4  6  1  0  0  0  0
  4  7  1  0  0  0  0
  7  8  1  0  0  0  0
  7  9  1  0  0  0  0
  7 10  1  0  0  0  0
 10 11  1  0  0  0  0
  1 12  1  0  0  0  0
 10 12  1  0  0  0  0
 12 13  1  0  0  0  0
 12 14  1  0  0  0  0
 10 15  1  0  0  0  0
 15 16  1  0  0  0  0
M  END
> <VConfSearch Rank>
634

> <Conf_Id>
59

> <Delta U+W>
0.000

> <U+W>
3.010

> <U>
5.843

> <W>
-2.833

> <W(PB)>
-4.568

> <W(SA)>
1.735

> <Valence>
13.789

> <Coulomb>
-8.574

> <VdW>
0.628

> <VdW6>
-3.284

> <VdW12>
3.912

> <Bond>
0.054

> <Angle>
4.034

> <Pdih>
9.702

> <Idih>
0.000

> <Tether>
0.000

$$$$
VeraChem MOL file


 16 16  0  0  0  0  0  0  0  0999 V2000     
   18.9283   19.2545   23.4645 C   0  0  0  0  0  0  0  0  0  0  0  0
   17.9991   19.2908   24.0493 H   0  0  0  0  0  0  0  0  0  0  0  0
   19.7058   19.7962   24.0209 H   0  0  0  0  0  0  0  0  0  0  0  0
   18.7651   19.8740   22.0697 C   0  0  0  0  0  0  0  0  0  0  0  0
   17.7863   19.5951   21.6551 H   0  0  0  0  0  0  0  0  0  0  0  0
   18.8317   20.9703   22.0872 H   0  0  0  0  0  0  0  0  0  0  0  0
   19.8834   19.2306   21.2292 C   0  0  0  0  0  0  0  0  0  0  0  0
   20.7913   19.8445   21.2922 H   0  0  0  0  0  0  0  0  0  0  0  0
   19.6024   19.1581   20.1701 H   0  0  0  0  0  0  0  0  0  0  0  0
   20.1656   17.8495   21.8560 C   0  0  0  0  0  0  0  0  0  0  0  0
   21.2447   17.7490   22.0429 H   0  0  0  0  0  0  0  0  0  0  0  0
   19.3926   17.8121   23.1912 C   0  0  0  0  0  0  0  0  0  0  0  0
   18.5142   17.1581   23.1044 H   0  0  0  0  0  0  0  0  0  0  0  0
   20.0177   17.4303   24.0087 H   0  0  0  0  0  0  0  0  0  0  0  0
   19.7056   16.8161   20.9933 O   0  0  0  0  0  0  0  0  0  0  0  0
   19.8990   15.9668   21.4438 H   0  0  0  0  0  0  0  0  0  0  0  0
  1  2  1  0  0  0  0
  1  3  1  0  0  0  0
  1  4  1  0  0  0  0
  4  5  1  0  0  0  0
  4  6  1  0  0  0  0
  4  7  1  0  0  0  0
  7  8  1  0  0  0  0
  7  9  1  0  0  0  0
  7 10  1  0  0  0  0
 10 11  1  0  0  0  0
  1 12  1  0  0  0  0
 10 12  1  0  0  0  0
 12 13  1  0  0  0  0
 12 14  1  0  0  0  0
 10 15  1  0  0  0  0
 15 16  1  0  0  0  0
M  END
> <VConfSearch Rank>
635

> <Conf_Id>
33

> <Delta U+W>
0.015

> <U+W>
3.025

> <U>
5.843

> <W>
-2.819

> <W(PB)>
-4.568

> <W(SA)>
1.750

> <Valence>
13.789

> <Coulomb>
-8.574

> <VdW>
0.628

> <VdW6>
-3.284

> <VdW12>
3.913

> <Bond>
0.054

> <Angle>
4.033

> <Pdih>
9.702

> <Idih>
0.000

> <Tether>
0.000

$$$$
VeraChem MOL file


 16 16  0  0  0  0  0  0  0  0999 V2000     
   19.0465   19.8974   22.1236 C   0  0  0  0  0  0  0  0  0  0  0  0
   19.8790   20.5975   22.2790 H   0  0  0  0  0  0  0  0  0  0  0  0
   18.1547   20.4896   21.8766 H   0  0  0  0  0  0  0  0  0  0  0  0
   18.8300   19.0482   23.3952 C   0  0  0  0  0  0  0  0  0  0  0  0
   19.5570   19.3380   24.1664 H   0  0  0  0  0  0  0  0  0  0  0  0
   17.8246   19.1954   23.8128 H   0  0  0  0  0  0  0  0  0  0  0  0
   19.0491   17.5773   22.9817 C   0  0  0  0  0  0  0  0  0  0  0  0
   18.0785   17.1027   22.7863 H   0  0  0  0  0  0  0  0  0  0  0  0
   19.5539   16.9957   23.7646 H   0  0  0  0  0  0  0  0  0  0  0  0
   19.8556   17.6182   21.6767 C   0  0  0  0  0  0  0  0  0  0  0  0
   19.6612   16.7336   21.0532 H   0  0  0  0  0  0  0  0  0  0  0  0
   19.3872   18.9077   20.9892 C   0  0  0  0  0  0  0  0  0  0  0  0
   20.1415   19.3089   20.2993 H   0  0  0  0  0  0  0  0  0  0  0  0
   18.4820   18.6924   20.4061 H   0  0  0  0  0  0  0  0  0  0  0  0
   21.2377   17.7276   21.9842 O   0  0  0  0  0  0  0  0  0  0  0  0
   21.3131   18.5337   22.5352 H   0  0  0  0  0  0  0  0  0  0  0  0
  1  2  1  0  0  0  0
  1  3  1  0  0  0  0
  1  4  1  0  0  0  0
  4  5  1  0  0  0  0
  4  6  1  0  0  0  0
  4  7  1  0  0  0  0
  7  8  1  0  0  0  0
  7  9  1  0  0  0  0
  7 10  1  0  0  0  0
 10 11  1  0  0  0  0
  1 12  1  0  0  0  0
 10 12  1  0  0  0  0
 12 13  1  0  0  0  0
 12 14  1  0  0  0  0
 10 15  1  0  0  0  0
 15 16  1  0  0  0  0
M  END
> <VConfSearch Rank>
636

> <Conf_Id>
20

> <Delta U+W>
-0.483

> <U+W>
2.527

> <U>
4.508

> <W>
-1.981

> <W(PB)>
-3.712

> <W(SA)>
1.732

> <Valence>
14.705

> <Coulomb>
-10.687

> <VdW>
0.490

> <VdW6>
-3.745

> <VdW12>
4.235

> <Bond>
0.068

> <Angle>
3.901

> <Pdih>
10.737

> <Idih>
0.000

> <Tether>
0.000

$$$$
VeraChem MOL file


 16 16  0  0  0  0  0  0  0  0999 V2000     
   20.4592   18.9823   23.1614 C   0  0  0  0  0  0  0  0  0  0  0  0
   20.0374   19.0260   24.1753 H   0  0  0  0  0  0  0  0  0  0  0  0
   21.5296   19.2210   23.2235 H   0  0  0  0  0  0  0  0  0  0  0  0
   19.6955   19.9476   22.2446 C   0  0  0  0  0  0  0  0  0  0  0  0
   19.4448   20.8915   22.7476 H   0  0  0  0  0  0  0  0  0  0  0  0
   20.3070   20.1807   21.3617 H   0  0  0  0  0  0  0  0  0  0  0  0
   18.4430   19.1604   21.8177 C   0  0  0  0  0  0  0  0  0  0  0  0
   18.0916   19.4728   20.8259 H   0  0  0  0  0  0  0  0  0  0  0  0
   17.6338   19.3475   22.5368 H   0  0  0  0  0  0  0  0  0  0  0  0
   18.8397   17.6691   21.8353 C   0  0  0  0  0  0  0  0  0  0  0  0
   18.9508   17.2971   20.8063 H   0  0  0  0  0  0  0  0  0  0  0  0
   20.2017   17.5903   22.5554 C   0  0  0  0  0  0  0  0  0  0  0  0
   20.2226   16.8051   23.3229 H   0  0  0  0  0  0  0  0  0  0  0  0
   20.9828   17.3586   21.8196 H   0  0  0  0  0  0  0  0  0  0  0  0
   17.8661   16.9104   22.5426 O   0  0  0  0  0  0  0  0  0  0  0  0
   17.0236   17.0048   22.0499 H   0  0  0  0  0  0  0  0  0  0  0  0
  1  2  1  0  0  0  0
  1  3  1  0  0  0  0
  1  4  1  0  0  0  0
  4  5  1  0  0  0  0
  4  6  1  0  0  0  0
  4  7  1  0  0  0  0
  7  8  1  0  0  0  0
  7  9  1  0  0  0  0
  7 10  1  0  0  0  0
 10 11  1  0  0  0  0
  1 12  1  0  0  0  0
 10 12  1  0  0  0  0
 12 13  1  0  0  0  0
 12 14  1  0  0  0  0
 10 15  1  0  0  0  0
 15 16  1  0  0  0  0
M  END
> <VConfSearch Rank>
637

> <Conf_Id>
59

> <Delta U+W>
0.000

> <U+W>
3.010

> <U>
5.843

> <W>
-2.833

> <W(PB)>
-4.568

> <W(SA)>
1.735

> <Valence>
13.789

> <Coulomb>
-8.574

> <VdW>
0.628

> <VdW6>
-3.284

> <VdW12>
3.912

> <Bond>
0.054

> <Angle>
4.034

> <Pdih>
9.702

> <Idih>
0.000

> <Tether>
0.000

$$$$
VeraChem MOL file


 16 16  0  0  0  0  0  0  0  0999 V2000     
   19.6455   17.9295   21.0446 C   0  0  0  0  0  0  0  0  0  0  0  0
   19.0646   17.3528   20.3120 H   0  0  0  0  0  0  0  0  0  0  0  0
   20.6432   18.1149   20.6228 H   0  0  0  0  0  0  0  0  0  0  0  0
   19.7806   17.1993   22.3879 C   0  0  0  0  0  0  0  0  0  0  0  0
   18.8316   16.7031   22.6344 H   0  0  0  0  0  0  0  0  0  0  0  0
   20.5732   16.4389   22.3742 H   0  0  0  0  0  0  0  0  0  0  0  0
   20.0576   18.3185   23.4086 C   0  0  0  0  0  0  0  0  0  0  0  0
   21.1402   18.4792   23.4944 H   0  0  0  0  0  0  0  0  0  0  0  0
   19.6785   18.0590   24.4060 H   0  0  0  0  0  0  0  0  0  0  0  0
   19.4023   19.5974   22.8476 C   0  0  0  0  0  0  0  0  0  0  0  0
   20.1403   20.4128   22.8451 H   0  0  0  0  0  0  0  0  0  0  0  0
   18.9740   19.2681   21.4019 C   0  0  0  0  0  0  0  0  0  0  0  0
   17.8829   19.1539   21.3448 H   0  0  0  0  0  0  0  0  0  0  0  0
   19.2668   20.0627   20.7036 H   0  0  0  0  0  0  0  0  0  0  0  0
   18.2660   19.9492   23.6281 O   0  0  0  0  0  0  0  0  0  0  0  0
   17.8852   20.7566   23.2224 H   0  0  0  0  0  0  0  0  0  0  0  0
  1  2  1  0  0  0  0
  1  3  1  0  0  0  0
  1  4  1  0  0  0  0
  4  5  1  0  0  0  0
  4  6  1  0  0  0  0
  4  7  1  0  0  0  0
  7  8  1  0  0  0  0
  7  9  1  0  0  0  0
  7 10  1  0  0  0  0
 10 11  1  0  0  0  0
  1 12  1  0  0  0  0
 10 12  1  0  0  0  0
 12 13  1  0  0  0  0
 12 14  1  0  0  0  0
 10 15  1  0  0  0  0
 15 16  1  0  0  0  0
M  END
> <VConfSearch Rank>
638

> <Conf_Id>
33

> <Delta U+W>
0.015

> <U+W>
3.025

> <U>
5.843

> <W>
-2.819

> <W(PB)>
-4.568

> <W(SA)>
1.750

> <Valence>
13.789

> <Coulomb>
-8.574

> <VdW>
0.628

> <VdW6>
-3.284

> <VdW12>
3.913

> <Bond>
0.054

> <Angle>
4.033

> <Pdih>
9.702

> <Idih>
0.000

> <Tether>
0.000

$$$$
VeraChem MOL file


 16 16  0  0  0  0  0  0  0  0999 V2000     
   19.3115   17.9113   21.1215 C   0  0  0  0  0  0  0  0  0  0  0  0
   19.8602   18.3600   20.2819 H   0  0  0  0  0  0  0  0  0  0  0  0
   18.8663   16.9723   20.7649 H   0  0  0  0  0  0  0  0  0  0  0  0
   18.2338   18.8938   21.6296 C   0  0  0  0  0  0  0  0  0  0  0  0
   18.2601   19.8175   21.0353 H   0  0  0  0  0  0  0  0  0  0  0  0
   17.2249   18.4683   21.5398 H   0  0  0  0  0  0  0  0  0  0  0  0
   18.5785   19.1978   23.1031 C   0  0  0  0  0  0  0  0  0  0  0  0
   17.9707   18.5623   23.7607 H   0  0  0  0  0  0  0  0  0  0  0  0
   18.3775   20.2438   23.3703 H   0  0  0  0  0  0  0  0  0  0  0  0
   20.0571   18.8267   23.2791 C   0  0  0  0  0  0  0  0  0  0  0  0
   20.2808   18.5363   24.3157 H   0  0  0  0  0  0  0  0  0  0  0  0
   20.2663   17.6575   22.3074 C   0  0  0  0  0  0  0  0  0  0  0  0
   21.3126   17.5651   21.9870 H   0  0  0  0  0  0  0  0  0  0  0  0
   19.9868   16.7221   22.8097 H   0  0  0  0  0  0  0  0  0  0  0  0
   20.8655   19.9218   22.8741 O   0  0  0  0  0  0  0  0  0  0  0  0
   20.5991   20.1072   21.9500 H   0  0  0  0  0  0  0  0  0  0  0  0
  1  2  1  0  0  0  0
  1  3  1  0  0  0  0
  1  4  1  0  0  0  0
  4  5  1  0  0  0  0
  4  6  1  0  0  0  0
  4  7  1  0  0  0  0
  7  8  1  0  0  0  0
  7  9  1  0  0  0  0
  7 10  1  0  0  0  0
 10 11  1  0  0  0  0
  1 12  1  0  0  0  0
 10 12  1  0  0  0  0
 12 13  1  0  0  0  0
 12 14  1  0  0  0  0
 10 15  1  0  0  0  0
 15 16  1  0  0  0  0
M  END
> <VConfSearch Rank>
639

> <Conf_Id>
20

> <Delta U+W>
-0.483

> <U+W>
2.527

> <U>
4.508

> <W>
-1.981

> <W(PB)>
-3.712

> <W(SA)>
1.732

> <Valence>
14.705

> <Coulomb>
-10.687

> <VdW>
0.490

> <VdW6>
-3.745

> <VdW12>
4.235

> <Bond>
0.068

> <Angle>
3.901

> <Pdih>
10.737

> <Idih>
0.000

> <Tether>
0.000

$$$$
VeraChem MOL file


 16 16  0  0  0  0  0  0  0  0999 V2000     
   18.8043   19.8373   22.7147 C   0  0  0  0  0  0  0  0  0  0  0  0
   18.9311   19.8736   23.8057 H   0  0  0  0  0  0  0  0  0  0  0  0
   18.3724   20.7925   22.3865 H   0  0  0  0  0  0  0  0  0  0  0  0
   17.9252   18.6366   22.3388 C   0  0  0  0  0  0  0  0  0  0  0  0
   17.0944   18.4903   23.0424 H   0  0  0  0  0  0  0  0  0  0  0  0
   17.5031   18.7872   21.3354 H   0  0  0  0  0  0  0  0  0  0  0  0
   18.8959   17.4416   22.3217 C   0  0  0  0  0  0  0  0  0  0  0  0
   18.5700   16.6703   21.6119 H   0  0  0  0  0  0  0  0  0  0  0  0
   18.9304   16.9873   23.3213 H   0  0  0  0  0  0  0  0  0  0  0  0
   20.2799   18.0109   21.9450 C   0  0  0  0  0  0  0  0  0  0  0  0
   20.5319   17.7342   20.9108 H   0  0  0  0  0  0  0  0  0  0  0  0
   20.1609   19.5455   22.0472 C   0  0  0  0  0  0  0  0  0  0  0  0
   20.9922   19.9916   22.6094 H   0  0  0  0  0  0  0  0  0  0  0  0
   20.1739   19.9737   21.0365 H   0  0  0  0  0  0  0  0  0  0  0  0
   21.2695   17.5342   22.8491 O   0  0  0  0  0  0  0  0  0  0  0  0
   21.2943   16.5589   22.7502 H   0  0  0  0  0  0  0  0  0  0  0  0
  1  2  1  0  0  0  0
  1  3  1  0  0  0  0
  1  4  1  0  0  0  0
  4  5  1  0  0  0  0
  4  6  1  0  0  0  0
  4  7  1  0  0  0  0
  7  8  1  0  0  0  0
  7  9  1  0  0  0  0
  7 10  1  0  0  0  0
 10 11  1  0  0  0  0
  1 12  1  0  0  0  0
 10 12  1  0  0  0  0
 12 13  1  0  0  0  0
 12 14  1  0  0  0  0
 10 15  1  0  0  0  0
 15 16  1  0  0  0  0
M  END
> <VConfSearch Rank>
640

> <Conf_Id>
59

> <Delta U+W>
0.000

> <U+W>
3.010

> <U>
5.843

> <W>
-2.833

> <W(PB)>
-4.568

> <W(SA)>
1.735

> <Valence>
13.789

> <Coulomb>
-8.574

> <VdW>
0.628

> <VdW6>
-3.284

> <VdW12>
3.912

> <Bond>
0.054

> <Angle>
4.034

> <Pdih>
9.702

> <Idih>
0.000

> <Tether>
0.000

$$$$
VeraChem MOL file


 16 16  0  0  0  0  0  0  0  0999 V2000     
   20.2224   17.5882   22.9392 C   0  0  0  0  0  0  0  0  0  0  0  0
   20.8265   16.7092   22.6763 H   0  0  0  0  0  0  0  0  0  0  0  0
   20.3469   17.7817   24.0138 H   0  0  0  0  0  0  0  0  0  0  0  0
   18.7343   17.3910   22.6192 C   0  0  0  0  0  0  0  0  0  0  0  0
   18.6306   16.8582   21.6636 H   0  0  0  0  0  0  0  0  0  0  0  0
   18.2115   16.8135   23.3937 H   0  0  0  0  0  0  0  0  0  0  0  0
   18.1784   18.8198   22.4759 C   0  0  0  0  0  0  0  0  0  0  0  0
   17.8243   19.1769   23.4517 H   0  0  0  0  0  0  0  0  0  0  0  0
   17.3301   18.8557   21.7794 H   0  0  0  0  0  0  0  0  0  0  0  0
   19.3541   19.7048   22.0128 C   0  0  0  0  0  0  0  0  0  0  0  0
   19.4313   20.5810   22.6730 H   0  0  0  0  0  0  0  0  0  0  0  0
   20.6250   18.8378   22.1349 C   0  0  0  0  0  0  0  0  0  0  0  0
   20.9743   18.5320   21.1392 H   0  0  0  0  0  0  0  0  0  0  0  0
   21.4409   19.3846   22.6251 H   0  0  0  0  0  0  0  0  0  0  0  0
   19.1625   20.1075   20.6619 O   0  0  0  0  0  0  0  0  0  0  0  0
   19.9394   20.6542   20.4186 H   0  0  0  0  0  0  0  0  0  0  0  0
  1  2  1  0  0  0  0
  1  3  1  0  0  0  0
  1  4  1  0  0  0  0
  4  5  1  0  0  0  0
  4  6  1  0  0  0  0
  4  7  1  0  0  0  0
  7  8  1  0  0  0  0
  7  9  1  0  0  0  0
  7 10  1  0  0  0  0
 10 11  1  0  0  0  0
  1 12  1  0  0  0  0
 10 12  1  0  0  0  0
 12 13  1  0  0  0  0
 12 14  1  0  0  0  0
 10 15  1  0  0  0  0
 15 16  1  0  0  0  0
M  END
> <VConfSearch Rank>
641

> <Conf_Id>
33

> <Delta U+W>
0.015

> <U+W>
3.025

> <U>
5.843

> <W>
-2.819

> <W(PB)>
-4.568

> <W(SA)>
1.750

> <Valence>
13.789

> <Coulomb>
-8.574

> <VdW>
0.628

> <VdW6>
-3.284

> <VdW12>
3.913

> <Bond>
0.054

> <Angle>
4.033

> <Pdih>
9.702

> <Idih>
0.000

> <Tether>
0.000

$$$$
VeraChem MOL file


 16 16  0  0  0  0  0  0  0  0999 V2000     
   19.8677   17.4085   21.9401 C   0  0  0  0  0  0  0  0  0  0  0  0
   19.1049   16.6695   21.6587 H   0  0  0  0  0  0  0  0  0  0  0  0
   20.8495   16.9225   21.8561 H   0  0  0  0  0  0  0  0  0  0  0  0
   19.6052   17.9139   23.3756 C   0  0  0  0  0  0  0  0  0  0  0  0
   18.7159   17.4188   23.7894 H   0  0  0  0  0  0  0  0  0  0  0  0
   20.4501   17.6932   24.0423 H   0  0  0  0  0  0  0  0  0  0  0  0
   19.3667   19.4350   23.2673 C   0  0  0  0  0  0  0  0  0  0  0  0
   20.2962   19.9698   23.5031 H   0  0  0  0  0  0  0  0  0  0  0  0
   18.5935   19.7857   23.9638 H   0  0  0  0  0  0  0  0  0  0  0  0
   18.9949   19.7038   21.8029 C   0  0  0  0  0  0  0  0  0  0  0  0
   19.2726   20.7223   21.4953 H   0  0  0  0  0  0  0  0  0  0  0  0
   19.7792   18.6434   21.0184 C   0  0  0  0  0  0  0  0  0  0  0  0
   19.3111   18.4095   20.0529 H   0  0  0  0  0  0  0  0  0  0  0  0
   20.7892   19.0238   20.8166 H   0  0  0  0  0  0  0  0  0  0  0  0
   17.6033   19.4826   21.6254 O   0  0  0  0  0  0  0  0  0  0  0  0
   17.4519   18.5616   21.9219 H   0  0  0  0  0  0  0  0  0  0  0  0
  1  2  1  0  0  0  0
  1  3  1  0  0  0  0
  1  4  1  0  0  0  0
  4  5  1  0  0  0  0
  4  6  1  0  0  0  0
  4  7  1  0  0  0  0
  7  8  1  0  0  0  0
  7  9  1  0  0  0  0
  7 10  1  0  0  0  0
 10 11  1  0  0  0  0
  1 12  1  0  0  0  0
 10 12  1  0  0  0  0
 12 13  1  0  0  0  0
 12 14  1  0  0  0  0
 10 15  1  0  0  0  0
 15 16  1  0  0  0  0
M  END
> <VConfSearch Rank>
642

> <Conf_Id>
20

> <Delta U+W>
-0.483

> <U+W>
2.527

> <U>
4.508

> <W>
-1.981

> <W(PB)>
-3.712

> <W(SA)>
1.732

> <Valence>
14.705

> <Coulomb>
-10.687

> <VdW>
0.490

> <VdW6>
-3.745

> <VdW12>
4.235

> <Bond>
0.068

> <Angle>
3.901

> <Pdih>
10.737

> <Idih>
0.000

> <Tether>
0.000

$$$$
VeraChem MOL file


 16 16  0  0  0  0  0  0  0  0999 V2000     
   20.4475   19.0514   21.4898 C   0  0  0  0  0  0  0  0  0  0  0  0
   20.7950   19.9622   21.9972 H   0  0  0  0  0  0  0  0  0  0  0  0
   21.0954   18.8732   20.6208 H   0  0  0  0  0  0  0  0  0  0  0  0
   18.9722   19.2120   21.0981 C   0  0  0  0  0  0  0  0  0  0  0  0
   18.7441   20.2231   20.7342 H   0  0  0  0  0  0  0  0  0  0  0  0
   18.7208   18.4960   20.3033 H   0  0  0  0  0  0  0  0  0  0  0  0
   18.1951   18.8614   22.3801 C   0  0  0  0  0  0  0  0  0  0  0  0
   17.2081   18.4407   22.1485 H   0  0  0  0  0  0  0  0  0  0  0  0
   18.0424   19.7734   22.9732 H   0  0  0  0  0  0  0  0  0  0  0  0
   19.0711   17.8575   23.1589 C   0  0  0  0  0  0  0  0  0  0  0  0
   18.6422   16.8475   23.0852 H   0  0  0  0  0  0  0  0  0  0  0  0
   20.4569   17.8733   22.4813 C   0  0  0  0  0  0  0  0  0  0  0  0
   21.2752   17.9631   23.2081 H   0  0  0  0  0  0  0  0  0  0  0  0
   20.5985   16.9323   21.9340 H   0  0  0  0  0  0  0  0  0  0  0  0
   19.1855   18.2579   24.5192 O   0  0  0  0  0  0  0  0  0  0  0  0
   18.2797   18.2405   24.8946 H   0  0  0  0  0  0  0  0  0  0  0  0
  1  2  1  0  0  0  0
  1  3  1  0  0  0  0
  1  4  1  0  0  0  0
  4  5  1  0  0  0  0
  4  6  1  0  0  0  0
  4  7  1  0  0  0  0
  7  8  1  0  0  0  0
  7  9  1  0  0  0  0
  7 10  1  0  0  0  0
 10 11  1  0  0  0  0
  1 12  1  0  0  0  0
 10 12  1  0  0  0  0
 12 13  1  0  0  0  0
 12 14  1  0  0  0  0
 10 15  1  0  0  0  0
 15 16  1  0  0  0  0
M  END
> <VConfSearch Rank>
643

> <Conf_Id>
59

> <Delta U+W>
0.000

> <U+W>
3.010

> <U>
5.843

> <W>
-2.833

> <W(PB)>
-4.568

> <W(SA)>
1.735

> <Valence>
13.789

> <Coulomb>
-8.574

> <VdW>
0.628

> <VdW6>
-3.284

> <VdW12>
3.912

> <Bond>
0.054

> <Angle>
4.034

> <Pdih>
9.702

> <Idih>
0.000

> <Tether>
0.000

$$$$
VeraChem MOL file


 16 16  0  0  0  0  0  0  0  0999 V2000     
   18.3142   17.8041   22.6281 C   0  0  0  0  0  0  0  0  0  0  0  0
   17.2321   17.9127   22.7828 H   0  0  0  0  0  0  0  0  0  0  0  0
   18.5562   16.7321   22.6335 H   0  0  0  0  0  0  0  0  0  0  0  0
   19.1336   18.5237   23.7081 C   0  0  0  0  0  0  0  0  0  0  0  0
   18.6579   19.4837   23.9527 H   0  0  0  0  0  0  0  0  0  0  0  0
   19.2177   17.9359   24.6322 H   0  0  0  0  0  0  0  0  0  0  0  0
   20.5010   18.7793   23.0478 C   0  0  0  0  0  0  0  0  0  0  0  0
   21.1683   17.9294   23.2414 H   0  0  0  0  0  0  0  0  0  0  0  0
   20.9825   19.6803   23.4507 H   0  0  0  0  0  0  0  0  0  0  0  0
   20.2443   18.8816   21.5301 C   0  0  0  0  0  0  0  0  0  0  0  0
   20.9294   18.2047   20.9992 H   0  0  0  0  0  0  0  0  0  0  0  0
   18.7835   18.4373   21.3055 C   0  0  0  0  0  0  0  0  0  0  0  0
   18.1524   19.3064   21.0748 H   0  0  0  0  0  0  0  0  0  0  0  0
   18.7009   17.7297   20.4705 H   0  0  0  0  0  0  0  0  0  0  0  0
   20.4222   20.2233   21.0918 O   0  0  0  0  0  0  0  0  0  0  0  0
   20.2365   20.2317   20.1290 H   0  0  0  0  0  0  0  0  0  0  0  0
  1  2  1  0  0  0  0
  1  3  1  0  0  0  0
  1  4  1  0  0  0  0
  4  5  1  0  0  0  0
  4  6  1  0  0  0  0
  4  7  1  0  0  0  0
  7  8  1  0  0  0  0
  7  9  1  0  0  0  0
  7 10  1  0  0  0  0
 10 11  1  0  0  0  0
  1 12  1  0  0  0  0
 10 12  1  0  0  0  0
 12 13  1  0  0  0  0
 12 14  1  0  0  0  0
 10 15  1  0  0  0  0
 15 16  1  0  0  0  0
M  END
> <VConfSearch Rank>
644

> <Conf_Id>
33

> <Delta U+W>
0.015

> <U+W>
3.025

> <U>
5.843

> <W>
-2.819

> <W(PB)>
-4.568

> <W(SA)>
1.750

> <Valence>
13.789

> <Coulomb>
-8.574

> <VdW>
0.628

> <VdW6>
-3.284

> <VdW12>
3.913

> <Bond>
0.054

> <Angle>
4.033

> <Pdih>
9.702

> <Idih>
0.000

> <Tether>
0.000

$$$$
VeraChem MOL file


 16 16  0  0  0  0  0  0  0  0999 V2000     
   20.6913   18.7937   22.4229 C   0  0  0  0  0  0  0  0  0  0  0  0
   20.9733   19.8188   22.7004 H   0  0  0  0  0  0  0  0  0  0  0  0
   21.6116   18.1954   22.3782 H   0  0  0  0  0  0  0  0  0  0  0  0
   19.9523   18.8012   21.0668 C   0  0  0  0  0  0  0  0  0  0  0  0
   19.8776   19.8297   20.6876 H   0  0  0  0  0  0  0  0  0  0  0  0
   20.4856   18.2059   20.3130 H   0  0  0  0  0  0  0  0  0  0  0  0
   18.5443   18.2273   21.3325 C   0  0  0  0  0  0  0  0  0  0  0  0
   18.5264   17.1619   21.0675 H   0  0  0  0  0  0  0  0  0  0  0  0
   17.7703   18.7322   20.7393 H   0  0  0  0  0  0  0  0  0  0  0  0
   18.3052   18.3693   22.8417 C   0  0  0  0  0  0  0  0  0  0  0  0
   17.6113   17.6026   23.2154 H   0  0  0  0  0  0  0  0  0  0  0  0
   19.7025   18.2145   23.4569 C   0  0  0  0  0  0  0  0  0  0  0  0
   19.7842   18.7095   24.4337 H   0  0  0  0  0  0  0  0  0  0  0  0
   19.9104   17.1466   23.6051 H   0  0  0  0  0  0  0  0  0  0  0  0
   17.8150   19.6735   23.1168 O   0  0  0  0  0  0  0  0  0  0  0  0
   18.4905   20.2818   22.7522 H   0  0  0  0  0  0  0  0  0  0  0  0
  1  2  1  0  0  0  0
  1  3  1  0  0  0  0
  1  4  1  0  0  0  0
  4  5  1  0  0  0  0
  4  6  1  0  0  0  0
  4  7  1  0  0  0  0
  7  8  1  0  0  0  0
  7  9  1  0  0  0  0
  7 10  1  0  0  0  0
 10 11  1  0  0  0  0
  1 12  1  0  0  0  0
 10 12  1  0  0  0  0
 12 13  1  0  0  0  0
 12 14  1  0  0  0  0
 10 15  1  0  0  0  0
 15 16  1  0  0  0  0
M  END
> <VConfSearch Rank>
645

> <Conf_Id>
20

> <Delta U+W>
-0.483

> <U+W>
2.527

> <U>
4.508

> <W>
-1.981

> <W(PB)>
-3.712

> <W(SA)>
1.732

> <Valence>
14.705

> <Coulomb>
-10.687

> <VdW>
0.490

> <VdW6>
-3.745

> <VdW12>
4.235

> <Bond>
0.068

> <Angle>
3.901

> <Pdih>
10.737

> <Idih>
0.000

> <Tether>
0.000

$$$$
VeraChem MOL file


 16 16  0  0  0  0  0  0  0  0999 V2000     
   18.0839   18.7546   21.6433 C   0  0  0  0  0  0  0  0  0  0  0  0
   18.0869   18.0403   20.8082 H   0  0  0  0  0  0  0  0  0  0  0  0
   17.1135   19.2692   21.6526 H   0  0  0  0  0  0  0  0  0  0  0  0
   19.2617   19.7272   21.4924 C   0  0  0  0  0  0  0  0  0  0  0  0
   19.4237   20.0286   20.4486 H   0  0  0  0  0  0  0  0  0  0  0  0
   19.0720   20.6324   22.0860 H   0  0  0  0  0  0  0  0  0  0  0  0
   20.4654   18.9646   22.0757 C   0  0  0  0  0  0  0  0  0  0  0  0
   21.2081   19.6521   22.5006 H   0  0  0  0  0  0  0  0  0  0  0  0
   20.9544   18.3916   21.2761 H   0  0  0  0  0  0  0  0  0  0  0  0
   19.8977   18.0100   23.1472 C   0  0  0  0  0  0  0  0  0  0  0  0
   20.1409   18.3850   24.1521 H   0  0  0  0  0  0  0  0  0  0  0  0
   18.3663   18.0089   22.9606 C   0  0  0  0  0  0  0  0  0  0  0  0
   17.9488   16.9933   22.9477 H   0  0  0  0  0  0  0  0  0  0  0  0
   17.9035   18.5494   23.7965 H   0  0  0  0  0  0  0  0  0  0  0  0
   20.4157   16.6983   22.9602 O   0  0  0  0  0  0  0  0  0  0  0  0
   21.3871   16.7601   23.0786 H   0  0  0  0  0  0  0  0  0  0  0  0
  1  2  1  0  0  0  0
  1  3  1  0  0  0  0
  1  4  1  0  0  0  0
  4  5  1  0  0  0  0
  4  6  1  0  0  0  0
  4  7  1  0  0  0  0
  7  8  1  0  0  0  0
  7  9  1  0  0  0  0
  7 10  1  0  0  0  0
 10 11  1  0  0  0  0
  1 12  1  0  0  0  0
 10 12  1  0  0  0  0
 12 13  1  0  0  0  0
 12 14  1  0  0  0  0
 10 15  1  0  0  0  0
 15 16  1  0  0  0  0
M  END
> <VConfSearch Rank>
646

> <Conf_Id>
59

> <Delta U+W>
0.000

> <U+W>
3.010

> <U>
5.843

> <W>
-2.833

> <W(PB)>
-4.568

> <W(SA)>
1.735

> <Valence>
13.789

> <Coulomb>
-8.574

> <VdW>
0.628

> <VdW6>
-3.284

> <VdW12>
3.912

> <Bond>
0.054

> <Angle>
4.034

> <Pdih>
9.702

> <Idih>
0.000

> <Tether>
0.000

$$$$
VeraChem MOL file


 16 16  0  0  0  0  0  0  0  0999 V2000     
   20.3997   19.3729   21.5282 C   0  0  0  0  0  0  0  0  0  0  0  0
   20.7122   19.5057   20.4835 H   0  0  0  0  0  0  0  0  0  0  0  0
   20.9035   20.1364   22.1372 H   0  0  0  0  0  0  0  0  0  0  0  0
   20.7396   17.9763   22.0664 C   0  0  0  0  0  0  0  0  0  0  0  0
   20.5524   17.2253   21.2863 H   0  0  0  0  0  0  0  0  0  0  0  0
   21.7888   17.8917   22.3808 H   0  0  0  0  0  0  0  0  0  0  0  0
   19.7576   17.7635   23.2332 C   0  0  0  0  0  0  0  0  0  0  0  0
   20.2080   18.1290   24.1652 H   0  0  0  0  0  0  0  0  0  0  0  0
   19.5190   16.7006   23.3722 H   0  0  0  0  0  0  0  0  0  0  0  0
   18.5063   18.6076   22.9144 C   0  0  0  0  0  0  0  0  0  0  0  0
   18.2641   19.2399   23.7810 H   0  0  0  0  0  0  0  0  0  0  0  0
   18.8745   19.4901   21.7030 C   0  0  0  0  0  0  0  0  0  0  0  0
   18.3755   19.1203   20.7970 H   0  0  0  0  0  0  0  0  0  0  0  0
   18.5672   20.5328   21.8553 H   0  0  0  0  0  0  0  0  0  0  0  0
   17.4119   17.7589   22.5889 O   0  0  0  0  0  0  0  0  0  0  0  0
   16.6524   18.3449   22.3856 H   0  0  0  0  0  0  0  0  0  0  0  0
  1  2  1  0  0  0  0
  1  3  1  0  0  0  0
  1  4  1  0  0  0  0
  4  5  1  0  0  0  0
  4  6  1  0  0  0  0
  4  7  1  0  0  0  0
  7  8  1  0  0  0  0
  7  9  1  0  0  0  0
  7 10  1  0  0  0  0
 10 11  1  0  0  0  0
  1 12  1  0  0  0  0
 10 12  1  0  0  0  0
 12 13  1  0  0  0  0
 12 14  1  0  0  0  0
 10 15  1  0  0  0  0
 15 16  1  0  0  0  0
M  END
> <VConfSearch Rank>
647

> <Conf_Id>
33

> <Delta U+W>
0.015

> <U+W>
3.025

> <U>
5.843

> <W>
-2.819

> <W(PB)>
-4.568

> <W(SA)>
1.750

> <Valence>
13.789

> <Coulomb>
-8.574

> <VdW>
0.628

> <VdW6>
-3.284

> <VdW12>
3.913

> <Bond>
0.054

> <Angle>
4.033

> <Pdih>
9.702

> <Idih>
0.000

> <Tether>
0.000

$$$$
VeraChem MOL file


 16 16  0  0  0  0  0  0  0  0999 V2000     
   19.8983   17.5946   21.5631 C   0  0  0  0  0  0  0  0  0  0  0  0
   20.1801   16.7260   22.1741 H   0  0  0  0  0  0  0  0  0  0  0  0
   20.1225   17.3519   20.5153 H   0  0  0  0  0  0  0  0  0  0  0  0
   20.6749   18.8432   22.0355 C   0  0  0  0  0  0  0  0  0  0  0  0
   21.3333   18.5785   22.8744 H   0  0  0  0  0  0  0  0  0  0  0  0
   21.3046   19.2542   21.2345 H   0  0  0  0  0  0  0  0  0  0  0  0
   19.6168   19.8702   22.4916 C   0  0  0  0  0  0  0  0  0  0  0  0
   19.4277   20.5865   21.6812 H   0  0  0  0  0  0  0  0  0  0  0  0
   19.9422   20.4400   23.3721 H   0  0  0  0  0  0  0  0  0  0  0  0
   18.3349   19.0698   22.7583 C   0  0  0  0  0  0  0  0  0  0  0  0
   17.4356   19.6852   22.6110 H   0  0  0  0  0  0  0  0  0  0  0  0
   18.4000   17.9146   21.7503 C   0  0  0  0  0  0  0  0  0  0  0  0
   17.8259   17.0394   22.0829 H   0  0  0  0  0  0  0  0  0  0  0  0
   17.9744   18.2502   20.7954 H   0  0  0  0  0  0  0  0  0  0  0  0
   18.3780   18.5433   24.0766 O   0  0  0  0  0  0  0  0  0  0  0  0
   19.2026   18.0162   24.1135 H   0  0  0  0  0  0  0  0  0  0  0  0
  1  2  1  0  0  0  0
  1  3  1  0  0  0  0
  1  4  1  0  0  0  0
  4  5  1  0  0  0  0
  4  6  1  0  0  0  0
  4  7  1  0  0  0  0
  7  8  1  0  0  0  0
  7  9  1  0  0  0  0
  7 10  1  0  0  0  0
 10 11  1  0  0  0  0
  1 12  1  0  0  0  0
 10 12  1  0  0  0  0
 12 13  1  0  0  0  0
 12 14  1  0  0  0  0
 10 15  1  0  0  0  0
 15 16  1  0  0  0  0
M  END
> <VConfSearch Rank>
648

> <Conf_Id>
20

> <Delta U+W>
-0.483

> <U+W>
2.527

> <U>
4.508

> <W>
-1.981

> <W(PB)>
-3.712

> <W(SA)>
1.732

> <Valence>
14.705

> <Coulomb>
-10.687

> <VdW>
0.490

> <VdW6>
-3.745

> <VdW12>
4.235

> <Bond>
0.068

> <Angle>
3.901

> <Pdih>
10.737

> <Idih>
0.000

> <Tether>
0.000

$$$$
VeraChem MOL file


 16 16  0  0  0  0  0  0  0  0999 V2000     
   20.3829   19.4588   22.8093 C   0  0  0  0  0  0  0  0  0  0  0  0
   21.1764   18.8047   23.1967 H   0  0  0  0  0  0  0  0  0  0  0  0
   20.7178   20.5005   22.9059 H   0  0  0  0  0  0  0  0  0  0  0  0
   19.0774   19.1898   23.5702 C   0  0  0  0  0  0  0  0  0  0  0  0
   19.2454   19.0248   24.6432 H   0  0  0  0  0  0  0  0  0  0  0  0
   18.3998   20.0474   23.4564 H   0  0  0  0  0  0  0  0  0  0  0  0
   18.4760   17.9548   22.8747 C   0  0  0  0  0  0  0  0  0  0  0  0
   17.3802   17.9527   22.9380 H   0  0  0  0  0  0  0  0  0  0  0  0
   18.8442   17.0449   23.3679 H   0  0  0  0  0  0  0  0  0  0  0  0
   18.9596   18.0021   21.4099 C   0  0  0  0  0  0  0  0  0  0  0  0
   18.1312   18.2973   20.7495 H   0  0  0  0  0  0  0  0  0  0  0  0
   20.0652   19.0764   21.3519 C   0  0  0  0  0  0  0  0  0  0  0  0
   20.9604   18.7250   20.8218 H   0  0  0  0  0  0  0  0  0  0  0  0
   19.6831   19.9547   20.8154 H   0  0  0  0  0  0  0  0  0  0  0  0
   19.4841   16.7370   21.0250 O   0  0  0  0  0  0  0  0  0  0  0  0
   18.7460   16.0947   21.0907 H   0  0  0  0  0  0  0  0  0  0  0  0
  1  2  1  0  0  0  0
  1  3  1  0  0  0  0
  1  4  1  0  0  0  0
  4  5  1  0  0  0  0
  4  6  1  0  0  0  0
  4  7  1  0  0  0  0
  7  8  1  0  0  0  0
  7  9  1  0  0  0  0
  7 10  1  0  0  0  0
 10 11  1  0  0  0  0
  1 12  1  0  0  0  0
 10 12  1  0  0  0  0
 12 13  1  0  0  0  0
 12 14  1  0  0  0  0
 10 15  1  0  0  0  0
 15 16  1  0  0  0  0
M  END
> <VConfSearch Rank>
649

> <Conf_Id>
59

> <Delta U+W>
0.000

> <U+W>
3.010

> <U>
5.843

> <W>
-2.833

> <W(PB)>
-4.568

> <W(SA)>
1.735

> <Valence>
13.789

> <Coulomb>
-8.574

> <VdW>
0.628

> <VdW6>
-3.284

> <VdW12>
3.912

> <Bond>
0.054

> <Angle>
4.034

> <Pdih>
9.702

> <Idih>
0.000

> <Tether>
0.000

$$$$
VeraChem MOL file


 16 16  0  0  0  0  0  0  0  0999 V2000     
   20.8059   19.0875   22.3332 C   0  0  0  0  0  0  0  0  0  0  0  0
   21.4102   19.8359   22.8638 H   0  0  0  0  0  0  0  0  0  0  0  0
   21.4829   18.4575   21.7395 H   0  0  0  0  0  0  0  0  0  0  0  0
   19.7580   19.7289   21.4132 C   0  0  0  0  0  0  0  0  0  0  0  0
   19.3220   20.6078   21.9082 H   0  0  0  0  0  0  0  0  0  0  0  0
   20.1834   20.0505   20.4529 H   0  0  0  0  0  0  0  0  0  0  0  0
   18.6785   18.6440   21.2439 C   0  0  0  0  0  0  0  0  0  0  0  0
   18.9193   18.0169   20.3756 H   0  0  0  0  0  0  0  0  0  0  0  0
   17.6867   19.0836   21.0733 H   0  0  0  0  0  0  0  0  0  0  0  0
   18.7230   17.7764   22.5187 C   0  0  0  0  0  0  0  0  0  0  0  0
   18.8002   16.7168   22.2345 H   0  0  0  0  0  0  0  0  0  0  0  0
   19.9852   18.2085   23.2945 C   0  0  0  0  0  0  0  0  0  0  0  0
   19.7056   18.7990   24.1777 H   0  0  0  0  0  0  0  0  0  0  0  0
   20.5640   17.3414   23.6382 H   0  0  0  0  0  0  0  0  0  0  0  0
   17.5607   18.0029   23.3070 O   0  0  0  0  0  0  0  0  0  0  0  0
   17.6471   17.4384   24.1042 H   0  0  0  0  0  0  0  0  0  0  0  0
  1  2  1  0  0  0  0
  1  3  1  0  0  0  0
  1  4  1  0  0  0  0
  4  5  1  0  0  0  0
  4  6  1  0  0  0  0
  4  7  1  0  0  0  0
  7  8  1  0  0  0  0
  7  9  1  0  0  0  0
  7 10  1  0  0  0  0
 10 11  1  0  0  0  0
  1 12  1  0  0  0  0
 10 12  1  0  0  0  0
 12 13  1  0  0  0  0
 12 14  1  0  0  0  0
 10 15  1  0  0  0  0
 15 16  1  0  0  0  0
M  END
> <VConfSearch Rank>
650

> <Conf_Id>
33

> <Delta U+W>
0.015

> <U+W>
3.025

> <U>
5.843

> <W>
-2.819

> <W(PB)>
-4.568

> <W(SA)>
1.750

> <Valence>
13.789

> <Coulomb>
-8.574

> <VdW>
0.628

> <VdW6>
-3.284

> <VdW12>
3.913

> <Bond>
0.054

> <Angle>
4.033

> <Pdih>
9.702

> <Idih>
0.000

> <Tether>
0.000

$$$$
VeraChem MOL file


 16 16  0  0  0  0  0  0  0  0999 V2000     
   20.7063   18.5209   22.1427 C   0  0  0  0  0  0  0  0  0  0  0  0
   21.2479   19.4303   22.4376 H   0  0  0  0  0  0  0  0  0  0  0  0
   21.4516   17.7712   21.8440 H   0  0  0  0  0  0  0  0  0  0  0  0
   19.7298   18.8417   20.9900 C   0  0  0  0  0  0  0  0  0  0  0  0
   19.7996   19.9060   20.7263 H   0  0  0  0  0  0  0  0  0  0  0  0
   19.9638   18.2589   20.0886 H   0  0  0  0  0  0  0  0  0  0  0  0
   18.3145   18.5132   21.5112 C   0  0  0  0  0  0  0  0  0  0  0  0
   18.0196   17.5134   21.1664 H   0  0  0  0  0  0  0  0  0  0  0  0
   17.5620   19.2268   21.1499 H   0  0  0  0  0  0  0  0  0  0  0  0
   18.4172   18.5022   23.0423 C   0  0  0  0  0  0  0  0  0  0  0  0
   17.6662   17.8378   23.4934 H   0  0  0  0  0  0  0  0  0  0  0  0
   19.8445   18.0096   23.3167 C   0  0  0  0  0  0  0  0  0  0  0  0
   20.2223   18.3505   24.2898 H   0  0  0  0  0  0  0  0  0  0  0  0
   19.8476   16.9116   23.3231 H   0  0  0  0  0  0  0  0  0  0  0  0
   18.2785   19.8287   23.5299 O   0  0  0  0  0  0  0  0  0  0  0  0
   18.9803   20.3410   23.0781 H   0  0  0  0  0  0  0  0  0  0  0  0
  1  2  1  0  0  0  0
  1  3  1  0  0  0  0
  1  4  1  0  0  0  0
  4  5  1  0  0  0  0
  4  6  1  0  0  0  0
  4  7  1  0  0  0  0
  7  8  1  0  0  0  0
  7  9  1  0  0  0  0
  7 10  1  0  0  0  0
 10 11  1  0  0  0  0
  1 12  1  0  0  0  0
 10 12  1  0  0  0  0
 12 13  1  0  0  0  0
 12 14  1  0  0  0  0
 10 15  1  0  0  0  0
 15 16  1  0  0  0  0
M  END
> <VConfSearch Rank>
651

> <Conf_Id>
20

> <Delta U+W>
-0.483

> <U+W>
2.527

> <U>
4.508

> <W>
-1.981

> <W(PB)>
-3.712

> <W(SA)>
1.732

> <Valence>
14.705

> <Coulomb>
-10.687

> <VdW>
0.490

> <VdW6>
-3.745

> <VdW12>
4.235

> <Bond>
0.068

> <Angle>
3.901

> <Pdih>
10.737

> <Idih>
0.000

> <Tether>
0.000

$$$$
VeraChem MOL file


 16 16  0  0  0  0  0  0  0  0999 V2000     
   19.1760   17.1481   22.6361 C   0  0  0  0  0  0  0  0  0  0  0  0
   18.9560   16.6626   21.6750 H   0  0  0  0  0  0  0  0  0  0  0  0
   19.2211   16.3714   23.4116 H   0  0  0  0  0  0  0  0  0  0  0  0
   18.1087   18.2106   22.9319 C   0  0  0  0  0  0  0  0  0  0  0  0
   17.1005   17.8814   22.6455 H   0  0  0  0  0  0  0  0  0  0  0  0
   18.1030   18.4396   24.0067 H   0  0  0  0  0  0  0  0  0  0  0  0
   18.5688   19.4471   22.1383 C   0  0  0  0  0  0  0  0  0  0  0  0
   18.2428   20.3776   22.6209 H   0  0  0  0  0  0  0  0  0  0  0  0
   18.1294   19.4171   21.1319 H   0  0  0  0  0  0  0  0  0  0  0  0
   20.1073   19.3613   22.0528 C   0  0  0  0  0  0  0  0  0  0  0  0
   20.5636   20.1025   22.7251 H   0  0  0  0  0  0  0  0  0  0  0  0
   20.4901   17.9428   22.5233 C   0  0  0  0  0  0  0  0  0  0  0  0
   21.2003   17.4552   21.8422 H   0  0  0  0  0  0  0  0  0  0  0  0
   20.9663   18.0094   23.5101 H   0  0  0  0  0  0  0  0  0  0  0  0
   20.5366   19.5660   20.7120 O   0  0  0  0  0  0  0  0  0  0  0  0
   20.2591   20.4730   20.4632 H   0  0  0  0  0  0  0  0  0  0  0  0
  1  2  1  0  0  0  0
  1  3  1  0  0  0  0
  1  4  1  0  0  0  0
  4  5  1  0  0  0  0
  4  6  1  0  0  0  0
  4  7  1  0  0  0  0
  7  8  1  0  0  0  0
  7  9  1  0  0  0  0
  7 10  1  0  0  0  0
 10 11  1  0  0  0  0
  1 12  1  0  0  0  0
 10 12  1  0  0  0  0
 12 13  1  0  0  0  0
 12 14  1  0  0  0  0
 10 15  1  0  0  0  0
 15 16  1  0  0  0  0
M  END
> <VConfSearch Rank>
652

> <Conf_Id>
59

> <Delta U+W>
0.000

> <U+W>
3.010

> <U>
5.843

> <W>
-2.833

> <W(PB)>
-4.568

> <W(SA)>
1.735

> <Valence>
13.789

> <Coulomb>
-8.574

> <VdW>
0.628

> <VdW6>
-3.284

> <VdW12>
3.912

> <Bond>
0.054

> <Angle>
4.034

> <Pdih>
9.702

> <Idih>
0.000

> <Tether>
0.000

$$$$
VeraChem MOL file


 16 16  0  0  0  0  0  0  0  0999 V2000     
   19.4699   20.0457   22.3670 C   0  0  0  0  0  0  0  0  0  0  0  0
   20.0266   20.8464   22.8726 H   0  0  0  0  0  0  0  0  0  0  0  0
   18.8053   20.5062   21.6228 H   0  0  0  0  0  0  0  0  0  0  0  0
   18.6424   19.2017   23.3461 C   0  0  0  0  0  0  0  0  0  0  0  0
   19.2163   19.0402   24.2693 H   0  0  0  0  0  0  0  0  0  0  0  0
   17.6904   19.6809   23.6122 H   0  0  0  0  0  0  0  0  0  0  0  0
   18.4416   17.8577   22.6219 C   0  0  0  0  0  0  0  0  0  0  0  0
   17.5217   17.8952   22.0241 H   0  0  0  0  0  0  0  0  0  0  0  0
   18.3443   17.0261   23.3325 H   0  0  0  0  0  0  0  0  0  0  0  0
   19.6486   17.6825   21.6774 C   0  0  0  0  0  0  0  0  0  0  0  0
   19.2870   17.4532   20.6644 H   0  0  0  0  0  0  0  0  0  0  0  0
   20.3998   19.0306   21.6774 C   0  0  0  0  0  0  0  0  0  0  0  0
   21.3336   18.9461   22.2500 H   0  0  0  0  0  0  0  0  0  0  0  0
   20.6566   19.3494   20.6589 H   0  0  0  0  0  0  0  0  0  0  0  0
   20.4989   16.6467   22.1549 O   0  0  0  0  0  0  0  0  0  0  0  0
   21.2497   16.5872   21.5269 H   0  0  0  0  0  0  0  0  0  0  0  0
  1  2  1  0  0  0  0
  1  3  1  0  0  0  0
  1  4  1  0  0  0  0
  4  5  1  0  0  0  0
  4  6  1  0  0  0  0
  4  7  1  0  0  0  0
  7  8  1  0  0  0  0
  7  9  1  0  0  0  0
  7 10  1  0  0  0  0
 10 11  1  0  0  0  0
  1 12  1  0  0  0  0
 10 12  1  0  0  0  0
 12 13  1  0  0  0  0
 12 14  1  0  0  0  0
 10 15  1  0  0  0  0
 15 16  1  0  0  0  0
M  END
> <VConfSearch Rank>
653

> <Conf_Id>
33

> <Delta U+W>
0.015

> <U+W>
3.025

> <U>
5.843

> <W>
-2.819

> <W(PB)>
-4.568

> <W(SA)>
1.750

> <Valence>
13.789

> <Coulomb>
-8.574

> <VdW>
0.628

> <VdW6>
-3.284

> <VdW12>
3.913

> <Bond>
0.054

> <Angle>
4.033

> <Pdih>
9.702

> <Idih>
0.000

> <Tether>
0.000

$$$$
VeraChem MOL file


 16 16  0  0  0  0  0  0  0  0999 V2000     
   20.3934   19.3656   22.6867 C   0  0  0  0  0  0  0  0  0  0  0  0
   21.2913   18.7986   22.9688 H   0  0  0  0  0  0  0  0  0  0  0  0
   20.6136   20.4322   22.8315 H   0  0  0  0  0  0  0  0  0  0  0  0
   19.1937   18.9116   23.5467 C   0  0  0  0  0  0  0  0  0  0  0  0
   19.5112   18.1256   24.2457 H   0  0  0  0  0  0  0  0  0  0  0  0
   18.7857   19.7409   24.1406 H   0  0  0  0  0  0  0  0  0  0  0  0
   18.1372   18.3586   22.5667 C   0  0  0  0  0  0  0  0  0  0  0  0
   17.3893   19.1348   22.3573 H   0  0  0  0  0  0  0  0  0  0  0  0
   17.6085   17.4862   22.9734 H   0  0  0  0  0  0  0  0  0  0  0  0
   18.8903   18.0298   21.2707 C   0  0  0  0  0  0  0  0  0  0  0  0
   18.2333   18.1005   20.3919 H   0  0  0  0  0  0  0  0  0  0  0  0
   20.0163   19.0712   21.2193 C   0  0  0  0  0  0  0  0  0  0  0  0
   20.8759   18.7255   20.6298 H   0  0  0  0  0  0  0  0  0  0  0  0
   19.6343   19.9863   20.7479 H   0  0  0  0  0  0  0  0  0  0  0  0
   19.4577   16.7322   21.3759 O   0  0  0  0  0  0  0  0  0  0  0  0
   20.0201   16.7642   22.1771 H   0  0  0  0  0  0  0  0  0  0  0  0
  1  2  1  0  0  0  0
  1  3  1  0  0  0  0
  1  4  1  0  0  0  0
  4  5  1  0  0  0  0
  4  6  1  0  0  0  0
  4  7  1  0  0  0  0
  7  8  1  0  0  0  0
  7  9  1  0  0  0  0
  7 10  1  0  0  0  0
 10 11  1  0  0  0  0
  1 12  1  0  0  0  0
 10 12  1  0  0  0  0
 12 13  1  0  0  0  0
 12 14  1  0  0  0  0
 10 15  1  0  0  0  0
 15 16  1  0  0  0  0
M  END
> <VConfSearch Rank>
654

> <Conf_Id>
20

> <Delta U+W>
-0.483

> <U+W>
2.527

> <U>
4.508

> <W>
-1.981

> <W(PB)>
-3.712

> <W(SA)>
1.732

> <Valence>
14.705

> <Coulomb>
-10.687

> <VdW>
0.490

> <VdW6>
-3.745

> <VdW12>
4.235

> <Bond>
0.068

> <Angle>
3.901

> <Pdih>
10.737

> <Idih>
0.000

> <Tether>
0.000

$$$$
VeraChem MOL file


 16 16  0  0  0  0  0  0  0  0999 V2000     
   18.7985   19.1783   21.1264 C   0  0  0  0  0  0  0  0  0  0  0  0
   19.2607   18.6482   20.2820 H   0  0  0  0  0  0  0  0  0  0  0  0
   18.0789   19.9044   20.7244 H   0  0  0  0  0  0  0  0  0  0  0  0
   19.8902   19.8437   21.9757 C   0  0  0  0  0  0  0  0  0  0  0  0
   20.6898   20.2798   21.3616 H   0  0  0  0  0  0  0  0  0  0  0  0
   19.4482   20.6451   22.5840 H   0  0  0  0  0  0  0  0  0  0  0  0
   20.4029   18.7171   22.8914 C   0  0  0  0  0  0  0  0  0  0  0  0
   20.7744   19.1133   23.8452 H   0  0  0  0  0  0  0  0  0  0  0  0
   21.2335   18.1961   22.3960 H   0  0  0  0  0  0  0  0  0  0  0  0
   19.2162   17.7531   23.1012 C   0  0  0  0  0  0  0  0  0  0  0  0
   18.8123   17.8691   24.1176 H   0  0  0  0  0  0  0  0  0  0  0  0
   18.1387   18.1607   22.0752 C   0  0  0  0  0  0  0  0  0  0  0  0
   17.7376   17.2979   21.5269 H   0  0  0  0  0  0  0  0  0  0  0  0
   17.3033   18.6378   22.6039 H   0  0  0  0  0  0  0  0  0  0  0  0
   19.6279   16.4106   22.8732 O   0  0  0  0  0  0  0  0  0  0  0  0
   20.3165   16.2102   23.5420 H   0  0  0  0  0  0  0  0  0  0  0  0
  1  2  1  0  0  0  0
  1  3  1  0  0  0  0
  1  4  1  0  0  0  0
  4  5  1  0  0  0  0
  4  6  1  0  0  0  0
  4  7  1  0  0  0  0
  7  8  1  0  0  0  0
  7  9  1  0  0  0  0
  7 10  1  0  0  0  0
 10 11  1  0  0  0  0
  1 12  1  0  0  0  0
 10 12  1  0  0  0  0
 12 13  1  0  0  0  0
 12 14  1  0  0  0  0
 10 15  1  0  0  0  0
 15 16  1  0  0  0  0
M  END
> <VConfSearch Rank>
655

> <Conf_Id>
59

> <Delta U+W>
0.000

> <U+W>
3.010

> <U>
5.843

> <W>
-2.833

> <W(PB)>
-4.568

> <W(SA)>
1.735

> <Valence>
13.789

> <Coulomb>
-8.574

> <VdW>
0.628

> <VdW6>
-3.284

> <VdW12>
3.912

> <Bond>
0.054

> <Angle>
4.034

> <Pdih>
9.702

> <Idih>
0.000

> <Tether>
0.000

$$$$
VeraChem MOL file


 16 16  0  0  0  0  0  0  0  0999 V2000     
   19.3507   19.8435   21.5614 C   0  0  0  0  0  0  0  0  0  0  0  0
   18.6114   20.6278   21.3495 H   0  0  0  0  0  0  0  0  0  0  0  0
   20.3245   20.1759   21.1754 H   0  0  0  0  0  0  0  0  0  0  0  0
   18.9745   18.4989   20.9240 C   0  0  0  0  0  0  0  0  0  0  0  0
   17.8910   18.3391   21.0136 H   0  0  0  0  0  0  0  0  0  0  0  0
   19.2428   18.4493   19.8599 H   0  0  0  0  0  0  0  0  0  0  0  0
   19.7219   17.4499   21.7679 C   0  0  0  0  0  0  0  0  0  0  0  0
   20.7150   17.2694   21.3363 H   0  0  0  0  0  0  0  0  0  0  0  0
   19.1871   16.4910   21.7875 H   0  0  0  0  0  0  0  0  0  0  0  0
   19.8884   18.0563   23.1766 C   0  0  0  0  0  0  0  0  0  0  0  0
   20.9437   17.9889   23.4788 H   0  0  0  0  0  0  0  0  0  0  0  0
   19.4641   19.5360   23.0658 C   0  0  0  0  0  0  0  0  0  0  0  0
   18.4862   19.6884   23.5424 H   0  0  0  0  0  0  0  0  0  0  0  0
   20.1861   20.2006   23.5576 H   0  0  0  0  0  0  0  0  0  0  0  0
   19.0541   17.3748   24.1058 O   0  0  0  0  0  0  0  0  0  0  0  0
   19.1910   17.8061   24.9757 H   0  0  0  0  0  0  0  0  0  0  0  0
  1  2  1  0  0  0  0
  1  3  1  0  0  0  0
  1  4  1  0  0  0  0
  4  5  1  0  0  0  0
  4  6  1  0  0  0  0
  4  7  1  0  0  0  0
  7  8  1  0  0  0  0
  7  9  1  0  0  0  0
  7 10  1  0  0  0  0
 10 11  1  0  0  0  0
  1 12  1  0  0  0  0
 10 12  1  0  0  0  0
 12 13  1  0  0  0  0
 12 14  1  0  0  0  0
 10 15  1  0  0  0  0
 15 16  1  0  0  0  0
M  END
> <VConfSearch Rank>
656

> <Conf_Id>
33

> <Delta U+W>
0.015

> <U+W>
3.025

> <U>
5.843

> <W>
-2.819

> <W(PB)>
-4.568

> <W(SA)>
1.750

> <Valence>
13.789

> <Coulomb>
-8.574

> <VdW>
0.628

> <VdW6>
-3.284

> <VdW12>
3.913

> <Bond>
0.054

> <Angle>
4.033

> <Pdih>
9.702

> <Idih>
0.000

> <Tether>
0.000

$$$$
VeraChem MOL file


 16 16  0  0  0  0  0  0  0  0999 V2000     
   20.1319   19.7040   22.4013 C   0  0  0  0  0  0  0  0  0  0  0  0
   19.8774   20.3171   23.2768 H   0  0  0  0  0  0  0  0  0  0  0  0
   20.9781   20.1853   21.8920 H   0  0  0  0  0  0  0  0  0  0  0  0
   18.9049   19.5810   21.4715 C   0  0  0  0  0  0  0  0  0  0  0  0
   18.0569   20.1355   21.8965 H   0  0  0  0  0  0  0  0  0  0  0  0
   19.1096   19.9971   20.4755 H   0  0  0  0  0  0  0  0  0  0  0  0
   18.5695   18.0768   21.3862 C   0  0  0  0  0  0  0  0  0  0  0  0
   19.0073   17.6546   20.4720 H   0  0  0  0  0  0  0  0  0  0  0  0
   17.4874   17.8928   21.3542 H   0  0  0  0  0  0  0  0  0  0  0  0
   19.2346   17.4232   22.6050 C   0  0  0  0  0  0  0  0  0  0  0  0
   19.4856   16.3701   22.4127 H   0  0  0  0  0  0  0  0  0  0  0  0
   20.4926   18.2694   22.8418 C   0  0  0  0  0  0  0  0  0  0  0  0
   20.8318   18.2274   23.8855 H   0  0  0  0  0  0  0  0  0  0  0  0
   21.3048   17.8851   22.2108 H   0  0  0  0  0  0  0  0  0  0  0  0
   18.3729   17.5418   23.7276 O   0  0  0  0  0  0  0  0  0  0  0  0
   18.2063   18.5024   23.8206 H   0  0  0  0  0  0  0  0  0  0  0  0
  1  2  1  0  0  0  0
  1  3  1  0  0  0  0
  1  4  1  0  0  0  0
  4  5  1  0  0  0  0
  4  6  1  0  0  0  0
  4  7  1  0  0  0  0
  7  8  1  0  0  0  0
  7  9  1  0  0  0  0
  7 10  1  0  0  0  0
 10 11  1  0  0  0  0
  1 12  1  0  0  0  0
 10 12  1  0  0  0  0
 12 13  1  0  0  0  0
 12 14  1  0  0  0  0
 10 15  1  0  0  0  0
 15 16  1  0  0  0  0
M  END
> <VConfSearch Rank>
657

> <Conf_Id>
20

> <Delta U+W>
-0.483

> <U+W>
2.527

> <U>
4.508

> <W>
-1.981

> <W(PB)>
-3.712

> <W(SA)>
1.732

> <Valence>
14.705

> <Coulomb>
-10.687

> <VdW>
0.490

> <VdW6>
-3.745

> <VdW12>
4.235

> <Bond>
0.068

> <Angle>
3.901

> <Pdih>
10.737

> <Idih>
0.000

> <Tether>
0.000

$$$$
VeraChem MOL file


 16 16  0  0  0  0  0  0  0  0999 V2000     
   20.3863   18.2908   23.3077 C   0  0  0  0  0  0  0  0  0  0  0  0
   20.7462   17.2771   23.0826 H   0  0  0  0  0  0  0  0  0  0  0  0
   20.9841   18.6919   24.1374 H   0  0  0  0  0  0  0  0  0  0  0  0
   18.8874   18.2438   23.6343 C   0  0  0  0  0  0  0  0  0  0  0  0
   18.6185   17.3662   24.2379 H   0  0  0  0  0  0  0  0  0  0  0  0
   18.6024   19.1459   24.1935 H   0  0  0  0  0  0  0  0  0  0  0  0
   18.1955   18.2432   22.2589 C   0  0  0  0  0  0  0  0  0  0  0  0
   17.2046   18.7129   22.3082 H   0  0  0  0  0  0  0  0  0  0  0  0
   18.0612   17.2069   21.9202 H   0  0  0  0  0  0  0  0  0  0  0  0
   19.1357   19.0020   21.2987 C   0  0  0  0  0  0  0  0  0  0  0  0
   18.7226   19.9964   21.0751 H   0  0  0  0  0  0  0  0  0  0  0  0
   20.4778   19.1633   22.0421 C   0  0  0  0  0  0  0  0  0  0  0  0
   21.3364   18.8816   21.4181 H   0  0  0  0  0  0  0  0  0  0  0  0
   20.6043   20.2155   22.3283 H   0  0  0  0  0  0  0  0  0  0  0  0
   19.3238   18.2544   20.1031 O   0  0  0  0  0  0  0  0  0  0  0  0
   18.4428   18.1738   19.6803 H   0  0  0  0  0  0  0  0  0  0  0  0
  1  2  1  0  0  0  0
  1  3  1  0  0  0  0
  1  4  1  0  0  0  0
  4  5  1  0  0  0  0
  4  6  1  0  0  0  0
  4  7  1  0  0  0  0
  7  8  1  0  0  0  0
  7  9  1  0  0  0  0
  7 10  1  0  0  0  0
 10 11  1  0  0  0  0
  1 12  1  0  0  0  0
 10 12  1  0  0  0  0
 12 13  1  0  0  0  0
 12 14  1  0  0  0  0
 10 15  1  0  0  0  0
 15 16  1  0  0  0  0
M  END
> <VConfSearch Rank>
658

> <Conf_Id>
59

> <Delta U+W>
0.000

> <U+W>
3.010

> <U>
5.843

> <W>
-2.833

> <W(PB)>
-4.568

> <W(SA)>
1.735

> <Valence>
13.789

> <Coulomb>
-8.574

> <VdW>
0.628

> <VdW6>
-3.284

> <VdW12>
3.912

> <Bond>
0.054

> <Angle>
4.034

> <Pdih>
9.702

> <Idih>
0.000

> <Tether>
0.000

$$$$
VeraChem MOL file


 16 16  0  0  0  0  0  0  0  0999 V2000     
   18.5264   19.7088   22.2551 C   0  0  0  0  0  0  0  0  0  0  0  0
   18.5136   20.7939   22.4257 H   0  0  0  0  0  0  0  0  0  0  0  0
   17.5570   19.4166   21.8279 H   0  0  0  0  0  0  0  0  0  0  0  0
   18.7814   18.9178   23.5455 C   0  0  0  0  0  0  0  0  0  0  0  0
   19.5364   19.4368   24.1524 H   0  0  0  0  0  0  0  0  0  0  0  0
   17.8732   18.8008   24.1523 H   0  0  0  0  0  0  0  0  0  0  0  0
   19.3451   17.5679   23.0649 C   0  0  0  0  0  0  0  0  0  0  0  0
   18.5211   16.8602   22.9057 H   0  0  0  0  0  0  0  0  0  0  0  0
   20.0254   17.1270   23.8057 H   0  0  0  0  0  0  0  0  0  0  0  0
   20.0436   17.8381   21.7162 C   0  0  0  0  0  0  0  0  0  0  0  0
   19.6728   17.1249   20.9657 H   0  0  0  0  0  0  0  0  0  0  0  0
   19.6632   19.2776   21.3104 C   0  0  0  0  0  0  0  0  0  0  0  0
   20.5214   19.9502   21.4440 H   0  0  0  0  0  0  0  0  0  0  0  0
   19.3530   19.3317   20.2589 H   0  0  0  0  0  0  0  0  0  0  0  0
   21.4542   17.7261   21.8633 O   0  0  0  0  0  0  0  0  0  0  0  0
   21.8447   17.9175   20.9845 H   0  0  0  0  0  0  0  0  0  0  0  0
  1  2  1  0  0  0  0
  1  3  1  0  0  0  0
  1  4  1  0  0  0  0
  4  5  1  0  0  0  0
  4  6  1  0  0  0  0
  4  7  1  0  0  0  0
  7  8  1  0  0  0  0
  7  9  1  0  0  0  0
  7 10  1  0  0  0  0
 10 11  1  0  0  0  0
  1 12  1  0  0  0  0
 10 12  1  0  0  0  0
 12 13  1  0  0  0  0
 12 14  1  0  0  0  0
 10 15  1  0  0  0  0
 15 16  1  0  0  0  0
M  END
> <VConfSearch Rank>
659

> <Conf_Id>
33

> <Delta U+W>
0.015

> <U+W>
3.025

> <U>
5.843

> <W>
-2.819

> <W(PB)>
-4.568

> <W(SA)>
1.750

> <Valence>
13.789

> <Coulomb>
-8.574

> <VdW>
0.628

> <VdW6>
-3.284

> <VdW12>
3.913

> <Bond>
0.054

> <Angle>
4.033

> <Pdih>
9.702

> <Idih>
0.000

> <Tether>
0.000

$$$$
VeraChem MOL file


 16 16  0  0  0  0  0  0  0  0999 V2000     
   18.1092   18.2293   22.0866 C   0  0  0  0  0  0  0  0  0  0  0  0
   17.4487   18.4630   22.9329 H   0  0  0  0  0  0  0  0  0  0  0  0
   17.4991   17.7463   21.3111 H   0  0  0  0  0  0  0  0  0  0  0  0
   19.2603   17.3131   22.5561 C   0  0  0  0  0  0  0  0  0  0  0  0
   19.1563   17.1025   23.6294 H   0  0  0  0  0  0  0  0  0  0  0  0
   19.2530   16.3512   22.0254 H   0  0  0  0  0  0  0  0  0  0  0  0
   20.5704   18.0843   22.2886 C   0  0  0  0  0  0  0  0  0  0  0  0
   21.0068   17.7478   21.3389 H   0  0  0  0  0  0  0  0  0  0  0  0
   21.3179   17.9208   23.0763 H   0  0  0  0  0  0  0  0  0  0  0  0
   20.1754   19.5615   22.1597 C   0  0  0  0  0  0  0  0  0  0  0  0
   20.8768   20.1134   21.5175 H   0  0  0  0  0  0  0  0  0  0  0  0
   18.7669   19.5192   21.5519 C   0  0  0  0  0  0  0  0  0  0  0  0
   18.1819   20.4163   21.7947 H   0  0  0  0  0  0  0  0  0  0  0  0
   18.8520   19.4617   20.4587 H   0  0  0  0  0  0  0  0  0  0  0  0
   20.1090   20.1425   23.4539 O   0  0  0  0  0  0  0  0  0  0  0  0
   19.4682   19.5909   23.9482 H   0  0  0  0  0  0  0  0  0  0  0  0
  1  2  1  0  0  0  0
  1  3  1  0  0  0  0
  1  4  1  0  0  0  0
  4  5  1  0  0  0  0
  4  6  1  0  0  0  0
  4  7  1  0  0  0  0
  7  8  1  0  0  0  0
  7  9  1  0  0  0  0
  7 10  1  0  0  0  0
 10 11  1  0  0  0  0
  1 12  1  0  0  0  0
 10 12  1  0  0  0  0
 12 13  1  0  0  0  0
 12 14  1  0  0  0  0
 10 15  1  0  0  0  0
 15 16  1  0  0  0  0
M  END
> <VConfSearch Rank>
660

> <Conf_Id>
20

> <Delta U+W>
-0.483

> <U+W>
2.527

> <U>
4.508

> <W>
-1.981

> <W(PB)>
-3.712

> <W(SA)>
1.732

> <Valence>
14.705

> <Coulomb>
-10.687

> <VdW>
0.490

> <VdW6>
-3.745

> <VdW12>
4.235

> <Bond>
0.068

> <Angle>
3.901

> <Pdih>
10.737

> <Idih>
0.000

> <Tether>
0.000

$$$$
VeraChem MOL file


 16 16  0  0  0  0  0  0  0  0999 V2000     
   20.1295   18.6115   23.5451 C   0  0  0  0  0  0  0  0  0  0  0  0
   19.9157   17.6639   24.0590 H   0  0  0  0  0  0  0  0  0  0  0  0
   20.8668   19.1671   24.1404 H   0  0  0  0  0  0  0  0  0  0  0  0
   18.8248   19.3953   23.3478 C   0  0  0  0  0  0  0  0  0  0  0  0
   18.1589   19.3245   24.2187 H   0  0  0  0  0  0  0  0  0  0  0  0
   19.0534   20.4563   23.1755 H   0  0  0  0  0  0  0  0  0  0  0  0
   18.1989   18.7848   22.0805 C   0  0  0  0  0  0  0  0  0  0  0  0
   17.5885   19.5200   21.5404 H   0  0  0  0  0  0  0  0  0  0  0  0
   17.5464   17.9479   22.3646 H   0  0  0  0  0  0  0  0  0  0  0  0
   19.3730   18.2780   21.2166 C   0  0  0  0  0  0  0  0  0  0  0  0
   19.5210   18.9445   20.3544 H   0  0  0  0  0  0  0  0  0  0  0  0
   20.6254   18.3227   22.1162 C   0  0  0  0  0  0  0  0  0  0  0  0
   21.2053   17.3912   22.0700 H   0  0  0  0  0  0  0  0  0  0  0  0
   21.2781   19.1390   21.7807 H   0  0  0  0  0  0  0  0  0  0  0  0
   19.1258   16.9449   20.7857 O   0  0  0  0  0  0  0  0  0  0  0  0
   18.3180   16.9740   20.2306 H   0  0  0  0  0  0  0  0  0  0  0  0
  1  2  1  0  0  0  0
  1  3  1  0  0  0  0
  1  4  1  0  0  0  0
  4  5  1  0  0  0  0
  4  6  1  0  0  0  0
  4  7  1  0  0  0  0
  7  8  1  0  0  0  0
  7  9  1  0  0  0  0
  7 10  1  0  0  0  0
 10 11  1  0  0  0  0
  1 12  1  0  0  0  0
 10 12  1  0  0  0  0
 12 13  1  0  0  0  0
 12 14  1  0  0  0  0
 10 15  1  0  0  0  0
 15 16  1  0  0  0  0
M  END
> <VConfSearch Rank>
661

> <Conf_Id>
59

> <Delta U+W>
0.000

> <U+W>
3.010

> <U>
5.843

> <W>
-2.833

> <W(PB)>
-4.568

> <W(SA)>
1.735

> <Valence>
13.789

> <Coulomb>
-8.574

> <VdW>
0.628

> <VdW6>
-3.284

> <VdW12>
3.912

> <Bond>
0.054

> <Angle>
4.034

> <Pdih>
9.702

> <Idih>
0.000

> <Tether>
0.000

$$$$
VeraChem MOL file


 16 16  0  0  0  0  0  0  0  0999 V2000     
   18.5392   18.2740   21.2375 C   0  0  0  0  0  0  0  0  0  0  0  0
   17.5851   18.6217   20.8184 H   0  0  0  0  0  0  0  0  0  0  0  0
   18.9484   17.5045   20.5681 H   0  0  0  0  0  0  0  0  0  0  0  0
   18.3806   17.6974   22.6510 C   0  0  0  0  0  0  0  0  0  0  0  0
   17.6647   18.3074   23.2194 H   0  0  0  0  0  0  0  0  0  0  0  0
   18.0187   16.6603   22.6429 H   0  0  0  0  0  0  0  0  0  0  0  0
   19.7807   17.8264   23.2790 C   0  0  0  0  0  0  0  0  0  0  0  0
   20.3610   16.9172   23.0752 H   0  0  0  0  0  0  0  0  0  0  0  0
   19.7252   17.9498   24.3688 H   0  0  0  0  0  0  0  0  0  0  0  0
   20.4639   19.0246   22.5881 C   0  0  0  0  0  0  0  0  0  0  0  0
   21.4533   18.7161   22.2202 H   0  0  0  0  0  0  0  0  0  0  0  0
   19.5579   19.4167   21.4018 C   0  0  0  0  0  0  0  0  0  0  0  0
   19.0237   20.3507   21.6233 H   0  0  0  0  0  0  0  0  0  0  0  0
   20.1395   19.5706   20.4837 H   0  0  0  0  0  0  0  0  0  0  0  0
   20.5815   20.1130   23.4966 O   0  0  0  0  0  0  0  0  0  0  0  0
   21.0091   20.8454   23.0043 H   0  0  0  0  0  0  0  0  0  0  0  0
  1  2  1  0  0  0  0
  1  3  1  0  0  0  0
  1  4  1  0  0  0  0
  4  5  1  0  0  0  0
  4  6  1  0  0  0  0
  4  7  1  0  0  0  0
  7  8  1  0  0  0  0
  7  9  1  0  0  0  0
  7 10  1  0  0  0  0
 10 11  1  0  0  0  0
  1 12  1  0  0  0  0
 10 12  1  0  0  0  0
 12 13  1  0  0  0  0
 12 14  1  0  0  0  0
 10 15  1  0  0  0  0
 15 16  1  0  0  0  0
M  END
> <VConfSearch Rank>
662

> <Conf_Id>
33

> <Delta U+W>
0.015

> <U+W>
3.025

> <U>
5.843

> <W>
-2.819

> <W(PB)>
-4.568

> <W(SA)>
1.750

> <Valence>
13.789

> <Coulomb>
-8.574

> <VdW>
0.628

> <VdW6>
-3.284

> <VdW12>
3.913

> <Bond>
0.054

> <Angle>
4.033

> <Pdih>
9.702

> <Idih>
0.000

> <Tether>
0.000

$$$$
VeraChem MOL file


 16 16  0  0  0  0  0  0  0  0999 V2000     
   18.9291   17.5911   21.5201 C   0  0  0  0  0  0  0  0  0  0  0  0
   18.3963   17.8937   20.6081 H   0  0  0  0  0  0  0  0  0  0  0  0
   18.9492   16.4930   21.5456 H   0  0  0  0  0  0  0  0  0  0  0  0
   18.2195   18.1751   22.7612 C   0  0  0  0  0  0  0  0  0  0  0  0
   17.3425   18.7593   22.4499 H   0  0  0  0  0  0  0  0  0  0  0  0
   17.8692   17.3824   23.4365 H   0  0  0  0  0  0  0  0  0  0  0  0
   19.2467   19.0883   23.4635 C   0  0  0  0  0  0  0  0  0  0  0  0
   19.7222   18.5399   24.2873 H   0  0  0  0  0  0  0  0  0  0  0  0
   18.7823   19.9893   23.8860 H   0  0  0  0  0  0  0  0  0  0  0  0
   20.3097   19.4226   22.4083 C   0  0  0  0  0  0  0  0  0  0  0  0
   21.2861   19.6301   22.8693 H   0  0  0  0  0  0  0  0  0  0  0  0
   20.3590   18.1725   21.5197 C   0  0  0  0  0  0  0  0  0  0  0  0
   20.7169   18.3966   20.5059 H   0  0  0  0  0  0  0  0  0  0  0  0
   21.0507   17.4454   21.9652 H   0  0  0  0  0  0  0  0  0  0  0  0
   19.8691   20.5292   21.6349 O   0  0  0  0  0  0  0  0  0  0  0  0
   19.0032   20.2553   21.2684 H   0  0  0  0  0  0  0  0  0  0  0  0
  1  2  1  0  0  0  0
  1  3  1  0  0  0  0
  1  4  1  0  0  0  0
  4  5  1  0  0  0  0
  4  6  1  0  0  0  0
  4  7  1  0  0  0  0
  7  8  1  0  0  0  0
  7  9  1  0  0  0  0
  7 10  1  0  0  0  0
 10 11  1  0  0  0  0
  1 12  1  0  0  0  0
 10 12  1  0  0  0  0
 12 13  1  0  0  0  0
 12 14  1  0  0  0  0
 10 15  1  0  0  0  0
 15 16  1  0  0  0  0
M  END
> <VConfSearch Rank>
663

> <Conf_Id>
20

> <Delta U+W>
-0.483

> <U+W>
2.527

> <U>
4.508

> <W>
-1.981

> <W(PB)>
-3.712

> <W(SA)>
1.732

> <Valence>
14.705

> <Coulomb>
-10.687

> <VdW>
0.490

> <VdW6>
-3.745

> <VdW12>
4.235

> <Bond>
0.068

> <Angle>
3.901

> <Pdih>
10.737

> <Idih>
0.000

> <Tether>
0.000

$$$$
VeraChem MOL file


 16 16  0  0  0  0  0  0  0  0999 V2000     
   19.9479   19.8682   22.5113 C   0  0  0  0  0  0  0  0  0  0  0  0
   20.1982   20.2219   21.5014 H   0  0  0  0  0  0  0  0  0  0  0  0
   20.1922   20.6661   23.2257 H   0  0  0  0  0  0  0  0  0  0  0  0
   20.7076   18.5670   22.8035 C   0  0  0  0  0  0  0  0  0  0  0  0
   21.7346   18.5861   22.4142 H   0  0  0  0  0  0  0  0  0  0  0  0
   20.7545   18.4021   23.8890 H   0  0  0  0  0  0  0  0  0  0  0  0
   19.8523   17.4683   22.1463 C   0  0  0  0  0  0  0  0  0  0  0  0
   19.9566   16.5104   22.6721 H   0  0  0  0  0  0  0  0  0  0  0  0
   20.1836   17.3217   21.1092 H   0  0  0  0  0  0  0  0  0  0  0  0
   18.3951   17.9757   22.1755 C   0  0  0  0  0  0  0  0  0  0  0  0
   17.8209   17.4276   22.9367 H   0  0  0  0  0  0  0  0  0  0  0  0
   18.4621   19.4672   22.5637 C   0  0  0  0  0  0  0  0  0  0  0  0
   17.8498   20.0973   21.9049 H   0  0  0  0  0  0  0  0  0  0  0  0
   18.0838   19.5880   23.5871 H   0  0  0  0  0  0  0  0  0  0  0  0
   17.7984   17.8290   20.8924 O   0  0  0  0  0  0  0  0  0  0  0  0
   17.7919   16.8689   20.6933 H   0  0  0  0  0  0  0  0  0  0  0  0
  1  2  1  0  0  0  0
  1  3  1  0  0  0  0
  1  4  1  0  0  0  0
  4  5  1  0  0  0  0
  4  6  1  0  0  0  0
  4  7  1  0  0  0  0
  7  8  1  0  0  0  0
  7  9  1  0  0  0  0
  7 10  1  0  0  0  0
 10 11  1  0  0  0  0
  1 12  1  0  0  0  0
 10 12  1  0  0  0  0
 12 13  1  0  0  0  0
 12 14  1  0  0  0  0
 10 15  1  0  0  0  0
 15 16  1  0  0  0  0
M  END
> <VConfSearch Rank>
664

> <Conf_Id>
59

> <Delta U+W>
0.000

> <U+W>
3.010

> <U>
5.843

> <W>
-2.833

> <W(PB)>
-4.568

> <W(SA)>
1.735

> <Valence>
13.789

> <Coulomb>
-8.574

> <VdW>
0.628

> <VdW6>
-3.284

> <VdW12>
3.912

> <Bond>
0.054

> <Angle>
4.034

> <Pdih>
9.702

> <Idih>
0.000

> <Tether>
0.000

$$$$
VeraChem MOL file


 16 16  0  0  0  0  0  0  0  0999 V2000     
   18.4696   17.5892   22.0717 C   0  0  0  0  0  0  0  0  0  0  0  0
   18.1676   16.6201   22.4917 H   0  0  0  0  0  0  0  0  0  0  0  0
   17.7150   17.8937   21.3331 H   0  0  0  0  0  0  0  0  0  0  0  0
   19.8509   17.5319   21.4051 C   0  0  0  0  0  0  0  0  0  0  0  0
   20.5241   16.9048   22.0061 H   0  0  0  0  0  0  0  0  0  0  0  0
   19.8094   17.1168   20.3890 H   0  0  0  0  0  0  0  0  0  0  0  0
   20.3488   18.9889   21.4248 C   0  0  0  0  0  0  0  0  0  0  0  0
   20.0312   19.4993   20.5063 H   0  0  0  0  0  0  0  0  0  0  0  0
   21.4447   19.0410   21.4737 H   0  0  0  0  0  0  0  0  0  0  0  0
   19.6758   19.6674   22.6358 C   0  0  0  0  0  0  0  0  0  0  0  0
   19.1953   20.6009   22.3085 H   0  0  0  0  0  0  0  0  0  0  0  0
   18.6101   18.6775   23.1518 C   0  0  0  0  0  0  0  0  0  0  0  0
   18.9426   18.2159   24.0915 H   0  0  0  0  0  0  0  0  0  0  0  0
   17.6526   19.1790   23.3428 H   0  0  0  0  0  0  0  0  0  0  0  0
   20.6384   19.9256   23.6510 O   0  0  0  0  0  0  0  0  0  0  0  0
   20.1565   20.3439   24.3956 H   0  0  0  0  0  0  0  0  0  0  0  0
  1  2  1  0  0  0  0
  1  3  1  0  0  0  0
  1  4  1  0  0  0  0
  4  5  1  0  0  0  0
  4  6  1  0  0  0  0
  4  7  1  0  0  0  0
  7  8  1  0  0  0  0
  7  9  1  0  0  0  0
  7 10  1  0  0  0  0
 10 11  1  0  0  0  0
  1 12  1  0  0  0  0
 10 12  1  0  0  0  0
 12 13  1  0  0  0  0
 12 14  1  0  0  0  0
 10 15  1  0  0  0  0
 15 16  1  0  0  0  0
M  END
> <VConfSearch Rank>
665

> <Conf_Id>
33

> <Delta U+W>
0.015

> <U+W>
3.025

> <U>
5.843

> <W>
-2.819

> <W(PB)>
-4.568

> <W(SA)>
1.750

> <Valence>
13.789

> <Coulomb>
-8.574

> <VdW>
0.628

> <VdW6>
-3.284

> <VdW12>
3.913

> <Bond>
0.054

> <Angle>
4.033

> <Pdih>
9.702

> <Idih>
0.000

> <Tether>
0.000

$$$$
VeraChem MOL file


 16 16  0  0  0  0  0  0  0  0999 V2000     
   18.8655   19.8229   22.4852 C   0  0  0  0  0  0  0  0  0  0  0  0
   17.8485   19.8132   22.9010 H   0  0  0  0  0  0  0  0  0  0  0  0
   19.1775   20.8722   22.3918 H   0  0  0  0  0  0  0  0  0  0  0  0
   18.8815   19.1021   21.1195 C   0  0  0  0  0  0  0  0  0  0  0  0
   17.8720   18.7445   20.8738 H   0  0  0  0  0  0  0  0  0  0  0  0
   19.2028   19.7740   20.3118 H   0  0  0  0  0  0  0  0  0  0  0  0
   19.8490   17.9084   21.2659 C   0  0  0  0  0  0  0  0  0  0  0  0
   20.8338   18.1831   20.8653 H   0  0  0  0  0  0  0  0  0  0  0  0
   19.5016   17.0215   20.7194 H   0  0  0  0  0  0  0  0  0  0  0  0
   19.9788   17.6487   22.7728 C   0  0  0  0  0  0  0  0  0  0  0  0
   20.9488   17.1954   23.0231 H   0  0  0  0  0  0  0  0  0  0  0  0
   19.8250   19.0384   23.4052 C   0  0  0  0  0  0  0  0  0  0  0  0
   19.4603   18.9866   24.4397 H   0  0  0  0  0  0  0  0  0  0  0  0
   20.8049   19.5335   23.4208 H   0  0  0  0  0  0  0  0  0  0  0  0
   18.9072   16.8199   23.1985 O   0  0  0  0  0  0  0  0  0  0  0  0
   18.0945   17.2993   22.9362 H   0  0  0  0  0  0  0  0  0  0  0  0
  1  2  1  0  0  0  0
  1  3  1  0  0  0  0
  1  4  1  0  0  0  0
  4  5  1  0  0  0  0
  4  6  1  0  0  0  0
  4  7  1  0  0  0  0
  7  8  1  0  0  0  0
  7  9  1  0  0  0  0
  7 10  1  0  0  0  0
 10 11  1  0  0  0  0
  1 12  1  0  0  0  0
 10 12  1  0  0  0  0
 12 13  1  0  0  0  0
 12 14  1  0  0  0  0
 10 15  1  0  0  0  0
 15 16  1  0  0  0  0
M  END
> <VConfSearch Rank>
666

> <Conf_Id>
20

> <Delta U+W>
-0.483

> <U+W>
2.527

> <U>
4.508

> <W>
-1.981

> <W(PB)>
-3.712

> <W(SA)>
1.732

> <Valence>
14.705

> <Coulomb>
-10.687

> <VdW>
0.490

> <VdW6>
-3.745

> <VdW12>
4.235

> <Bond>
0.068

> <Angle>
3.901

> <Pdih>
10.737

> <Idih>
0.000

> <Tether>
0.000

$$$$
VeraChem MOL file


 16 16  0  0  0  0  0  0  0  0999 V2000     
   18.0840   19.2519   22.2546 C   0  0  0  0  0  0  0  0  0  0  0  0
   17.7044   19.2390   23.2859 H   0  0  0  0  0  0  0  0  0  0  0  0
   17.3806   19.8257   21.6362 H   0  0  0  0  0  0  0  0  0  0  0  0
   18.2640   17.8119   21.7549 C   0  0  0  0  0  0  0  0  0  0  0  0
   17.4514   17.1503   22.0846 H   0  0  0  0  0  0  0  0  0  0  0  0
   18.2905   17.8024   20.6563 H   0  0  0  0  0  0  0  0  0  0  0  0
   19.6329   17.3811   22.3127 C   0  0  0  0  0  0  0  0  0  0  0  0
   20.1155   16.6396   21.6629 H   0  0  0  0  0  0  0  0  0  0  0  0
   19.4946   16.9237   23.3018 H   0  0  0  0  0  0  0  0  0  0  0  0
   20.4782   18.6668   22.4315 C   0  0  0  0  0  0  0  0  0  0  0  0
   21.2413   18.6901   21.6399 H   0  0  0  0  0  0  0  0  0  0  0  0
   19.5041   19.8468   22.2353 C   0  0  0  0  0  0  0  0  0  0  0  0
   19.6282   20.6219   23.0033 H   0  0  0  0  0  0  0  0  0  0  0  0
   19.6960   20.3108   21.2590 H   0  0  0  0  0  0  0  0  0  0  0  0
   21.0838   18.7391   23.7168 O   0  0  0  0  0  0  0  0  0  0  0  0
   21.6801   17.9642   23.7908 H   0  0  0  0  0  0  0  0  0  0  0  0
  1  2  1  0  0  0  0
  1  3  1  0  0  0  0
  1  4  1  0  0  0  0
  4  5  1  0  0  0  0
  4  6  1  0  0  0  0
  4  7  1  0  0  0  0
  7  8  1  0  0  0  0
  7  9  1  0  0  0  0
  7 10  1  0  0  0  0
 10 11  1  0  0  0  0
  1 12  1  0  0  0  0
 10 12  1  0  0  0  0
 12 13  1  0  0  0  0
 12 14  1  0  0  0  0
 10 15  1  0  0  0  0
 15 16  1  0  0  0  0
M  END
> <VConfSearch Rank>
667

> <Conf_Id>
59

> <Delta U+W>
0.000

> <U+W>
3.010

> <U>
5.843

> <W>
-2.833

> <W(PB)>
-4.568

> <W(SA)>
1.735

> <Valence>
13.789

> <Coulomb>
-8.574

> <VdW>
0.628

> <VdW6>
-3.284

> <VdW12>
3.912

> <Bond>
0.054

> <Angle>
4.034

> <Pdih>
9.702

> <Idih>
0.000

> <Tether>
0.000

$$$$
VeraChem MOL file


 16 16  0  0  0  0  0  0  0  0999 V2000     
   18.7215   17.3845   22.1526 C   0  0  0  0  0  0  0  0  0  0  0  0
   18.4778   16.6440   21.3787 H   0  0  0  0  0  0  0  0  0  0  0  0
   18.3834   16.9925   23.1219 H   0  0  0  0  0  0  0  0  0  0  0  0
   18.0621   18.7449   21.8875 C   0  0  0  0  0  0  0  0  0  0  0  0
   18.0998   18.9691   20.8123 H   0  0  0  0  0  0  0  0  0  0  0  0
   17.0118   18.7716   22.2080 H   0  0  0  0  0  0  0  0  0  0  0  0
   18.9367   19.7531   22.6553 C   0  0  0  0  0  0  0  0  0  0  0  0
   18.5520   19.8717   23.6766 H   0  0  0  0  0  0  0  0  0  0  0  0
   18.9274   20.7422   22.1782 H   0  0  0  0  0  0  0  0  0  0  0  0
   20.3539   19.1470   22.7189 C   0  0  0  0  0  0  0  0  0  0  0  0
   20.7055   19.1537   23.7610 H   0  0  0  0  0  0  0  0  0  0  0  0
   20.2285   17.6944   22.2131 C   0  0  0  0  0  0  0  0  0  0  0  0
   20.6588   17.6033   21.2065 H   0  0  0  0  0  0  0  0  0  0  0  0
   20.7564   16.9914   22.8703 H   0  0  0  0  0  0  0  0  0  0  0  0
   21.2400   19.8828   21.8838 O   0  0  0  0  0  0  0  0  0  0  0  0
   22.1170   19.4497   21.9537 H   0  0  0  0  0  0  0  0  0  0  0  0
  1  2  1  0  0  0  0
  1  3  1  0  0  0  0
  1  4  1  0  0  0  0
  4  5  1  0  0  0  0
  4  6  1  0  0  0  0
  4  7  1  0  0  0  0
  7  8  1  0  0  0  0
  7  9  1  0  0  0  0
  7 10  1  0  0  0  0
 10 11  1  0  0  0  0
  1 12  1  0  0  0  0
 10 12  1  0  0  0  0
 12 13  1  0  0  0  0
 12 14  1  0  0  0  0
 10 15  1  0  0  0  0
 15 16  1  0  0  0  0
M  END
> <VConfSearch Rank>
668

> <Conf_Id>
33

> <Delta U+W>
0.015

> <U+W>
3.025

> <U>
5.843

> <W>
-2.819

> <W(PB)>
-4.568

> <W(SA)>
1.750

> <Valence>
13.789

> <Coulomb>
-8.574

> <VdW>
0.628

> <VdW6>
-3.284

> <VdW12>
3.913

> <Bond>
0.054

> <Angle>
4.033

> <Pdih>
9.702

> <Idih>
0.000

> <Tether>
0.000

$$$$
VeraChem MOL file


 16 16  0  0  0  0  0  0  0  0999 V2000     
   20.1836   19.2708   21.4214 C   0  0  0  0  0  0  0  0  0  0  0  0
   21.0593   18.6964   21.0890 H   0  0  0  0  0  0  0  0  0  0  0  0
   20.2243   20.2536   20.9322 H   0  0  0  0  0  0  0  0  0  0  0  0
   20.1945   19.4015   22.9602 C   0  0  0  0  0  0  0  0  0  0  0  0
   21.0760   18.8914   23.3724 H   0  0  0  0  0  0  0  0  0  0  0  0
   20.2398   20.4528   23.2759 H   0  0  0  0  0  0  0  0  0  0  0  0
   18.9023   18.7256   23.4660 C   0  0  0  0  0  0  0  0  0  0  0  0
   18.1339   19.4896   23.6436 H   0  0  0  0  0  0  0  0  0  0  0  0
   19.0577   18.1828   24.4079 H   0  0  0  0  0  0  0  0  0  0  0  0
   18.4342   17.8020   22.3333 C   0  0  0  0  0  0  0  0  0  0  0  0
   17.3444   17.6572   22.3535 H   0  0  0  0  0  0  0  0  0  0  0  0
   18.8846   18.5218   21.0551 C   0  0  0  0  0  0  0  0  0  0  0  0
   19.0265   17.8286   20.2153 H   0  0  0  0  0  0  0  0  0  0  0  0
   18.1131   19.2466   20.7633 H   0  0  0  0  0  0  0  0  0  0  0  0
   19.1125   16.5583   22.4335 O   0  0  0  0  0  0  0  0  0  0  0  0
   20.0650   16.7847   22.4073 H   0  0  0  0  0  0  0  0  0  0  0  0
  1  2  1  0  0  0  0
  1  3  1  0  0  0  0
  1  4  1  0  0  0  0
  4  5  1  0  0  0  0
  4  6  1  0  0  0  0
  4  7  1  0  0  0  0
  7  8  1  0  0  0  0
  7  9  1  0  0  0  0
  7 10  1  0  0  0  0
 10 11  1  0  0  0  0
  1 12  1  0  0  0  0
 10 12  1  0  0  0  0
 12 13  1  0  0  0  0
 12 14  1  0  0  0  0
 10 15  1  0  0  0  0
 15 16  1  0  0  0  0
M  END
> <VConfSearch Rank>
669

> <Conf_Id>
20

> <Delta U+W>
-0.483

> <U+W>
2.527

> <U>
4.508

> <W>
-1.981

> <W(PB)>
-3.712

> <W(SA)>
1.732

> <Valence>
14.705

> <Coulomb>
-10.687

> <VdW>
0.490

> <VdW6>
-3.745

> <VdW12>
4.235

> <Bond>
0.068

> <Angle>
3.901

> <Pdih>
10.737

> <Idih>
0.000

> <Tether>
0.000

$$$$
VeraChem MOL file


 16 16  0  0  0  0  0  0  0  0999 V2000     
   19.2098   17.5126   21.3107 C   0  0  0  0  0  0  0  0  0  0  0  0
   18.7737   16.6594   21.8489 H   0  0  0  0  0  0  0  0  0  0  0  0
   19.2949   17.2428   20.2493 H   0  0  0  0  0  0  0  0  0  0  0  0
   20.5646   17.8757   21.9338 C   0  0  0  0  0  0  0  0  0  0  0  0
   21.1457   16.9876   22.2173 H   0  0  0  0  0  0  0  0  0  0  0  0
   21.1573   18.4592   21.2155 H   0  0  0  0  0  0  0  0  0  0  0  0
   20.2055   18.7529   23.1471 C   0  0  0  0  0  0  0  0  0  0  0  0
   21.0015   19.4752   23.3694 H   0  0  0  0  0  0  0  0  0  0  0  0
   20.0732   18.1139   24.0308 H   0  0  0  0  0  0  0  0  0  0  0  0
   18.8798   19.4601   22.7953 C   0  0  0  0  0  0  0  0  0  0  0  0
   19.0666   20.5208   22.5724 H   0  0  0  0  0  0  0  0  0  0  0  0
   18.3370   18.7619   21.5313 C   0  0  0  0  0  0  0  0  0  0  0  0
   17.2741   18.5014   21.6229 H   0  0  0  0  0  0  0  0  0  0  0  0
   18.4416   19.4404   20.6747 H   0  0  0  0  0  0  0  0  0  0  0  0
   17.9527   19.3263   23.8661 O   0  0  0  0  0  0  0  0  0  0  0  0
   18.3515   19.7756   24.6411 H   0  0  0  0  0  0  0  0  0  0  0  0
  1  2  1  0  0  0  0
  1  3  1  0  0  0  0
  1  4  1  0  0  0  0
  4  5  1  0  0  0  0
  4  6  1  0  0  0  0
  4  7  1  0  0  0  0
  7  8  1  0  0  0  0
  7  9  1  0  0  0  0
  7 10  1  0  0  0  0
 10 11  1  0  0  0  0
  1 12  1  0  0  0  0
 10 12  1  0  0  0  0
 12 13  1  0  0  0  0
 12 14  1  0  0  0  0
 10 15  1  0  0  0  0
 15 16  1  0  0  0  0
M  END
> <VConfSearch Rank>
670

> <Conf_Id>
59

> <Delta U+W>
0.000

> <U+W>
3.010

> <U>
5.843

> <W>
-2.833

> <W(PB)>
-4.568

> <W(SA)>
1.735

> <Valence>
13.789

> <Coulomb>
-8.574

> <VdW>
0.628

> <VdW6>
-3.284

> <VdW12>
3.912

> <Bond>
0.054

> <Angle>
4.034

> <Pdih>
9.702

> <Idih>
0.000

> <Tether>
0.000

$$$$
VeraChem MOL file


 16 16  0  0  0  0  0  0  0  0999 V2000     
   20.7045   18.1914   21.7313 C   0  0  0  0  0  0  0  0  0  0  0  0
   21.7729   18.1897   21.9868 H   0  0  0  0  0  0  0  0  0  0  0  0
   20.5684   17.5936   20.8193 H   0  0  0  0  0  0  0  0  0  0  0  0
   20.1603   19.6087   21.5057 C   0  0  0  0  0  0  0  0  0  0  0  0
   20.5996   20.2937   22.2441 H   0  0  0  0  0  0  0  0  0  0  0  0
   20.3899   19.9914   20.5019 H   0  0  0  0  0  0  0  0  0  0  0  0
   18.6459   19.4840   21.7549 C   0  0  0  0  0  0  0  0  0  0  0  0
   18.1364   19.2403   20.8136 H   0  0  0  0  0  0  0  0  0  0  0  0
   18.2195   20.4233   22.1318 H   0  0  0  0  0  0  0  0  0  0  0  0
   18.4578   18.3165   22.7455 C   0  0  0  0  0  0  0  0  0  0  0  0
   17.7134   17.6145   22.3425 H   0  0  0  0  0  0  0  0  0  0  0  0
   19.8304   17.6210   22.8632 C   0  0  0  0  0  0  0  0  0  0  0  0
   20.2932   17.8536   23.8320 H   0  0  0  0  0  0  0  0  0  0  0  0
   19.7376   16.5299   22.7873 H   0  0  0  0  0  0  0  0  0  0  0  0
   18.0478   18.8114   24.0148 O   0  0  0  0  0  0  0  0  0  0  0  0
   17.9552   18.0328   24.6036 H   0  0  0  0  0  0  0  0  0  0  0  0
  1  2  1  0  0  0  0
  1  3  1  0  0  0  0
  1  4  1  0  0  0  0
  4  5  1  0  0  0  0
  4  6  1  0  0  0  0
  4  7  1  0  0  0  0
  7  8  1  0  0  0  0
  7  9  1  0  0  0  0
  7 10  1  0  0  0  0
 10 11  1  0  0  0  0
  1 12  1  0  0  0  0
 10 12  1  0  0  0  0
 12 13  1  0  0  0  0
 12 14  1  0  0  0  0
 10 15  1  0  0  0  0
 15 16  1  0  0  0  0
M  END
> <VConfSearch Rank>
671

> <Conf_Id>
33

> <Delta U+W>
0.015

> <U+W>
3.025

> <U>
5.843

> <W>
-2.819

> <W(PB)>
-4.568

> <W(SA)>
1.750

> <Valence>
13.789

> <Coulomb>
-8.574

> <VdW>
0.628

> <VdW6>
-3.284

> <VdW12>
3.913

> <Bond>
0.054

> <Angle>
4.033

> <Pdih>
9.702

> <Idih>
0.000

> <Tether>
0.000

$$$$
VeraChem MOL file


 16 16  0  0  0  0  0  0  0  0999 V2000     
   20.5989   18.8663   21.7792 C   0  0  0  0  0  0  0  0  0  0  0  0
   21.1937   17.9701   21.5549 H   0  0  0  0  0  0  0  0  0  0  0  0
   21.2055   19.7435   21.5156 H   0  0  0  0  0  0  0  0  0  0  0  0
   20.2061   18.8756   23.2727 C   0  0  0  0  0  0  0  0  0  0  0  0
   20.6117   17.9845   23.7715 H   0  0  0  0  0  0  0  0  0  0  0  0
   20.6063   19.7583   23.7901 H   0  0  0  0  0  0  0  0  0  0  0  0
   18.6634   18.8571   23.3196 C   0  0  0  0  0  0  0  0  0  0  0  0
   18.2883   19.8796   23.4588 H   0  0  0  0  0  0  0  0  0  0  0  0
   18.2794   18.2449   24.1466 H   0  0  0  0  0  0  0  0  0  0  0  0
   18.2026   18.3394   21.9505 C   0  0  0  0  0  0  0  0  0  0  0  0
   17.2071   18.7243   21.6864 H   0  0  0  0  0  0  0  0  0  0  0  0
   19.2788   18.8437   20.9797 C   0  0  0  0  0  0  0  0  0  0  0  0
   19.3493   18.2220   20.0772 H   0  0  0  0  0  0  0  0  0  0  0  0
   19.0240   19.8639   20.6635 H   0  0  0  0  0  0  0  0  0  0  0  0
   18.2104   16.9193   21.9606 O   0  0  0  0  0  0  0  0  0  0  0  0
   19.1263   16.6712   22.2029 H   0  0  0  0  0  0  0  0  0  0  0  0
  1  2  1  0  0  0  0
  1  3  1  0  0  0  0
  1  4  1  0  0  0  0
  4  5  1  0  0  0  0
  4  6  1  0  0  0  0
  4  7  1  0  0  0  0
  7  8  1  0  0  0  0
  7  9  1  0  0  0  0
  7 10  1  0  0  0  0
 10 11  1  0  0  0  0
  1 12  1  0  0  0  0
 10 12  1  0  0  0  0
 12 13  1  0  0  0  0
 12 14  1  0  0  0  0
 10 15  1  0  0  0  0
 15 16  1  0  0  0  0
M  END
> <VConfSearch Rank>
672

> <Conf_Id>
20

> <Delta U+W>
-0.483

> <U+W>
2.527

> <U>
4.508

> <W>
-1.981

> <W(PB)>
-3.712

> <W(SA)>
1.732

> <Valence>
14.705

> <Coulomb>
-10.687

> <VdW>
0.490

> <VdW6>
-3.745

> <VdW12>
4.235

> <Bond>
0.068

> <Angle>
3.901

> <Pdih>
10.737

> <Idih>
0.000

> <Tether>
0.000

$$$$
VeraChem MOL file


 16 16  0  0  0  0  0  0  0  0999 V2000     
   20.2424   19.1556   21.3293 C   0  0  0  0  0  0  0  0  0  0  0  0
   21.0949   19.5372   21.9082 H   0  0  0  0  0  0  0  0  0  0  0  0
   20.4414   19.3358   20.2641 H   0  0  0  0  0  0  0  0  0  0  0  0
   18.9512   19.8340   21.8072 C   0  0  0  0  0  0  0  0  0  0  0  0
   19.0958   20.9008   22.0259 H   0  0  0  0  0  0  0  0  0  0  0  0
   18.1775   19.7439   21.0321 H   0  0  0  0  0  0  0  0  0  0  0  0
   18.5356   19.0315   23.0538 C   0  0  0  0  0  0  0  0  0  0  0  0
   17.4469   19.0419   23.1930 H   0  0  0  0  0  0  0  0  0  0  0  0
   18.9940   19.4815   23.9450 H   0  0  0  0  0  0  0  0  0  0  0  0
   19.0672   17.5978   22.8452 C   0  0  0  0  0  0  0  0  0  0  0  0
   18.2354   16.9190   22.6065 H   0  0  0  0  0  0  0  0  0  0  0  0
   20.0325   17.6629   21.6436 C   0  0  0  0  0  0  0  0  0  0  0  0
   20.9847   17.1546   21.8459 H   0  0  0  0  0  0  0  0  0  0  0  0
   19.5660   17.1671   20.7824 H   0  0  0  0  0  0  0  0  0  0  0  0
   19.7594   17.1569   24.0072 O   0  0  0  0  0  0  0  0  0  0  0  0
   19.1046   17.1452   24.7371 H   0  0  0  0  0  0  0  0  0  0  0  0
  1  2  1  0  0  0  0
  1  3  1  0  0  0  0
  1  4  1  0  0  0  0
  4  5  1  0  0  0  0
  4  6  1  0  0  0  0
  4  7  1  0  0  0  0
  7  8  1  0  0  0  0
  7  9  1  0  0  0  0
  7 10  1  0  0  0  0
 10 11  1  0  0  0  0
  1 12  1  0  0  0  0
 10 12  1  0  0  0  0
 12 13  1  0  0  0  0
 12 14  1  0  0  0  0
 10 15  1  0  0  0  0
 15 16  1  0  0  0  0
M  END
> <VConfSearch Rank>
673

> <Conf_Id>
59

> <Delta U+W>
0.000

> <U+W>
3.010

> <U>
5.843

> <W>
-2.833

> <W(PB)>
-4.568

> <W(SA)>
1.735

> <Valence>
13.789

> <Coulomb>
-8.574

> <VdW>
0.628

> <VdW6>
-3.284

> <VdW12>
3.912

> <Bond>
0.054

> <Angle>
4.034

> <Pdih>
9.702

> <Idih>
0.000

> <Tether>
0.000

$$$$
VeraChem MOL file


 16 16  0  0  0  0  0  0  0  0999 V2000     
   20.2058   18.4561   23.5040 C   0  0  0  0  0  0  0  0  0  0  0  0
   20.2703   17.7740   24.3627 H   0  0  0  0  0  0  0  0  0  0  0  0
   21.0490   19.1587   23.5593 H   0  0  0  0  0  0  0  0  0  0  0  0
   18.8845   19.2366   23.4762 C   0  0  0  0  0  0  0  0  0  0  0  0
   18.0600   18.5758   23.7782 H   0  0  0  0  0  0  0  0  0  0  0  0
   18.8952   20.1037   24.1505 H   0  0  0  0  0  0  0  0  0  0  0  0
   18.7071   19.6414   22.0012 C   0  0  0  0  0  0  0  0  0  0  0  0
   19.1783   20.6176   21.8278 H   0  0  0  0  0  0  0  0  0  0  0  0
   17.6464   19.7300   21.7309 H   0  0  0  0  0  0  0  0  0  0  0  0
   19.4382   18.5738   21.1612 C   0  0  0  0  0  0  0  0  0  0  0  0
   20.1240   19.0705   20.4595 H   0  0  0  0  0  0  0  0  0  0  0  0
   20.2378   17.7088   22.1583 C   0  0  0  0  0  0  0  0  0  0  0  0
   19.7613   16.7261   22.2771 H   0  0  0  0  0  0  0  0  0  0  0  0
   21.2674   17.5449   21.8149 H   0  0  0  0  0  0  0  0  0  0  0  0
   18.4957   17.7708   20.4606 O   0  0  0  0  0  0  0  0  0  0  0  0
   19.0118   17.1070   19.9560 H   0  0  0  0  0  0  0  0  0  0  0  0
  1  2  1  0  0  0  0
  1  3  1  0  0  0  0
  1  4  1  0  0  0  0
  4  5  1  0  0  0  0
  4  6  1  0  0  0  0
  4  7  1  0  0  0  0
  7  8  1  0  0  0  0
  7  9  1  0  0  0  0
  7 10  1  0  0  0  0
 10 11  1  0  0  0  0
  1 12  1  0  0  0  0
 10 12  1  0  0  0  0
 12 13  1  0  0  0  0
 12 14  1  0  0  0  0
 10 15  1  0  0  0  0
 15 16  1  0  0  0  0
M  END
> <VConfSearch Rank>
674

> <Conf_Id>
33

> <Delta U+W>
0.015

> <U+W>
3.025

> <U>
5.843

> <W>
-2.819

> <W(PB)>
-4.568

> <W(SA)>
1.750

> <Valence>
13.789

> <Coulomb>
-8.574

> <VdW>
0.628

> <VdW6>
-3.284

> <VdW12>
3.913

> <Bond>
0.054

> <Angle>
4.033

> <Pdih>
9.702

> <Idih>
0.000

> <Tether>
0.000

$$$$
VeraChem MOL file


 16 16  0  0  0  0  0  0  0  0999 V2000     
   18.2762   19.3332   22.4767 C   0  0  0  0  0  0  0  0  0  0  0  0
   17.5214   18.8305   23.0971 H   0  0  0  0  0  0  0  0  0  0  0  0
   17.8899   20.3302   22.2243 H   0  0  0  0  0  0  0  0  0  0  0  0
   18.5574   18.4956   21.2101 C   0  0  0  0  0  0  0  0  0  0  0  0
   17.9380   17.5882   21.2169 H   0  0  0  0  0  0  0  0  0  0  0  0
   18.3192   19.0549   20.2950 H   0  0  0  0  0  0  0  0  0  0  0  0
   20.0538   18.1201   21.2571 C   0  0  0  0  0  0  0  0  0  0  0  0
   20.6272   18.8192   20.6341 H   0  0  0  0  0  0  0  0  0  0  0  0
   20.2405   17.1059   20.8796 H   0  0  0  0  0  0  0  0  0  0  0  0
   20.4878   18.2849   22.7198 C   0  0  0  0  0  0  0  0  0  0  0  0
   21.5583   18.5228   22.7999 H   0  0  0  0  0  0  0  0  0  0  0  0
   19.6135   19.4333   23.2409 C   0  0  0  0  0  0  0  0  0  0  0  0
   19.4751   19.3899   24.3295 H   0  0  0  0  0  0  0  0  0  0  0  0
   20.1008   20.3883   23.0040 H   0  0  0  0  0  0  0  0  0  0  0  0
   20.1775   17.0986   23.4362 O   0  0  0  0  0  0  0  0  0  0  0  0
   19.2152   16.9684   23.3088 H   0  0  0  0  0  0  0  0  0  0  0  0
  1  2  1  0  0  0  0
  1  3  1  0  0  0  0
  1  4  1  0  0  0  0
  4  5  1  0  0  0  0
  4  6  1  0  0  0  0
  4  7  1  0  0  0  0
  7  8  1  0  0  0  0
  7  9  1  0  0  0  0
  7 10  1  0  0  0  0
 10 11  1  0  0  0  0
  1 12  1  0  0  0  0
 10 12  1  0  0  0  0
 12 13  1  0  0  0  0
 12 14  1  0  0  0  0
 10 15  1  0  0  0  0
 15 16  1  0  0  0  0
M  END
> <VConfSearch Rank>
675

> <Conf_Id>
20

> <Delta U+W>
-0.483

> <U+W>
2.527

> <U>
4.508

> <W>
-1.981

> <W(PB)>
-3.712

> <W(SA)>
1.732

> <Valence>
14.705

> <Coulomb>
-10.687

> <VdW>
0.490

> <VdW6>
-3.745

> <VdW12>
4.235

> <Bond>
0.068

> <Angle>
3.901

> <Pdih>
10.737

> <Idih>
0.000

> <Tether>
0.000

$$$$
VeraChem MOL file


 16 16  0  0  0  0  0  0  0  0999 V2000     
   18.4257   18.4692   23.4264 C   0  0  0  0  0  0  0  0  0  0  0  0
   17.4359   18.3652   22.9603 H   0  0  0  0  0  0  0  0  0  0  0  0
   18.3009   18.4088   24.5161 H   0  0  0  0  0  0  0  0  0  0  0  0
   19.0671   19.7909   22.9822 C   0  0  0  0  0  0  0  0  0  0  0  0
   18.3399   20.6128   22.9336 H   0  0  0  0  0  0  0  0  0  0  0  0
   19.8587   20.0739   23.6900 H   0  0  0  0  0  0  0  0  0  0  0  0
   19.6856   19.4739   21.6083 C   0  0  0  0  0  0  0  0  0  0  0  0
   20.5655   20.0996   21.4105 H   0  0  0  0  0  0  0  0  0  0  0  0
   18.9454   19.6742   20.8217 H   0  0  0  0  0  0  0  0  0  0  0  0
   20.0495   17.9743   21.6308 C   0  0  0  0  0  0  0  0  0  0  0  0
   21.1391   17.8526   21.7179 H   0  0  0  0  0  0  0  0  0  0  0  0
   19.3690   17.3808   22.8817 C   0  0  0  0  0  0  0  0  0  0  0  0
   18.8283   16.4509   22.6604 H   0  0  0  0  0  0  0  0  0  0  0  0
   20.1370   17.1499   23.6314 H   0  0  0  0  0  0  0  0  0  0  0  0
   19.5635   17.3335   20.4573 O   0  0  0  0  0  0  0  0  0  0  0  0
   20.0185   17.7550   19.6978 H   0  0  0  0  0  0  0  0  0  0  0  0
  1  2  1  0  0  0  0
  1  3  1  0  0  0  0
  1  4  1  0  0  0  0
  4  5  1  0  0  0  0
  4  6  1  0  0  0  0
  4  7  1  0  0  0  0
  7  8  1  0  0  0  0
  7  9  1  0  0  0  0
  7 10  1  0  0  0  0
 10 11  1  0  0  0  0
  1 12  1  0  0  0  0
 10 12  1  0  0  0  0
 12 13  1  0  0  0  0
 12 14  1  0  0  0  0
 10 15  1  0  0  0  0
 15 16  1  0  0  0  0
M  END
> <VConfSearch Rank>
676

> <Conf_Id>
59

> <Delta U+W>
0.000

> <U+W>
3.010

> <U>
5.843

> <W>
-2.833

> <W(PB)>
-4.568

> <W(SA)>
1.735

> <Valence>
13.789

> <Coulomb>
-8.574

> <VdW>
0.628

> <VdW6>
-3.284

> <VdW12>
3.912

> <Bond>
0.054

> <Angle>
4.034

> <Pdih>
9.702

> <Idih>
0.000

> <Tether>
0.000

$$$$
VeraChem MOL file


 16 16  0  0  0  0  0  0  0  0999 V2000     
   19.9123   19.7065   23.0995 C   0  0  0  0  0  0  0  0  0  0  0  0
   19.7897   20.7956   23.1740 H   0  0  0  0  0  0  0  0  0  0  0  0
   20.4744   19.3630   23.9791 H   0  0  0  0  0  0  0  0  0  0  0  0
   20.6494   19.2879   21.8200 C   0  0  0  0  0  0  0  0  0  0  0  0
   20.3114   19.9105   20.9799 H   0  0  0  0  0  0  0  0  0  0  0  0
   21.7391   19.3935   21.9100 H   0  0  0  0  0  0  0  0  0  0  0  0
   20.2177   17.8284   21.5866 C   0  0  0  0  0  0  0  0  0  0  0  0
   20.9153   17.1517   22.0971 H   0  0  0  0  0  0  0  0  0  0  0  0
   20.2237   17.5708   20.5191 H   0  0  0  0  0  0  0  0  0  0  0  0
   18.8181   17.6775   22.2175 C   0  0  0  0  0  0  0  0  0  0  0  0
   18.8147   16.8074   22.8901 H   0  0  0  0  0  0  0  0  0  0  0  0
   18.5629   18.9689   23.0231 C   0  0  0  0  0  0  0  0  0  0  0  0
   17.8312   19.6029   22.5041 H   0  0  0  0  0  0  0  0  0  0  0  0
   18.1688   18.7490   24.0236 H   0  0  0  0  0  0  0  0  0  0  0  0
   17.8346   17.5312   21.2001 O   0  0  0  0  0  0  0  0  0  0  0  0
   16.9694   17.4513   21.6546 H   0  0  0  0  0  0  0  0  0  0  0  0
  1  2  1  0  0  0  0
  1  3  1  0  0  0  0
  1  4  1  0  0  0  0
  4  5  1  0  0  0  0
  4  6  1  0  0  0  0
  4  7  1  0  0  0  0
  7  8  1  0  0  0  0
  7  9  1  0  0  0  0
  7 10  1  0  0  0  0
 10 11  1  0  0  0  0
  1 12  1  0  0  0  0
 10 12  1  0  0  0  0
 12 13  1  0  0  0  0
 12 14  1  0  0  0  0
 10 15  1  0  0  0  0
 15 16  1  0  0  0  0
M  END
> <VConfSearch Rank>
677

> <Conf_Id>
33

> <Delta U+W>
0.015

> <U+W>
3.025

> <U>
5.843

> <W>
-2.819

> <W(PB)>
-4.568

> <W(SA)>
1.750

> <Valence>
13.789

> <Coulomb>
-8.574

> <VdW>
0.628

> <VdW6>
-3.284

> <VdW12>
3.913

> <Bond>
0.054

> <Angle>
4.033

> <Pdih>
9.702

> <Idih>
0.000

> <Tether>
0.000

$$$$
VeraChem MOL file


 16 16  0  0  0  0  0  0  0  0999 V2000     
   19.7608   18.4074   23.5220 C   0  0  0  0  0  0  0  0  0  0  0  0
   18.9981   17.9328   24.1547 H   0  0  0  0  0  0  0  0  0  0  0  0
   20.6554   18.5651   24.1400 H   0  0  0  0  0  0  0  0  0  0  0  0
   19.2197   19.7385   22.9560 C   0  0  0  0  0  0  0  0  0  0  0  0
   18.1955   19.9087   23.3156 H   0  0  0  0  0  0  0  0  0  0  0  0
   19.8318   20.5925   23.2771 H   0  0  0  0  0  0  0  0  0  0  0  0
   19.2285   19.5963   21.4191 C   0  0  0  0  0  0  0  0  0  0  0  0
   20.1341   20.0656   21.0124 H   0  0  0  0  0  0  0  0  0  0  0  0
   18.3617   20.0818   20.9512 H   0  0  0  0  0  0  0  0  0  0  0  0
   19.2760   18.0896   21.1318 C   0  0  0  0  0  0  0  0  0  0  0  0
   19.7599   17.8766   20.1677 H   0  0  0  0  0  0  0  0  0  0  0  0
   20.0774   17.5113   22.3058 C   0  0  0  0  0  0  0  0  0  0  0  0
   19.8383   16.4559   22.4929 H   0  0  0  0  0  0  0  0  0  0  0  0
   21.1484   17.5749   22.0722 H   0  0  0  0  0  0  0  0  0  0  0  0
   17.9564   17.5656   21.1631 O   0  0  0  0  0  0  0  0  0  0  0  0
   17.6098   17.8010   22.0483 H   0  0  0  0  0  0  0  0  0  0  0  0
  1  2  1  0  0  0  0
  1  3  1  0  0  0  0
  1  4  1  0  0  0  0
  4  5  1  0  0  0  0
  4  6  1  0  0  0  0
  4  7  1  0  0  0  0
  7  8  1  0  0  0  0
  7  9  1  0  0  0  0
  7 10  1  0  0  0  0
 10 11  1  0  0  0  0
  1 12  1  0  0  0  0
 10 12  1  0  0  0  0
 12 13  1  0  0  0  0
 12 14  1  0  0  0  0
 10 15  1  0  0  0  0
 15 16  1  0  0  0  0
M  END
> <VConfSearch Rank>
678

> <Conf_Id>
20

> <Delta U+W>
-0.483

> <U+W>
2.527

> <U>
4.508

> <W>
-1.981

> <W(PB)>
-3.712

> <W(SA)>
1.732

> <Valence>
14.705

> <Coulomb>
-10.687

> <VdW>
0.490

> <VdW6>
-3.745

> <VdW12>
4.235

> <Bond>
0.068

> <Angle>
3.901

> <Pdih>
10.737

> <Idih>
0.000

> <Tether>
0.000

$$$$
VeraChem MOL file


 16 16  0  0  0  0  0  0  0  0999 V2000     
   18.7690   18.7041   23.6348 C   0  0  0  0  0  0  0  0  0  0  0  0
   19.4715   19.3424   24.1886 H   0  0  0  0  0  0  0  0  0  0  0  0
   17.9059   18.4994   24.2828 H   0  0  0  0  0  0  0  0  0  0  0  0
   19.4831   17.4214   23.1870 C   0  0  0  0  0  0  0  0  0  0  0  0
   20.1656   17.0330   23.9552 H   0  0  0  0  0  0  0  0  0  0  0  0
   18.7399   16.6436   22.9628 H   0  0  0  0  0  0  0  0  0  0  0  0
   20.2210   17.8241   21.8971 C   0  0  0  0  0  0  0  0  0  0  0  0
   20.3325   16.9708   21.2158 H   0  0  0  0  0  0  0  0  0  0  0  0
   21.2264   18.1862   22.1517 H   0  0  0  0  0  0  0  0  0  0  0  0
   19.3909   18.9566   21.2568 C   0  0  0  0  0  0  0  0  0  0  0  0
   18.8565   18.5782   20.3732 H   0  0  0  0  0  0  0  0  0  0  0  0
   18.3660   19.3993   22.3213 C   0  0  0  0  0  0  0  0  0  0  0  0
   18.3296   20.4909   22.4364 H   0  0  0  0  0  0  0  0  0  0  0  0
   17.3663   19.0623   22.0177 H   0  0  0  0  0  0  0  0  0  0  0  0
   20.2356   20.0462   20.9058 O   0  0  0  0  0  0  0  0  0  0  0  0
   20.8698   19.7071   20.2392 H   0  0  0  0  0  0  0  0  0  0  0  0
  1  2  1  0  0  0  0
  1  3  1  0  0  0  0
  1  4  1  0  0  0  0
  4  5  1  0  0  0  0
  4  6  1  0  0  0  0
  4  7  1  0  0  0  0
  7  8  1  0  0  0  0
  7  9  1  0  0  0  0
  7 10  1  0  0  0  0
 10 11  1  0  0  0  0
  1 12  1  0  0  0  0
 10 12  1  0  0  0  0
 12 13  1  0  0  0  0
 12 14  1  0  0  0  0
 10 15  1  0  0  0  0
 15 16  1  0  0  0  0
M  END
> <VConfSearch Rank>
679

> <Conf_Id>
59

> <Delta U+W>
0.000

> <U+W>
3.010

> <U>
5.843

> <W>
-2.833

> <W(PB)>
-4.568

> <W(SA)>
1.735

> <Valence>
13.789

> <Coulomb>
-8.574

> <VdW>
0.628

> <VdW6>
-3.284

> <VdW12>
3.912

> <Bond>
0.054

> <Angle>
4.034

> <Pdih>
9.702

> <Idih>
0.000

> <Tether>
0.000

$$$$
VeraChem MOL file


 16 16  0  0  0  0  0  0  0  0999 V2000     
   19.6794   19.8129   21.5393 C   0  0  0  0  0  0  0  0  0  0  0  0
   19.3593   20.2781   20.5969 H   0  0  0  0  0  0  0  0  0  0  0  0
   20.2645   20.5510   22.1054 H   0  0  0  0  0  0  0  0  0  0  0  0
   20.5226   18.5510   21.3108 C   0  0  0  0  0  0  0  0  0  0  0  0
   20.1059   17.9766   20.4716 H   0  0  0  0  0  0  0  0  0  0  0  0
   21.5715   18.7831   21.0817 H   0  0  0  0  0  0  0  0  0  0  0  0
   20.3701   17.7447   22.6137 C   0  0  0  0  0  0  0  0  0  0  0  0
   21.1611   18.0312   23.3189 H   0  0  0  0  0  0  0  0  0  0  0  0
   20.4585   16.6649   22.4337 H   0  0  0  0  0  0  0  0  0  0  0  0
   19.0005   18.1286   23.2108 C   0  0  0  0  0  0  0  0  0  0  0  0
   19.1320   18.4214   24.2628 H   0  0  0  0  0  0  0  0  0  0  0  0
   18.4891   19.3300   22.3881 C   0  0  0  0  0  0  0  0  0  0  0  0
   17.6725   19.0162   21.7236 H   0  0  0  0  0  0  0  0  0  0  0  0
   18.1079   20.1297   23.0361 H   0  0  0  0  0  0  0  0  0  0  0  0
   18.0944   17.0373   23.1015 O   0  0  0  0  0  0  0  0  0  0  0  0
   17.2432   17.3392   23.4835 H   0  0  0  0  0  0  0  0  0  0  0  0
  1  2  1  0  0  0  0
  1  3  1  0  0  0  0
  1  4  1  0  0  0  0
  4  5  1  0  0  0  0
  4  6  1  0  0  0  0
  4  7  1  0  0  0  0
  7  8  1  0  0  0  0
  7  9  1  0  0  0  0
  7 10  1  0  0  0  0
 10 11  1  0  0  0  0
  1 12  1  0  0  0  0
 10 12  1  0  0  0  0
 12 13  1  0  0  0  0
 12 14  1  0  0  0  0
 10 15  1  0  0  0  0
 15 16  1  0  0  0  0
M  END
> <VConfSearch Rank>
680

> <Conf_Id>
33

> <Delta U+W>
0.015

> <U+W>
3.025

> <U>
5.843

> <W>
-2.819

> <W(PB)>
-4.568

> <W(SA)>
1.750

> <Valence>
13.789

> <Coulomb>
-8.574

> <VdW>
0.628

> <VdW6>
-3.284

> <VdW12>
3.913

> <Bond>
0.054

> <Angle>
4.033

> <Pdih>
9.702

> <Idih>
0.000

> <Tether>
0.000

$$$$
VeraChem MOL file


 16 16  0  0  0  0  0  0  0  0999 V2000     
   19.6627   18.6961   20.9556 C   0  0  0  0  0  0  0  0  0  0  0  0
   20.7174   18.5102   20.7099 H   0  0  0  0  0  0  0  0  0  0  0  0
   19.1303   18.8891   20.0142 H   0  0  0  0  0  0  0  0  0  0  0  0
   19.5525   19.8926   21.9258 C   0  0  0  0  0  0  0  0  0  0  0  0
   20.5537   20.2864   22.1489 H   0  0  0  0  0  0  0  0  0  0  0  0
   18.9615   20.7110   21.4924 H   0  0  0  0  0  0  0  0  0  0  0  0
   18.8928   19.3531   23.2128 C   0  0  0  0  0  0  0  0  0  0  0  0
   17.8174   19.5740   23.1941 H   0  0  0  0  0  0  0  0  0  0  0  0
   19.3122   19.8105   24.1188 H   0  0  0  0  0  0  0  0  0  0  0  0
   19.0895   17.8314   23.1855 C   0  0  0  0  0  0  0  0  0  0  0  0
   18.2939   17.3106   23.7376 H   0  0  0  0  0  0  0  0  0  0  0  0
   19.0644   17.4789   21.6922 C   0  0  0  0  0  0  0  0  0  0  0  0
   19.6102   16.5511   21.4746 H   0  0  0  0  0  0  0  0  0  0  0  0
   18.0224   17.3352   21.3772 H   0  0  0  0  0  0  0  0  0  0  0  0
   20.3670   17.5152   23.7193 O   0  0  0  0  0  0  0  0  0  0  0  0
   21.0038   18.0183   23.1711 H   0  0  0  0  0  0  0  0  0  0  0  0
  1  2  1  0  0  0  0
  1  3  1  0  0  0  0
  1  4  1  0  0  0  0
  4  5  1  0  0  0  0
  4  6  1  0  0  0  0
  4  7  1  0  0  0  0
  7  8  1  0  0  0  0
  7  9  1  0  0  0  0
  7 10  1  0  0  0  0
 10 11  1  0  0  0  0
  1 12  1  0  0  0  0
 10 12  1  0  0  0  0
 12 13  1  0  0  0  0
 12 14  1  0  0  0  0
 10 15  1  0  0  0  0
 15 16  1  0  0  0  0
M  END
> <VConfSearch Rank>
681

> <Conf_Id>
20

> <Delta U+W>
-0.483

> <U+W>
2.527

> <U>
4.508

> <W>
-1.981

> <W(PB)>
-3.712

> <W(SA)>
1.732

> <Valence>
14.705

> <Coulomb>
-10.687

> <VdW>
0.490

> <VdW6>
-3.745

> <VdW12>
4.235

> <Bond>
0.068

> <Angle>
3.901

> <Pdih>
10.737

> <Idih>
0.000

> <Tether>
0.000

$$$$
VeraChem MOL file


 16 16  0  0  0  0  0  0  0  0999 V2000     
   20.2771   17.4513   22.5441 C   0  0  0  0  0  0  0  0  0  0  0  0
   19.7004   16.5464   22.3070 H   0  0  0  0  0  0  0  0  0  0  0  0
   21.3030   17.1495   22.7953 H   0  0  0  0  0  0  0  0  0  0  0  0
   19.5932   18.2121   23.6883 C   0  0  0  0  0  0  0  0  0  0  0  0
   19.1947   17.5381   24.4589 H   0  0  0  0  0  0  0  0  0  0  0  0
   20.3149   18.8901   24.1648 H   0  0  0  0  0  0  0  0  0  0  0  0
   18.4874   19.0305   22.9970 C   0  0  0  0  0  0  0  0  0  0  0  0
   18.2718   19.9568   23.5452 H   0  0  0  0  0  0  0  0  0  0  0  0
   17.5640   18.4365   22.9618 H   0  0  0  0  0  0  0  0  0  0  0  0
   18.9909   19.3215   21.5675 C   0  0  0  0  0  0  0  0  0  0  0  0
   19.2895   20.3764   21.4811 H   0  0  0  0  0  0  0  0  0  0  0  0
   20.2259   18.4229   21.3506 C   0  0  0  0  0  0  0  0  0  0  0  0
   20.1877   17.8858   20.3935 H   0  0  0  0  0  0  0  0  0  0  0  0
   21.1277   19.0489   21.3462 H   0  0  0  0  0  0  0  0  0  0  0  0
   17.9807   19.0047   20.6172 O   0  0  0  0  0  0  0  0  0  0  0  0
   17.2206   19.5941   20.8078 H   0  0  0  0  0  0  0  0  0  0  0  0
  1  2  1  0  0  0  0
  1  3  1  0  0  0  0
  1  4  1  0  0  0  0
  4  5  1  0  0  0  0
  4  6  1  0  0  0  0
  4  7  1  0  0  0  0
  7  8  1  0  0  0  0
  7  9  1  0  0  0  0
  7 10  1  0  0  0  0
 10 11  1  0  0  0  0
  1 12  1  0  0  0  0
 10 12  1  0  0  0  0
 12 13  1  0  0  0  0
 12 14  1  0  0  0  0
 10 15  1  0  0  0  0
 15 16  1  0  0  0  0
M  END
> <VConfSearch Rank>
682

> <Conf_Id>
59

> <Delta U+W>
0.000

> <U+W>
3.010

> <U>
5.843

> <W>
-2.833

> <W(PB)>
-4.568

> <W(SA)>
1.735

> <Valence>
13.789

> <Coulomb>
-8.574

> <VdW>
0.628

> <VdW6>
-3.284

> <VdW12>
3.912

> <Bond>
0.054

> <Angle>
4.034

> <Pdih>
9.702

> <Idih>
0.000

> <Tether>
0.000

$$$$
VeraChem MOL file


 16 16  0  0  0  0  0  0  0  0999 V2000     
   20.0162   18.2591   21.0205 C   0  0  0  0  0  0  0  0  0  0  0  0
   20.8330   17.6483   20.6125 H   0  0  0  0  0  0  0  0  0  0  0  0
   19.3969   18.6085   20.1827 H   0  0  0  0  0  0  0  0  0  0  0  0
   20.5310   19.4641   21.8197 C   0  0  0  0  0  0  0  0  0  0  0  0
   21.4080   19.1662   22.4112 H   0  0  0  0  0  0  0  0  0  0  0  0
   20.8211   20.3034   21.1730 H   0  0  0  0  0  0  0  0  0  0  0  0
   19.3698   19.8243   22.7646 C   0  0  0  0  0  0  0  0  0  0  0  0
   18.7085   20.5511   22.2752 H   0  0  0  0  0  0  0  0  0  0  0  0
   19.7328   20.2779   23.6966 H   0  0  0  0  0  0  0  0  0  0  0  0
   18.5857   18.5196   23.0150 C   0  0  0  0  0  0  0  0  0  0  0  0
   17.5181   18.6936   22.8161 H   0  0  0  0  0  0  0  0  0  0  0  0
   19.1452   17.4789   22.0222 C   0  0  0  0  0  0  0  0  0  0  0  0
   19.7685   16.7451   22.5510 H   0  0  0  0  0  0  0  0  0  0  0  0
   18.3401   16.9331   21.5135 H   0  0  0  0  0  0  0  0  0  0  0  0
   18.7831   18.0776   24.3527 O   0  0  0  0  0  0  0  0  0  0  0  0
   18.2747   17.2450   24.4517 H   0  0  0  0  0  0  0  0  0  0  0  0
  1  2  1  0  0  0  0
  1  3  1  0  0  0  0
  1  4  1  0  0  0  0
  4  5  1  0  0  0  0
  4  6  1  0  0  0  0
  4  7  1  0  0  0  0
  7  8  1  0  0  0  0
  7  9  1  0  0  0  0
  7 10  1  0  0  0  0
 10 11  1  0  0  0  0
  1 12  1  0  0  0  0
 10 12  1  0  0  0  0
 12 13  1  0  0  0  0
 12 14  1  0  0  0  0
 10 15  1  0  0  0  0
 15 16  1  0  0  0  0
M  END
> <VConfSearch Rank>
683

> <Conf_Id>
33

> <Delta U+W>
0.015

> <U+W>
3.025

> <U>
5.843

> <W>
-2.819

> <W(PB)>
-4.568

> <W(SA)>
1.750

> <Valence>
13.789

> <Coulomb>
-8.574

> <VdW>
0.628

> <VdW6>
-3.284

> <VdW12>
3.913

> <Bond>
0.054

> <Angle>
4.033

> <Pdih>
9.702

> <Idih>
0.000

> <Tether>
0.000

$$$$
VeraChem MOL file


 16 16  0  0  0  0  0  0  0  0999 V2000     
   19.8085   17.3687   22.0166 C   0  0  0  0  0  0  0  0  0  0  0  0
   20.6000   17.0242   22.6963 H   0  0  0  0  0  0  0  0  0  0  0  0
   19.5854   16.5476   21.3215 H   0  0  0  0  0  0  0  0  0  0  0  0
   20.2743   18.6362   21.2674 C   0  0  0  0  0  0  0  0  0  0  0  0
   21.2917   18.9046   21.5837 H   0  0  0  0  0  0  0  0  0  0  0  0
   20.2939   18.4785   20.1803 H   0  0  0  0  0  0  0  0  0  0  0  0
   19.2845   19.7579   21.6475 C   0  0  0  0  0  0  0  0  0  0  0  0
   18.5255   19.8595   20.8606 H   0  0  0  0  0  0  0  0  0  0  0  0
   19.7812   20.7308   21.7602 H   0  0  0  0  0  0  0  0  0  0  0  0
   18.6009   19.3006   22.9431 C   0  0  0  0  0  0  0  0  0  0  0  0
   17.5935   19.7298   23.0423 H   0  0  0  0  0  0  0  0  0  0  0  0
   18.5539   17.7717   22.8203 C   0  0  0  0  0  0  0  0  0  0  0  0
   18.5102   17.2769   23.7997 H   0  0  0  0  0  0  0  0  0  0  0  0
   17.6529   17.4864   22.2614 H   0  0  0  0  0  0  0  0  0  0  0  0
   19.4144   19.6560   24.0516 O   0  0  0  0  0  0  0  0  0  0  0  0
   20.2809   19.2343   23.8773 H   0  0  0  0  0  0  0  0  0  0  0  0
  1  2  1  0  0  0  0
  1  3  1  0  0  0  0
  1  4  1  0  0  0  0
  4  5  1  0  0  0  0
  4  6  1  0  0  0  0
  4  7  1  0  0  0  0
  7  8  1  0  0  0  0
  7  9  1  0  0  0  0
  7 10  1  0  0  0  0
 10 11  1  0  0  0  0
  1 12  1  0  0  0  0
 10 12  1  0  0  0  0
 12 13  1  0  0  0  0
 12 14  1  0  0  0  0
 10 15  1  0  0  0  0
 15 16  1  0  0  0  0
M  END
> <VConfSearch Rank>
684

> <Conf_Id>
20

> <Delta U+W>
-0.483

> <U+W>
2.527

> <U>
4.508

> <W>
-1.981

> <W(PB)>
-3.712

> <W(SA)>
1.732

> <Valence>
14.705

> <Coulomb>
-10.687

> <VdW>
0.490

> <VdW6>
-3.745

> <VdW12>
4.235

> <Bond>
0.068

> <Angle>
3.901

> <Pdih>
10.737

> <Idih>
0.000

> <Tether>
0.000

$$$$
VeraChem MOL file


 16 16  0  0  0  0  0  0  0  0999 V2000     
   19.6996   18.4707   23.7249 C   0  0  0  0  0  0  0  0  0  0  0  0
   20.4593   19.2495   23.8800 H   0  0  0  0  0  0  0  0  0  0  0  0
   19.4814   18.0047   24.6954 H   0  0  0  0  0  0  0  0  0  0  0  0
   20.2056   17.4577   22.6887 C   0  0  0  0  0  0  0  0  0  0  0  0
   21.2744   17.2345   22.8097 H   0  0  0  0  0  0  0  0  0  0  0  0
   19.6451   16.5175   22.7866 H   0  0  0  0  0  0  0  0  0  0  0  0
   19.8935   18.1111   21.3300 C   0  0  0  0  0  0  0  0  0  0  0  0
   19.7154   17.3562   20.5533 H   0  0  0  0  0  0  0  0  0  0  0  0
   20.7502   18.7228   21.0158 H   0  0  0  0  0  0  0  0  0  0  0  0
   18.6527   19.0019   21.5506 C   0  0  0  0  0  0  0  0  0  0  0  0
   17.7683   18.5353   21.0929 H   0  0  0  0  0  0  0  0  0  0  0  0
   18.4487   19.0924   23.0770 C   0  0  0  0  0  0  0  0  0  0  0  0
   18.2887   20.1248   23.4157 H   0  0  0  0  0  0  0  0  0  0  0  0
   17.5613   18.5089   23.3547 H   0  0  0  0  0  0  0  0  0  0  0  0
   18.8760   20.2978   21.0077 O   0  0  0  0  0  0  0  0  0  0  0  0
   19.0095   20.1797   20.0435 H   0  0  0  0  0  0  0  0  0  0  0  0
  1  2  1  0  0  0  0
  1  3  1  0  0  0  0
  1  4  1  0  0  0  0
  4  5  1  0  0  0  0
  4  6  1  0  0  0  0
  4  7  1  0  0  0  0
  7  8  1  0  0  0  0
  7  9  1  0  0  0  0
  7 10  1  0  0  0  0
 10 11  1  0  0  0  0
  1 12  1  0  0  0  0
 10 12  1  0  0  0  0
 12 13  1  0  0  0  0
 12 14  1  0  0  0  0
 10 15  1  0  0  0  0
 15 16  1  0  0  0  0
M  END
> <VConfSearch Rank>
685

> <Conf_Id>
59

> <Delta U+W>
0.000

> <U+W>
3.010

> <U>
5.843

> <W>
-2.833

> <W(PB)>
-4.568

> <W(SA)>
1.735

> <Valence>
13.789

> <Coulomb>
-8.574

> <VdW>
0.628

> <VdW6>
-3.284

> <VdW12>
3.912

> <Bond>
0.054

> <Angle>
4.034

> <Pdih>
9.702

> <Idih>
0.000

> <Tether>
0.000

$$$$
VeraChem MOL file


 16 16  0  0  0  0  0  0  0  0999 V2000     
   19.2417   17.4941   23.1676 C   0  0  0  0  0  0  0  0  0  0  0  0
   18.4111   16.9265   23.6088 H   0  0  0  0  0  0  0  0  0  0  0  0
   20.1778   16.9645   23.3933 H   0  0  0  0  0  0  0  0  0  0  0  0
   19.3183   18.9298   23.7047 C   0  0  0  0  0  0  0  0  0  0  0  0
   18.3036   19.3386   23.8090 H   0  0  0  0  0  0  0  0  0  0  0  0
   19.8142   18.9857   24.6833 H   0  0  0  0  0  0  0  0  0  0  0  0
   20.0785   19.7086   22.6154 C   0  0  0  0  0  0  0  0  0  0  0  0
   21.1561   19.6743   22.8221 H   0  0  0  0  0  0  0  0  0  0  0  0
   19.7773   20.7643   22.5884 H   0  0  0  0  0  0  0  0  0  0  0  0
   19.7989   18.9856   21.2817 C   0  0  0  0  0  0  0  0  0  0  0  0
   20.7523   18.7769   20.7747 H   0  0  0  0  0  0  0  0  0  0  0  0
   19.0927   17.6622   21.6444 C   0  0  0  0  0  0  0  0  0  0  0  0
   18.0260   17.7171   21.3877 H   0  0  0  0  0  0  0  0  0  0  0  0
   19.5264   16.8118   21.1027 H   0  0  0  0  0  0  0  0  0  0  0  0
   18.9552   19.7828   20.4591 O   0  0  0  0  0  0  0  0  0  0  0  0
   18.8024   19.2730   19.6354 H   0  0  0  0  0  0  0  0  0  0  0  0
  1  2  1  0  0  0  0
  1  3  1  0  0  0  0
  1  4  1  0  0  0  0
  4  5  1  0  0  0  0
  4  6  1  0  0  0  0
  4  7  1  0  0  0  0
  7  8  1  0  0  0  0
  7  9  1  0  0  0  0
  7 10  1  0  0  0  0
 10 11  1  0  0  0  0
  1 12  1  0  0  0  0
 10 12  1  0  0  0  0
 12 13  1  0  0  0  0
 12 14  1  0  0  0  0
 10 15  1  0  0  0  0
 15 16  1  0  0  0  0
M  END
> <VConfSearch Rank>
686

> <Conf_Id>
33

> <Delta U+W>
0.015

> <U+W>
3.025

> <U>
5.843

> <W>
-2.819

> <W(PB)>
-4.568

> <W(SA)>
1.750

> <Valence>
13.789

> <Coulomb>
-8.574

> <VdW>
0.628

> <VdW6>
-3.284

> <VdW12>
3.913

> <Bond>
0.054

> <Angle>
4.033

> <Pdih>
9.702

> <Idih>
0.000

> <Tether>
0.000

$$$$
VeraChem MOL file


 16 16  0  0  0  0  0  0  0  0999 V2000     
   18.2517   19.1957   21.8421 C   0  0  0  0  0  0  0  0  0  0  0  0
   18.3619   20.2590   21.5881 H   0  0  0  0  0  0  0  0  0  0  0  0
   17.2064   18.9147   21.6540 H   0  0  0  0  0  0  0  0  0  0  0  0
   18.6452   18.9647   23.3175 C   0  0  0  0  0  0  0  0  0  0  0  0
   18.9448   19.9163   23.7778 H   0  0  0  0  0  0  0  0  0  0  0  0
   17.8060   18.5619   23.9010 H   0  0  0  0  0  0  0  0  0  0  0  0
   19.8346   17.9810   23.3043 C   0  0  0  0  0  0  0  0  0  0  0  0
   19.4699   16.9619   23.4893 H   0  0  0  0  0  0  0  0  0  0  0  0
   20.5774   18.2156   24.0784 H   0  0  0  0  0  0  0  0  0  0  0  0
   20.4271   18.0492   21.8904 C   0  0  0  0  0  0  0  0  0  0  0  0
   20.9188   17.1060   21.6118 H   0  0  0  0  0  0  0  0  0  0  0  0
   19.2172   18.3420   20.9929 C   0  0  0  0  0  0  0  0  0  0  0  0
   19.5039   18.8429   20.0586 H   0  0  0  0  0  0  0  0  0  0  0  0
   18.7319   17.3933   20.7280 H   0  0  0  0  0  0  0  0  0  0  0  0
   21.3379   19.1363   21.8169 O   0  0  0  0  0  0  0  0  0  0  0  0
   20.8170   19.9232   22.0789 H   0  0  0  0  0  0  0  0  0  0  0  0
  1  2  1  0  0  0  0
  1  3  1  0  0  0  0
  1  4  1  0  0  0  0
  4  5  1  0  0  0  0
  4  6  1  0  0  0  0
  4  7  1  0  0  0  0
  7  8  1  0  0  0  0
  7  9  1  0  0  0  0
  7 10  1  0  0  0  0
 10 11  1  0  0  0  0
  1 12  1  0  0  0  0
 10 12  1  0  0  0  0
 12 13  1  0  0  0  0
 12 14  1  0  0  0  0
 10 15  1  0  0  0  0
 15 16  1  0  0  0  0
M  END
> <VConfSearch Rank>
687

> <Conf_Id>
20

> <Delta U+W>
-0.483

> <U+W>
2.527

> <U>
4.508

> <W>
-1.981

> <W(PB)>
-3.712

> <W(SA)>
1.732

> <Valence>
14.705

> <Coulomb>
-10.687

> <VdW>
0.490

> <VdW6>
-3.745

> <VdW12>
4.235

> <Bond>
0.068

> <Angle>
3.901

> <Pdih>
10.737

> <Idih>
0.000

> <Tether>
0.000

$$$$
VeraChem MOL file


 16 16  0  0  0  0  0  0  0  0999 V2000     
   19.2766   17.1026   22.3312 C   0  0  0  0  0  0  0  0  0  0  0  0
   20.1102   16.7637   21.7004 H   0  0  0  0  0  0  0  0  0  0  0  0
   18.7774   16.2168   22.7469 H   0  0  0  0  0  0  0  0  0  0  0  0
   18.3257   17.9760   21.5013 C   0  0  0  0  0  0  0  0  0  0  0  0
   18.1859   17.5901   20.4824 H   0  0  0  0  0  0  0  0  0  0  0  0
   17.3425   18.0197   21.9902 H   0  0  0  0  0  0  0  0  0  0  0  0
   18.9768   19.3712   21.5152 C   0  0  0  0  0  0  0  0  0  0  0  0
   18.2242   20.1659   21.4312 H   0  0  0  0  0  0  0  0  0  0  0  0
   19.6600   19.4618   20.6597 H   0  0  0  0  0  0  0  0  0  0  0  0
   19.7623   19.4714   22.8398 C   0  0  0  0  0  0  0  0  0  0  0  0
   19.2353   20.1353   23.5405 H   0  0  0  0  0  0  0  0  0  0  0  0
   19.8088   18.0453   23.4263 C   0  0  0  0  0  0  0  0  0  0  0  0
   20.8190   17.7602   23.7492 H   0  0  0  0  0  0  0  0  0  0  0  0
   19.1519   17.9979   24.3045 H   0  0  0  0  0  0  0  0  0  0  0  0
   21.0814   19.9440   22.5938 O   0  0  0  0  0  0  0  0  0  0  0  0
   20.9916   20.8436   22.2139 H   0  0  0  0  0  0  0  0  0  0  0  0
  1  2  1  0  0  0  0
  1  3  1  0  0  0  0
  1  4  1  0  0  0  0
  4  5  1  0  0  0  0
  4  6  1  0  0  0  0
  4  7  1  0  0  0  0
  7  8  1  0  0  0  0
  7  9  1  0  0  0  0
  7 10  1  0  0  0  0
 10 11  1  0  0  0  0
  1 12  1  0  0  0  0
 10 12  1  0  0  0  0
 12 13  1  0  0  0  0
 12 14  1  0  0  0  0
 10 15  1  0  0  0  0
 15 16  1  0  0  0  0
M  END
> <VConfSearch Rank>
688

> <Conf_Id>
59

> <Delta U+W>
0.000

> <U+W>
3.010

> <U>
5.843

> <W>
-2.833

> <W(PB)>
-4.568

> <W(SA)>
1.735

> <Valence>
13.789

> <Coulomb>
-8.574

> <VdW>
0.628

> <VdW6>
-3.284

> <VdW12>
3.912

> <Bond>
0.054

> <Angle>
4.034

> <Pdih>
9.702

> <Idih>
0.000

> <Tether>
0.000

$$$$
VeraChem MOL file


 16 16  0  0  0  0  0  0  0  0999 V2000     
   20.6694   19.1897   22.7875 C   0  0  0  0  0  0  0  0  0  0  0  0
   21.6895   18.8811   23.0537 H   0  0  0  0  0  0  0  0  0  0  0  0
   20.6238   20.2873   22.8171 H   0  0  0  0  0  0  0  0  0  0  0  0
   19.6155   18.6034   23.7369 C   0  0  0  0  0  0  0  0  0  0  0  0
   19.8806   17.5666   23.9864 H   0  0  0  0  0  0  0  0  0  0  0  0
   19.5315   19.1719   24.6731 H   0  0  0  0  0  0  0  0  0  0  0  0
   18.3100   18.6197   22.9205 C   0  0  0  0  0  0  0  0  0  0  0  0
   17.7874   19.5718   23.0802 H   0  0  0  0  0  0  0  0  0  0  0  0
   17.6321   17.8115   23.2258 H   0  0  0  0  0  0  0  0  0  0  0  0
   18.7179   18.5125   21.4366 C   0  0  0  0  0  0  0  0  0  0  0  0
   18.2306   19.3171   20.8668 H   0  0  0  0  0  0  0  0  0  0  0  0
   20.2505   18.6882   21.3934 C   0  0  0  0  0  0  0  0  0  0  0  0
   20.7386   17.7248   21.1921 H   0  0  0  0  0  0  0  0  0  0  0  0
   20.5540   19.3908   20.6066 H   0  0  0  0  0  0  0  0  0  0  0  0
   18.3551   17.2381   20.9189 O   0  0  0  0  0  0  0  0  0  0  0  0
   18.6462   17.2215   19.9827 H   0  0  0  0  0  0  0  0  0  0  0  0
  1  2  1  0  0  0  0
  1  3  1  0  0  0  0
  1  4  1  0  0  0  0
  4  5  1  0  0  0  0
  4  6  1  0  0  0  0
  4  7  1  0  0  0  0
  7  8  1  0  0  0  0
  7  9  1  0  0  0  0
  7 10  1  0  0  0  0
 10 11  1  0  0  0  0
  1 12  1  0  0  0  0
 10 12  1  0  0  0  0
 12 13  1  0  0  0  0
 12 14  1  0  0  0  0
 10 15  1  0  0  0  0
 15 16  1  0  0  0  0
M  END
> <VConfSearch Rank>
689

> <Conf_Id>
33

> <Delta U+W>
0.015

> <U+W>
3.025

> <U>
5.843

> <W>
-2.819

> <W(PB)>
-4.568

> <W(SA)>
1.750

> <Valence>
13.789

> <Coulomb>
-8.574

> <VdW>
0.628

> <VdW6>
-3.284

> <VdW12>
3.913

> <Bond>
0.054

> <Angle>
4.033

> <Pdih>
9.702

> <Idih>
0.000

> <Tether>
0.000

$$$$
VeraChem MOL file


 16 16  0  0  0  0  0  0  0  0999 V2000     
   18.1071   18.8377   22.6009 C   0  0  0  0  0  0  0  0  0  0  0  0
   17.9818   19.3093   23.5853 H   0  0  0  0  0  0  0  0  0  0  0  0
   17.1073   18.7035   22.1659 H   0  0  0  0  0  0  0  0  0  0  0  0
   18.8453   17.4900   22.7543 C   0  0  0  0  0  0  0  0  0  0  0  0
   19.0763   17.3088   23.8131 H   0  0  0  0  0  0  0  0  0  0  0  0
   18.2320   16.6507   22.3986 H   0  0  0  0  0  0  0  0  0  0  0  0
   20.1493   17.6096   21.9371 C   0  0  0  0  0  0  0  0  0  0  0  0
   20.0075   17.1490   20.9505 H   0  0  0  0  0  0  0  0  0  0  0  0
   20.9936   17.1035   22.4239 H   0  0  0  0  0  0  0  0  0  0  0  0
   20.3998   19.1125   21.7540 C   0  0  0  0  0  0  0  0  0  0  0  0
   20.9681   19.3190   20.8356 H   0  0  0  0  0  0  0  0  0  0  0  0
   18.9921   19.7208   21.6957 C   0  0  0  0  0  0  0  0  0  0  0  0
   18.9814   20.7749   22.0036 H   0  0  0  0  0  0  0  0  0  0  0  0
   18.6247   19.6709   20.6622 H   0  0  0  0  0  0  0  0  0  0  0  0
   21.0799   19.6157   22.8946 O   0  0  0  0  0  0  0  0  0  0  0  0
   20.5057   19.3879   23.6546 H   0  0  0  0  0  0  0  0  0  0  0  0
  1  2  1  0  0  0  0
  1  3  1  0  0  0  0
  1  4  1  0  0  0  0
  4  5  1  0  0  0  0
  4  6  1  0  0  0  0
  4  7  1  0  0  0  0
  7  8  1  0  0  0  0
  7  9  1  0  0  0  0
  7 10  1  0  0  0  0
 10 11  1  0  0  0  0
  1 12  1  0  0  0  0
 10 12  1  0  0  0  0
 12 13  1  0  0  0  0
 12 14  1  0  0  0  0
 10 15  1  0  0  0  0
 15 16  1  0  0  0  0
M  END
> <VConfSearch Rank>
690

> <Conf_Id>
20

> <Delta U+W>
-0.483

> <U+W>
2.527

> <U>
4.508

> <W>
-1.981

> <W(PB)>
-3.712

> <W(SA)>
1.732

> <Valence>
14.705

> <Coulomb>
-10.687

> <VdW>
0.490

> <VdW6>
-3.745

> <VdW12>
4.235

> <Bond>
0.068

> <Angle>
3.901

> <Pdih>
10.737

> <Idih>
0.000

> <Tether>
0.000

$$$$
VeraChem MOL file


 16 16  0  0  0  0  0  0  0  0999 V2000     
   19.2297   19.4873   21.2067 C   0  0  0  0  0  0  0  0  0  0  0  0
   19.2312   20.4827   21.6722 H   0  0  0  0  0  0  0  0  0  0  0  0
   19.1901   19.6171   20.1166 H   0  0  0  0  0  0  0  0  0  0  0  0
   18.0462   18.6704   21.7431 C   0  0  0  0  0  0  0  0  0  0  0  0
   17.1380   19.2773   21.8593 H   0  0  0  0  0  0  0  0  0  0  0  0
   17.8225   17.8460   21.0518 H   0  0  0  0  0  0  0  0  0  0  0  0
   18.5480   18.1041   23.0840 C   0  0  0  0  0  0  0  0  0  0  0  0
   18.0662   17.1466   23.3206 H   0  0  0  0  0  0  0  0  0  0  0  0
   18.3075   18.8110   23.8897 H   0  0  0  0  0  0  0  0  0  0  0  0
   20.0775   17.9506   22.9462 C   0  0  0  0  0  0  0  0  0  0  0  0
   20.3411   16.8881   22.8410 H   0  0  0  0  0  0  0  0  0  0  0  0
   20.4756   18.7041   21.6603 C   0  0  0  0  0  0  0  0  0  0  0  0
   21.3361   19.3684   21.8159 H   0  0  0  0  0  0  0  0  0  0  0  0
   20.7529   17.9740   20.8889 H   0  0  0  0  0  0  0  0  0  0  0  0
   20.7317   18.5226   24.0725 O   0  0  0  0  0  0  0  0  0  0  0  0
   20.4354   18.0152   24.8576 H   0  0  0  0  0  0  0  0  0  0  0  0
  1  2  1  0  0  0  0
  1  3  1  0  0  0  0
  1  4  1  0  0  0  0
  4  5  1  0  0  0  0
  4  6  1  0  0  0  0
  4  7  1  0  0  0  0
  7  8  1  0  0  0  0
  7  9  1  0  0  0  0
  7 10  1  0  0  0  0
 10 11  1  0  0  0  0
  1 12  1  0  0  0  0
 10 12  1  0  0  0  0
 12 13  1  0  0  0  0
 12 14  1  0  0  0  0
 10 15  1  0  0  0  0
 15 16  1  0  0  0  0
M  END
> <VConfSearch Rank>
691

> <Conf_Id>
59

> <Delta U+W>
0.000

> <U+W>
3.010

> <U>
5.843

> <W>
-2.833

> <W(PB)>
-4.568

> <W(SA)>
1.735

> <Valence>
13.789

> <Coulomb>
-8.574

> <VdW>
0.628

> <VdW6>
-3.284

> <VdW12>
3.912

> <Bond>
0.054

> <Angle>
4.034

> <Pdih>
9.702

> <Idih>
0.000

> <Tether>
0.000

$$$$
VeraChem MOL file


 16 16  0  0  0  0  0  0  0  0999 V2000     
   18.3651   19.4445   22.7243 C   0  0  0  0  0  0  0  0  0  0  0  0
   18.1446   20.1902   23.5002 H   0  0  0  0  0  0  0  0  0  0  0  0
   17.5240   19.4251   22.0174 H   0  0  0  0  0  0  0  0  0  0  0  0
   18.5819   18.0415   23.3075 C   0  0  0  0  0  0  0  0  0  0  0  0
   19.1515   18.1160   24.2444 H   0  0  0  0  0  0  0  0  0  0  0  0
   17.6361   17.5247   23.5200 H   0  0  0  0  0  0  0  0  0  0  0  0
   19.4260   17.3099   22.2476 C   0  0  0  0  0  0  0  0  0  0  0  0
   18.7632   16.8070   21.5315 H   0  0  0  0  0  0  0  0  0  0  0  0
   20.0696   16.5443   22.7012 H   0  0  0  0  0  0  0  0  0  0  0  0
   20.2373   18.3931   21.5071 C   0  0  0  0  0  0  0  0  0  0  0  0
   20.0948   18.2760   20.4229 H   0  0  0  0  0  0  0  0  0  0  0  0
   19.6720   19.7523   21.9705 C   0  0  0  0  0  0  0  0  0  0  0  0
   20.3776   20.2453   22.6530 H   0  0  0  0  0  0  0  0  0  0  0  0
   19.4965   20.4265   21.1223 H   0  0  0  0  0  0  0  0  0  0  0  0
   21.6149   18.2926   21.8476 O   0  0  0  0  0  0  0  0  0  0  0  0
   22.0777   19.0070   21.3607 H   0  0  0  0  0  0  0  0  0  0  0  0
  1  2  1  0  0  0  0
  1  3  1  0  0  0  0
  1  4  1  0  0  0  0
  4  5  1  0  0  0  0
  4  6  1  0  0  0  0
  4  7  1  0  0  0  0
  7  8  1  0  0  0  0
  7  9  1  0  0  0  0
  7 10  1  0  0  0  0
 10 11  1  0  0  0  0
  1 12  1  0  0  0  0
 10 12  1  0  0  0  0
 12 13  1  0  0  0  0
 12 14  1  0  0  0  0
 10 15  1  0  0  0  0
 15 16  1  0  0  0  0
M  END
> <VConfSearch Rank>
692

> <Conf_Id>
33

> <Delta U+W>
0.015

> <U+W>
3.025

> <U>
5.843

> <W>
-2.819

> <W(PB)>
-4.568

> <W(SA)>
1.750

> <Valence>
13.789

> <Coulomb>
-8.574

> <VdW>
0.628

> <VdW6>
-3.284

> <VdW12>
3.913

> <Bond>
0.054

> <Angle>
4.033

> <Pdih>
9.702

> <Idih>
0.000

> <Tether>
0.000

$$$$
VeraChem MOL file


 16 16  0  0  0  0  0  0  0  0999 V2000     
   19.0372   17.9308   23.3568 C   0  0  0  0  0  0  0  0  0  0  0  0
   18.1141   17.3433   23.2567 H   0  0  0  0  0  0  0  0  0  0  0  0
   19.4306   17.7638   24.3689 H   0  0  0  0  0  0  0  0  0  0  0  0
   18.7391   19.4247   23.1027 C   0  0  0  0  0  0  0  0  0  0  0  0
   17.6716   19.5603   22.8808 H   0  0  0  0  0  0  0  0  0  0  0  0
   18.9774   20.0392   23.9817 H   0  0  0  0  0  0  0  0  0  0  0  0
   19.5935   19.8408   21.8866 C   0  0  0  0  0  0  0  0  0  0  0  0
   20.5141   20.3279   22.2344 H   0  0  0  0  0  0  0  0  0  0  0  0
   19.0682   20.5485   21.2313 H   0  0  0  0  0  0  0  0  0  0  0  0
   19.9618   18.5399   21.1606 C   0  0  0  0  0  0  0  0  0  0  0  0
   20.9107   18.6365   20.6136 H   0  0  0  0  0  0  0  0  0  0  0  0
   20.0616   17.5007   22.2853 C   0  0  0  0  0  0  0  0  0  0  0  0
   19.8826   16.4790   21.9247 H   0  0  0  0  0  0  0  0  0  0  0  0
   21.0731   17.5323   22.7112 H   0  0  0  0  0  0  0  0  0  0  0  0
   18.9054   18.1791   20.2827 O   0  0  0  0  0  0  0  0  0  0  0  0
   18.1109   18.1172   20.8520 H   0  0  0  0  0  0  0  0  0  0  0  0
  1  2  1  0  0  0  0
  1  3  1  0  0  0  0
  1  4  1  0  0  0  0
  4  5  1  0  0  0  0
  4  6  1  0  0  0  0
  4  7  1  0  0  0  0
  7  8  1  0  0  0  0
  7  9  1  0  0  0  0
  7 10  1  0  0  0  0
 10 11  1  0  0  0  0
  1 12  1  0  0  0  0
 10 12  1  0  0  0  0
 12 13  1  0  0  0  0
 12 14  1  0  0  0  0
 10 15  1  0  0  0  0
 15 16  1  0  0  0  0
M  END
> <VConfSearch Rank>
693

> <Conf_Id>
20

> <Delta U+W>
-0.483

> <U+W>
2.527

> <U>
4.508

> <W>
-1.981

> <W(PB)>
-3.712

> <W(SA)>
1.732

> <Valence>
14.705

> <Coulomb>
-10.687

> <VdW>
0.490

> <VdW6>
-3.745

> <VdW12>
4.235

> <Bond>
0.068

> <Angle>
3.901

> <Pdih>
10.737

> <Idih>
0.000

> <Tether>
0.000

$$$$
VeraChem MOL file


 16 16  0  0  0  0  0  0  0  0999 V2000     
   18.9491   18.7764   23.6915 C   0  0  0  0  0  0  0  0  0  0  0  0
   18.3303   17.9054   23.9484 H   0  0  0  0  0  0  0  0  0  0  0  0
   19.0427   19.4077   24.5855 H   0  0  0  0  0  0  0  0  0  0  0  0
   18.3185   19.5246   22.5090 C   0  0  0  0  0  0  0  0  0  0  0  0
   17.2231   19.5693   22.5789 H   0  0  0  0  0  0  0  0  0  0  0  0
   18.7029   20.5536   22.4753 H   0  0  0  0  0  0  0  0  0  0  0  0
   18.7952   18.7495   21.2670 C   0  0  0  0  0  0  0  0  0  0  0  0
   18.8718   19.4050   20.3900 H   0  0  0  0  0  0  0  0  0  0  0  0
   18.0714   17.9567   21.0336 H   0  0  0  0  0  0  0  0  0  0  0  0
   20.1615   18.1342   21.6364 C   0  0  0  0  0  0  0  0  0  0  0  0
   20.9698   18.6802   21.1284 H   0  0  0  0  0  0  0  0  0  0  0  0
   20.3147   18.3007   23.1624 C   0  0  0  0  0  0  0  0  0  0  0  0
   20.6371   17.3724   23.6526 H   0  0  0  0  0  0  0  0  0  0  0  0
   21.0751   19.0662   23.3643 H   0  0  0  0  0  0  0  0  0  0  0  0
   20.1891   16.7551   21.2881 O   0  0  0  0  0  0  0  0  0  0  0  0
   20.0772   16.7085   20.3150 H   0  0  0  0  0  0  0  0  0  0  0  0
  1  2  1  0  0  0  0
  1  3  1  0  0  0  0
  1  4  1  0  0  0  0
  4  5  1  0  0  0  0
  4  6  1  0  0  0  0
  4  7  1  0  0  0  0
  7  8  1  0  0  0  0
  7  9  1  0  0  0  0
  7 10  1  0  0  0  0
 10 11  1  0  0  0  0
  1 12  1  0  0  0  0
 10 12  1  0  0  0  0
 12 13  1  0  0  0  0
 12 14  1  0  0  0  0
 10 15  1  0  0  0  0
 15 16  1  0  0  0  0
M  END
> <VConfSearch Rank>
694

> <Conf_Id>
59

> <Delta U+W>
0.000

> <U+W>
3.010

> <U>
5.843

> <W>
-2.833

> <W(PB)>
-4.568

> <W(SA)>
1.735

> <Valence>
13.789

> <Coulomb>
-8.574

> <VdW>
0.628

> <VdW6>
-3.284

> <VdW12>
3.912

> <Bond>
0.054

> <Angle>
4.034

> <Pdih>
9.702

> <Idih>
0.000

> <Tether>
0.000

$$$$
VeraChem MOL file


 16 16  0  0  0  0  0  0  0  0999 V2000     
   18.3856   17.7748   21.8211 C   0  0  0  0  0  0  0  0  0  0  0  0
   17.8192   17.5878   20.8987 H   0  0  0  0  0  0  0  0  0  0  0  0
   18.1066   17.0080   22.5571 H   0  0  0  0  0  0  0  0  0  0  0  0
   18.1138   19.1698   22.4006 C   0  0  0  0  0  0  0  0  0  0  0  0
   18.0439   19.9010   21.5832 H   0  0  0  0  0  0  0  0  0  0  0  0
   17.1806   19.2095   22.9786 H   0  0  0  0  0  0  0  0  0  0  0  0
   19.3523   19.4769   23.2626 C   0  0  0  0  0  0  0  0  0  0  0  0
   19.1850   19.1218   24.2877 H   0  0  0  0  0  0  0  0  0  0  0  0
   19.5535   20.5554   23.3116 H   0  0  0  0  0  0  0  0  0  0  0  0
   20.5256   18.6900   22.6429 C   0  0  0  0  0  0  0  0  0  0  0  0
   21.0244   18.1033   23.4280 H   0  0  0  0  0  0  0  0  0  0  0  0
   19.9076   17.7458   21.5901 C   0  0  0  0  0  0  0  0  0  0  0  0
   20.1283   18.1088   20.5770 H   0  0  0  0  0  0  0  0  0  0  0  0
   20.3072   16.7272   21.6777 H   0  0  0  0  0  0  0  0  0  0  0  0
   21.4425   19.5836   22.0228 O   0  0  0  0  0  0  0  0  0  0  0  0
   22.1566   19.0322   21.6387 H   0  0  0  0  0  0  0  0  0  0  0  0
  1  2  1  0  0  0  0
  1  3  1  0  0  0  0
  1  4  1  0  0  0  0
  4  5  1  0  0  0  0
  4  6  1  0  0  0  0
  4  7  1  0  0  0  0
  7  8  1  0  0  0  0
  7  9  1  0  0  0  0
  7 10  1  0  0  0  0
 10 11  1  0  0  0  0
  1 12  1  0  0  0  0
 10 12  1  0  0  0  0
 12 13  1  0  0  0  0
 12 14  1  0  0  0  0
 10 15  1  0  0  0  0
 15 16  1  0  0  0  0
M  END
> <VConfSearch Rank>
695

> <Conf_Id>
33

> <Delta U+W>
0.015

> <U+W>
3.025

> <U>
5.843

> <W>
-2.819

> <W(PB)>
-4.568

> <W(SA)>
1.750

> <Valence>
13.789

> <Coulomb>
-8.574

> <VdW>
0.628

> <VdW6>
-3.284

> <VdW12>
3.913

> <Bond>
0.054

> <Angle>
4.033

> <Pdih>
9.702

> <Idih>
0.000

> <Tether>
0.000

$$$$
VeraChem MOL file


 16 16  0  0  0  0  0  0  0  0999 V2000     
   20.2129   19.6086   22.5607 C   0  0  0  0  0  0  0  0  0  0  0  0
   19.7250   20.4868   23.0055 H   0  0  0  0  0  0  0  0  0  0  0  0
   21.2907   19.8157   22.5107 H   0  0  0  0  0  0  0  0  0  0  0  0
   19.6223   19.3323   21.1608 C   0  0  0  0  0  0  0  0  0  0  0  0
   18.8492   20.0775   20.9276 H   0  0  0  0  0  0  0  0  0  0  0  0
   20.3913   19.3940   20.3786 H   0  0  0  0  0  0  0  0  0  0  0  0
   19.0016   17.9203   21.2184 C   0  0  0  0  0  0  0  0  0  0  0  0
   19.7096   17.1911   20.8030 H   0  0  0  0  0  0  0  0  0  0  0  0
   18.0714   17.8505   20.6388 H   0  0  0  0  0  0  0  0  0  0  0  0
   18.7840   17.6120   22.7059 C   0  0  0  0  0  0  0  0  0  0  0  0
   18.8186   16.5311   22.9044 H   0  0  0  0  0  0  0  0  0  0  0  0
   19.9281   18.3526   23.4114 C   0  0  0  0  0  0  0  0  0  0  0  0
   19.6828   18.6018   24.4524 H   0  0  0  0  0  0  0  0  0  0  0  0
   20.8167   17.7078   23.4227 H   0  0  0  0  0  0  0  0  0  0  0  0
   17.5432   18.1640   23.1214 O   0  0  0  0  0  0  0  0  0  0  0  0
   17.6043   19.1177   22.9076 H   0  0  0  0  0  0  0  0  0  0  0  0
  1  2  1  0  0  0  0
  1  3  1  0  0  0  0
  1  4  1  0  0  0  0
  4  5  1  0  0  0  0
  4  6  1  0  0  0  0
  4  7  1  0  0  0  0
  7  8  1  0  0  0  0
  7  9  1  0  0  0  0
  7 10  1  0  0  0  0
 10 11  1  0  0  0  0
  1 12  1  0  0  0  0
 10 12  1  0  0  0  0
 12 13  1  0  0  0  0
 12 14  1  0  0  0  0
 10 15  1  0  0  0  0
 15 16  1  0  0  0  0
M  END
> <VConfSearch Rank>
696

> <Conf_Id>
20

> <Delta U+W>
-0.483

> <U+W>
2.527

> <U>
4.508

> <W>
-1.981

> <W(PB)>
-3.712

> <W(SA)>
1.732

> <Valence>
14.705

> <Coulomb>
-10.687

> <VdW>
0.490

> <VdW6>
-3.745

> <VdW12>
4.235

> <Bond>
0.068

> <Angle>
3.901

> <Pdih>
10.737

> <Idih>
0.000

> <Tether>
0.000

$$$$
VeraChem MOL file


 16 16  0  0  0  0  0  0  0  0999 V2000     
   19.2336   17.1194   22.5140 C   0  0  0  0  0  0  0  0  0  0  0  0
   19.2560   16.6886   21.5033 H   0  0  0  0  0  0  0  0  0  0  0  0
   19.1849   16.2951   23.2384 H   0  0  0  0  0  0  0  0  0  0  0  0
   18.0425   18.0795   22.6376 C   0  0  0  0  0  0  0  0  0  0  0  0
   17.1455   17.7003   22.1293 H   0  0  0  0  0  0  0  0  0  0  0  0
   17.7983   18.2310   23.6982 H   0  0  0  0  0  0  0  0  0  0  0  0
   18.5488   19.3987   22.0260 C   0  0  0  0  0  0  0  0  0  0  0  0
   18.0538   20.2671   22.4797 H   0  0  0  0  0  0  0  0  0  0  0  0
   18.3281   19.4086   20.9499 H   0  0  0  0  0  0  0  0  0  0  0  0
   20.0740   19.4291   22.2594 C   0  0  0  0  0  0  0  0  0  0  0  0
   20.3192   20.1516   23.0514 H   0  0  0  0  0  0  0  0  0  0  0  0
   20.4711   18.0119   22.7217 C   0  0  0  0  0  0  0  0  0  0  0  0
   21.3439   17.6256   22.1786 H   0  0  0  0  0  0  0  0  0  0  0  0
   20.7285   18.0424   23.7884 H   0  0  0  0  0  0  0  0  0  0  0  0
   20.7490   19.7582   21.0511 O   0  0  0  0  0  0  0  0  0  0  0  0
   20.4525   20.6583   20.7995 H   0  0  0  0  0  0  0  0  0  0  0  0
  1  2  1  0  0  0  0
  1  3  1  0  0  0  0
  1  4  1  0  0  0  0
  4  5  1  0  0  0  0
  4  6  1  0  0  0  0
  4  7  1  0  0  0  0
  7  8  1  0  0  0  0
  7  9  1  0  0  0  0
  7 10  1  0  0  0  0
 10 11  1  0  0  0  0
  1 12  1  0  0  0  0
 10 12  1  0  0  0  0
 12 13  1  0  0  0  0
 12 14  1  0  0  0  0
 10 15  1  0  0  0  0
 15 16  1  0  0  0  0
M  END
> <VConfSearch Rank>
697

> <Conf_Id>
59

> <Delta U+W>
0.000

> <U+W>
3.010

> <U>
5.843

> <W>
-2.833

> <W(PB)>
-4.568

> <W(SA)>
1.735

> <Valence>
13.789

> <Coulomb>
-8.574

> <VdW>
0.628

> <VdW6>
-3.284

> <VdW12>
3.912

> <Bond>
0.054

> <Angle>
4.034

> <Pdih>
9.702

> <Idih>
0.000

> <Tether>
0.000

$$$$
VeraChem MOL file


 16 16  0  0  0  0  0  0  0  0999 V2000     
   19.2804   17.4098   21.5274 C   0  0  0  0  0  0  0  0  0  0  0  0
   19.8100   16.4689   21.3248 H   0  0  0  0  0  0  0  0  0  0  0  0
   18.2763   17.3408   21.0861 H   0  0  0  0  0  0  0  0  0  0  0  0
   20.0145   18.6287   20.9520 C   0  0  0  0  0  0  0  0  0  0  0  0
   21.0973   18.5087   21.0969 H   0  0  0  0  0  0  0  0  0  0  0  0
   19.8240   18.7651   19.8788 H   0  0  0  0  0  0  0  0  0  0  0  0
   19.5100   19.8151   21.7939 C   0  0  0  0  0  0  0  0  0  0  0  0
   18.6180   20.2483   21.3228 H   0  0  0  0  0  0  0  0  0  0  0  0
   20.2661   20.6080   21.8692 H   0  0  0  0  0  0  0  0  0  0  0  0
   19.1225   19.2426   23.1730 C   0  0  0  0  0  0  0  0  0  0  0  0
   18.1033   19.5675   23.4279 H   0  0  0  0  0  0  0  0  0  0  0  0
   19.1680   17.7062   23.0341 C   0  0  0  0  0  0  0  0  0  0  0  0
   20.0500   17.3033   23.5503 H   0  0  0  0  0  0  0  0  0  0  0  0
   18.2777   17.2352   23.4702 H   0  0  0  0  0  0  0  0  0  0  0  0
   20.0504   19.6738   24.1614 O   0  0  0  0  0  0  0  0  0  0  0  0
   19.7640   19.2738   25.0096 H   0  0  0  0  0  0  0  0  0  0  0  0
  1  2  1  0  0  0  0
  1  3  1  0  0  0  0
  1  4  1  0  0  0  0
  4  5  1  0  0  0  0
  4  6  1  0  0  0  0
  4  7  1  0  0  0  0
  7  8  1  0  0  0  0
  7  9  1  0  0  0  0
  7 10  1  0  0  0  0
 10 11  1  0  0  0  0
  1 12  1  0  0  0  0
 10 12  1  0  0  0  0
 12 13  1  0  0  0  0
 12 14  1  0  0  0  0
 10 15  1  0  0  0  0
 15 16  1  0  0  0  0
M  END
> <VConfSearch Rank>
698

> <Conf_Id>
33

> <Delta U+W>
0.015

> <U+W>
3.025

> <U>
5.843

> <W>
-2.819

> <W(PB)>
-4.568

> <W(SA)>
1.750

> <Valence>
13.789

> <Coulomb>
-8.574

> <VdW>
0.628

> <VdW6>
-3.284

> <VdW12>
3.913

> <Bond>
0.054

> <Angle>
4.033

> <Pdih>
9.702

> <Idih>
0.000

> <Tether>
0.000

$$$$
VeraChem MOL file


 16 16  0  0  0  0  0  0  0  0999 V2000     
   18.7503   17.5101   22.6829 C   0  0  0  0  0  0  0  0  0  0  0  0
   19.2185   17.0298   23.5531 H   0  0  0  0  0  0  0  0  0  0  0  0
   17.8571   16.9267   22.4206 H   0  0  0  0  0  0  0  0  0  0  0  0
   19.7549   17.5682   21.5114 C   0  0  0  0  0  0  0  0  0  0  0  0
   20.7089   17.1151   21.8143 H   0  0  0  0  0  0  0  0  0  0  0  0
   19.3867   17.0160   20.6359 H   0  0  0  0  0  0  0  0  0  0  0  0
   19.9556   19.0625   21.1807 C   0  0  0  0  0  0  0  0  0  0  0  0
   19.3146   19.3400   20.3334 H   0  0  0  0  0  0  0  0  0  0  0  0
   20.9932   19.2918   20.9038 H   0  0  0  0  0  0  0  0  0  0  0  0
   19.5010   19.8380   22.4244 C   0  0  0  0  0  0  0  0  0  0  0  0
   19.1403   20.8437   22.1648 H   0  0  0  0  0  0  0  0  0  0  0  0
   18.3807   18.9714   23.0153 C   0  0  0  0  0  0  0  0  0  0  0  0
   18.2543   19.1337   24.0940 H   0  0  0  0  0  0  0  0  0  0  0  0
   17.4331   19.2308   22.5251 H   0  0  0  0  0  0  0  0  0  0  0  0
   20.5755   19.9085   23.3503 O   0  0  0  0  0  0  0  0  0  0  0  0
   20.8271   18.9773   23.5200 H   0  0  0  0  0  0  0  0  0  0  0  0
  1  2  1  0  0  0  0
  1  3  1  0  0  0  0
  1  4  1  0  0  0  0
  4  5  1  0  0  0  0
  4  6  1  0  0  0  0
  4  7  1  0  0  0  0
  7  8  1  0  0  0  0
  7  9  1  0  0  0  0
  7 10  1  0  0  0  0
 10 11  1  0  0  0  0
  1 12  1  0  0  0  0
 10 12  1  0  0  0  0
 12 13  1  0  0  0  0
 12 14  1  0  0  0  0
 10 15  1  0  0  0  0
 15 16  1  0  0  0  0
M  END
> <VConfSearch Rank>
699

> <Conf_Id>
20

> <Delta U+W>
-0.483

> <U+W>
2.527

> <U>
4.508

> <W>
-1.981

> <W(PB)>
-3.712

> <W(SA)>
1.732

> <Valence>
14.705

> <Coulomb>
-10.687

> <VdW>
0.490

> <VdW6>
-3.745

> <VdW12>
4.235

> <Bond>
0.068

> <Angle>
3.901

> <Pdih>
10.737

> <Idih>
0.000

> <Tether>
0.000

$$$$
VeraChem MOL file


 16 16  0  0  0  0  0  0  0  0999 V2000     
   18.5348   18.8854   21.1626 C   0  0  0  0  0  0  0  0  0  0  0  0
   17.7128   18.1563   21.1816 H   0  0  0  0  0  0  0  0  0  0  0  0
   18.3596   19.5798   20.3297 H   0  0  0  0  0  0  0  0  0  0  0  0
   19.8745   18.1469   21.0382 C   0  0  0  0  0  0  0  0  0  0  0  0
   19.8181   17.2916   20.3512 H   0  0  0  0  0  0  0  0  0  0  0  0
   20.6439   18.8372   20.6650 H   0  0  0  0  0  0  0  0  0  0  0  0
   20.2120   17.7203   22.4785 C   0  0  0  0  0  0  0  0  0  0  0  0
   21.2967   17.6586   22.6349 H   0  0  0  0  0  0  0  0  0  0  0  0
   19.7862   16.7263   22.6722 H   0  0  0  0  0  0  0  0  0  0  0  0
   19.5639   18.7697   23.4061 C   0  0  0  0  0  0  0  0  0  0  0  0
   20.3377   19.4257   23.8308 H   0  0  0  0  0  0  0  0  0  0  0  0
   18.6166   19.6058   22.5210 C   0  0  0  0  0  0  0  0  0  0  0  0
   17.6236   19.7290   22.9737 H   0  0  0  0  0  0  0  0  0  0  0  0
   19.0465   20.6063   22.3822 H   0  0  0  0  0  0  0  0  0  0  0  0
   18.8284   18.1245   24.4389 O   0  0  0  0  0  0  0  0  0  0  0  0
   19.4743   17.6021   24.9599 H   0  0  0  0  0  0  0  0  0  0  0  0
  1  2  1  0  0  0  0
  1  3  1  0  0  0  0
  1  4  1  0  0  0  0
  4  5  1  0  0  0  0
  4  6  1  0  0  0  0
  4  7  1  0  0  0  0
  7  8  1  0  0  0  0
  7  9  1  0  0  0  0
  7 10  1  0  0  0  0
 10 11  1  0  0  0  0
  1 12  1  0  0  0  0
 10 12  1  0  0  0  0
 12 13  1  0  0  0  0
 12 14  1  0  0  0  0
 10 15  1  0  0  0  0
 15 16  1  0  0  0  0
M  END
> <VConfSearch Rank>
700

> <Conf_Id>
59

> <Delta U+W>
0.000

> <U+W>
3.010

> <U>
5.843

> <W>
-2.833

> <W(PB)>
-4.568

> <W(SA)>
1.735

> <Valence>
13.789

> <Coulomb>
-8.574

> <VdW>
0.628

> <VdW6>
-3.284

> <VdW12>
3.912

> <Bond>
0.054

> <Angle>
4.034

> <Pdih>
9.702

> <Idih>
0.000

> <Tether>
0.000

$$$$
VeraChem MOL file


 16 16  0  0  0  0  0  0  0  0999 V2000     
   18.0846   18.2345   22.5115 C   0  0  0  0  0  0  0  0  0  0  0  0
   17.0885   18.4327   22.0929 H   0  0  0  0  0  0  0  0  0  0  0  0
   17.9932   17.4223   23.2460 H   0  0  0  0  0  0  0  0  0  0  0  0
   18.6924   19.4729   23.1843 C   0  0  0  0  0  0  0  0  0  0  0  0
   18.4614   20.3667   22.5880 H   0  0  0  0  0  0  0  0  0  0  0  0
   18.3079   19.6290   24.2014 H   0  0  0  0  0  0  0  0  0  0  0  0
   20.2106   19.2170   23.1629 C   0  0  0  0  0  0  0  0  0  0  0  0
   20.5084   18.6899   24.0786 H   0  0  0  0  0  0  0  0  0  0  0  0
   20.7784   20.1560   23.1186 H   0  0  0  0  0  0  0  0  0  0  0  0
   20.4863   18.3082   21.9472 C   0  0  0  0  0  0  0  0  0  0  0  0
   21.0784   17.4394   22.2699 H   0  0  0  0  0  0  0  0  0  0  0  0
   19.1082   17.8453   21.4292 C   0  0  0  0  0  0  0  0  0  0  0  0
   18.8604   18.3623   20.4922 H   0  0  0  0  0  0  0  0  0  0  0  0
   19.0930   16.7655   21.2326 H   0  0  0  0  0  0  0  0  0  0  0  0
   21.1715   19.0367   20.9354 O   0  0  0  0  0  0  0  0  0  0  0  0
   21.3095   18.4177   20.1876 H   0  0  0  0  0  0  0  0  0  0  0  0
  1  2  1  0  0  0  0
  1  3  1  0  0  0  0
  1  4  1  0  0  0  0
  4  5  1  0  0  0  0
  4  6  1  0  0  0  0
  4  7  1  0  0  0  0
  7  8  1  0  0  0  0
  7  9  1  0  0  0  0
  7 10  1  0  0  0  0
 10 11  1  0  0  0  0
  1 12  1  0  0  0  0
 10 12  1  0  0  0  0
 12 13  1  0  0  0  0
 12 14  1  0  0  0  0
 10 15  1  0  0  0  0
 15 16  1  0  0  0  0
M  END
> <VConfSearch Rank>
701

> <Conf_Id>
33

> <Delta U+W>
0.015

> <U+W>
3.025

> <U>
5.843

> <W>
-2.819

> <W(PB)>
-4.568

> <W(SA)>
1.750

> <Valence>
13.789

> <Coulomb>
-8.574

> <VdW>
0.628

> <VdW6>
-3.284

> <VdW12>
3.913

> <Bond>
0.054

> <Angle>
4.033

> <Pdih>
9.702

> <Idih>
0.000

> <Tether>
0.000

$$$$
VeraChem MOL file


 16 16  0  0  0  0  0  0  0  0999 V2000     
   18.3894   19.3868   22.7100 C   0  0  0  0  0  0  0  0  0  0  0  0
   17.4481   19.2911   22.1514 H   0  0  0  0  0  0  0  0  0  0  0  0
   18.2247   20.1115   23.5191 H   0  0  0  0  0  0  0  0  0  0  0  0
   19.5194   19.8424   21.7609 C   0  0  0  0  0  0  0  0  0  0  0  0
   19.1247   19.9682   20.7433 H   0  0  0  0  0  0  0  0  0  0  0  0
   19.9464   20.8049   22.0742 H   0  0  0  0  0  0  0  0  0  0  0  0
   20.5869   18.7278   21.7848 C   0  0  0  0  0  0  0  0  0  0  0  0
   21.3874   19.0014   22.4848 H   0  0  0  0  0  0  0  0  0  0  0  0
   21.0448   18.5688   20.7993 H   0  0  0  0  0  0  0  0  0  0  0  0
   19.8775   17.4707   22.3057 C   0  0  0  0  0  0  0  0  0  0  0  0
   20.5779   16.7919   22.8134 H   0  0  0  0  0  0  0  0  0  0  0  0
   18.8172   18.0146   23.2726 C   0  0  0  0  0  0  0  0  0  0  0  0
   17.9675   17.3284   23.3870 H   0  0  0  0  0  0  0  0  0  0  0  0
   19.2730   18.1498   24.2623 H   0  0  0  0  0  0  0  0  0  0  0  0
   19.2317   16.8158   21.2237 O   0  0  0  0  0  0  0  0  0  0  0  0
   18.6353   17.4897   20.8373 H   0  0  0  0  0  0  0  0  0  0  0  0
  1  2  1  0  0  0  0
  1  3  1  0  0  0  0
  1  4  1  0  0  0  0
  4  5  1  0  0  0  0
  4  6  1  0  0  0  0
  4  7  1  0  0  0  0
  7  8  1  0  0  0  0
  7  9  1  0  0  0  0
  7 10  1  0  0  0  0
 10 11  1  0  0  0  0
  1 12  1  0  0  0  0
 10 12  1  0  0  0  0
 12 13  1  0  0  0  0
 12 14  1  0  0  0  0
 10 15  1  0  0  0  0
 15 16  1  0  0  0  0
M  END
> <VConfSearch Rank>
702

> <Conf_Id>
20

> <Delta U+W>
-0.483

> <U+W>
2.527

> <U>
4.508

> <W>
-1.981

> <W(PB)>
-3.712

> <W(SA)>
1.732

> <Valence>
14.705

> <Coulomb>
-10.687

> <VdW>
0.490

> <VdW6>
-3.745

> <VdW12>
4.235

> <Bond>
0.068

> <Angle>
3.901

> <Pdih>
10.737

> <Idih>
0.000

> <Tether>
0.000

$$$$
VeraChem MOL file


 16 16  0  0  0  0  0  0  0  0999 V2000     
   19.0359   18.4039   20.9044 C   0  0  0  0  0  0  0  0  0  0  0  0
   18.1338   17.7765   20.8843 H   0  0  0  0  0  0  0  0  0  0  0  0
   19.2760   18.6946   19.8727 H   0  0  0  0  0  0  0  0  0  0  0  0
   20.1813   17.6363   21.5788 C   0  0  0  0  0  0  0  0  0  0  0  0
   20.1973   16.5752   21.2951 H   0  0  0  0  0  0  0  0  0  0  0  0
   21.1439   18.0829   21.2934 H   0  0  0  0  0  0  0  0  0  0  0  0
   19.9409   17.8361   23.0864 C   0  0  0  0  0  0  0  0  0  0  0  0
   20.8825   17.8090   23.6498 H   0  0  0  0  0  0  0  0  0  0  0  0
   19.2993   17.0275   23.4623 H   0  0  0  0  0  0  0  0  0  0  0  0
   19.2290   19.1971   23.2366 C   0  0  0  0  0  0  0  0  0  0  0  0
   19.9269   19.9442   23.6422 H   0  0  0  0  0  0  0  0  0  0  0  0
   18.7974   19.6207   21.8174 C   0  0  0  0  0  0  0  0  0  0  0  0
   17.7516   19.9540   21.7819 H   0  0  0  0  0  0  0  0  0  0  0  0
   19.4258   20.4580   21.4871 H   0  0  0  0  0  0  0  0  0  0  0  0
   18.0889   19.0647   24.0771 O   0  0  0  0  0  0  0  0  0  0  0  0
   18.4191   18.7850   24.9570 H   0  0  0  0  0  0  0  0  0  0  0  0
  1  2  1  0  0  0  0
  1  3  1  0  0  0  0
  1  4  1  0  0  0  0
  4  5  1  0  0  0  0
  4  6  1  0  0  0  0
  4  7  1  0  0  0  0
  7  8  1  0  0  0  0
  7  9  1  0  0  0  0
  7 10  1  0  0  0  0
 10 11  1  0  0  0  0
  1 12  1  0  0  0  0
 10 12  1  0  0  0  0
 12 13  1  0  0  0  0
 12 14  1  0  0  0  0
 10 15  1  0  0  0  0
 15 16  1  0  0  0  0
M  END
> <VConfSearch Rank>
703

> <Conf_Id>
59

> <Delta U+W>
0.000

> <U+W>
3.010

> <U>
5.843

> <W>
-2.833

> <W(PB)>
-4.568

> <W(SA)>
1.735

> <Valence>
13.789

> <Coulomb>
-8.574

> <VdW>
0.628

> <VdW6>
-3.284

> <VdW12>
3.912

> <Bond>
0.054

> <Angle>
4.034

> <Pdih>
9.702

> <Idih>
0.000

> <Tether>
0.000

$$$$
VeraChem MOL file


 16 16  0  0  0  0  0  0  0  0999 V2000     
   19.3816   19.7744   21.4528 C   0  0  0  0  0  0  0  0  0  0  0  0
   19.9000   20.7326   21.3118 H   0  0  0  0  0  0  0  0  0  0  0  0
   18.6699   19.6439   20.6258 H   0  0  0  0  0  0  0  0  0  0  0  0
   18.6350   19.7060   22.7921 C   0  0  0  0  0  0  0  0  0  0  0  0
   19.2422   20.1785   23.5768 H   0  0  0  0  0  0  0  0  0  0  0  0
   17.6621   20.2147   22.7566 H   0  0  0  0  0  0  0  0  0  0  0  0
   18.5002   18.1996   23.0814 C   0  0  0  0  0  0  0  0  0  0  0  0
   17.5642   17.8235   22.6481 H   0  0  0  0  0  0  0  0  0  0  0  0
   18.4742   17.9958   24.1602 H   0  0  0  0  0  0  0  0  0  0  0  0
   19.6904   17.5094   22.3836 C   0  0  0  0  0  0  0  0  0  0  0  0
   19.3172   16.6834   21.7608 H   0  0  0  0  0  0  0  0  0  0  0  0
   20.3550   18.5823   21.4954 C   0  0  0  0  0  0  0  0  0  0  0  0
   21.3070   18.9062   21.9375 H   0  0  0  0  0  0  0  0  0  0  0  0
   20.5642   18.1992   20.4882 H   0  0  0  0  0  0  0  0  0  0  0  0
   20.6165   17.0312   23.3519 O   0  0  0  0  0  0  0  0  0  0  0  0
   21.3527   16.6151   22.8554 H   0  0  0  0  0  0  0  0  0  0  0  0
  1  2  1  0  0  0  0
  1  3  1  0  0  0  0
  1  4  1  0  0  0  0
  4  5  1  0  0  0  0
  4  6  1  0  0  0  0
  4  7  1  0  0  0  0
  7  8  1  0  0  0  0
  7  9  1  0  0  0  0
  7 10  1  0  0  0  0
 10 11  1  0  0  0  0
  1 12  1  0  0  0  0
 10 12  1  0  0  0  0
 12 13  1  0  0  0  0
 12 14  1  0  0  0  0
 10 15  1  0  0  0  0
 15 16  1  0  0  0  0
M  END
> <VConfSearch Rank>
704

> <Conf_Id>
33

> <Delta U+W>
0.015

> <U+W>
3.025

> <U>
5.843

> <W>
-2.819

> <W(PB)>
-4.568

> <W(SA)>
1.750

> <Valence>
13.789

> <Coulomb>
-8.574

> <VdW>
0.628

> <VdW6>
-3.284

> <VdW12>
3.913

> <Bond>
0.054

> <Angle>
4.033

> <Pdih>
9.702

> <Idih>
0.000

> <Tether>
0.000

$$$$
VeraChem MOL file


 16 16  0  0  0  0  0  0  0  0999 V2000     
   19.2886   17.2910   22.4490 C   0  0  0  0  0  0  0  0  0  0  0  0
   20.0141   16.8880   23.1690 H   0  0  0  0  0  0  0  0  0  0  0  0
   18.6677   16.4552   22.0983 H   0  0  0  0  0  0  0  0  0  0  0  0
   20.0322   17.9752   21.2812 C   0  0  0  0  0  0  0  0  0  0  0  0
   21.1176   17.9025   21.4354 H   0  0  0  0  0  0  0  0  0  0  0  0
   19.7995   17.4980   20.3194 H   0  0  0  0  0  0  0  0  0  0  0  0
   19.5907   19.4542   21.2879 C   0  0  0  0  0  0  0  0  0  0  0  0
   18.7895   19.6013   20.5516 H   0  0  0  0  0  0  0  0  0  0  0  0
   20.4122   20.1351   21.0282 H   0  0  0  0  0  0  0  0  0  0  0  0
   19.0331   19.7251   22.6917 C   0  0  0  0  0  0  0  0  0  0  0  0
   18.2790   20.5253   22.6802 H   0  0  0  0  0  0  0  0  0  0  0  0
   18.4247   18.3819   23.1168 C   0  0  0  0  0  0  0  0  0  0  0  0
   18.3842   18.2705   24.2086 H   0  0  0  0  0  0  0  0  0  0  0  0
   17.3966   18.3198   22.7363 H   0  0  0  0  0  0  0  0  0  0  0  0
   20.1041   20.0509   23.5655 O   0  0  0  0  0  0  0  0  0  0  0  0
   20.7181   19.2898   23.5108 H   0  0  0  0  0  0  0  0  0  0  0  0
  1  2  1  0  0  0  0
  1  3  1  0  0  0  0
  1  4  1  0  0  0  0
  4  5  1  0  0  0  0
  4  6  1  0  0  0  0
  4  7  1  0  0  0  0
  7  8  1  0  0  0  0
  7  9  1  0  0  0  0
  7 10  1  0  0  0  0
 10 11  1  0  0  0  0
  1 12  1  0  0  0  0
 10 12  1  0  0  0  0
 12 13  1  0  0  0  0
 12 14  1  0  0  0  0
 10 15  1  0  0  0  0
 15 16  1  0  0  0  0
M  END
> <VConfSearch Rank>
705

> <Conf_Id>
20

> <Delta U+W>
-0.483

> <U+W>
2.527

> <U>
4.508

> <W>
-1.981

> <W(PB)>
-3.712

> <W(SA)>
1.732

> <Valence>
14.705

> <Coulomb>
-10.687

> <VdW>
0.490

> <VdW6>
-3.745

> <VdW12>
4.235

> <Bond>
0.068

> <Angle>
3.901

> <Pdih>
10.737

> <Idih>
0.000

> <Tether>
0.000

$$$$
VeraChem MOL file


 16 16  0  0  0  0  0  0  0  0999 V2000     
   18.8670   17.2731   21.8330 C   0  0  0  0  0  0  0  0  0  0  0  0
   17.7856   17.4154   21.6988 H   0  0  0  0  0  0  0  0  0  0  0  0
   19.1246   16.2589   21.4987 H   0  0  0  0  0  0  0  0  0  0  0  0
   19.2398   17.5188   23.3014 C   0  0  0  0  0  0  0  0  0  0  0  0
   18.4926   17.1116   23.9961 H   0  0  0  0  0  0  0  0  0  0  0  0
   20.2071   17.0457   23.5213 H   0  0  0  0  0  0  0  0  0  0  0  0
   19.3710   19.0488   23.4126 C   0  0  0  0  0  0  0  0  0  0  0  0
   20.0924   19.3342   24.1890 H   0  0  0  0  0  0  0  0  0  0  0  0
   18.3967   19.4782   23.6830 H   0  0  0  0  0  0  0  0  0  0  0  0
   19.8082   19.5501   22.0200 C   0  0  0  0  0  0  0  0  0  0  0  0
   20.8674   19.8453   22.0418 H   0  0  0  0  0  0  0  0  0  0  0  0
   19.6307   18.3602   21.0544 C   0  0  0  0  0  0  0  0  0  0  0  0
   19.1026   18.6450   20.1346 H   0  0  0  0  0  0  0  0  0  0  0  0
   20.6202   17.9814   20.7674 H   0  0  0  0  0  0  0  0  0  0  0  0
   18.9901   20.6399   21.6114 O   0  0  0  0  0  0  0  0  0  0  0  0
   19.1336   21.3589   22.2626 H   0  0  0  0  0  0  0  0  0  0  0  0
  1  2  1  0  0  0  0
  1  3  1  0  0  0  0
  1  4  1  0  0  0  0
  4  5  1  0  0  0  0
  4  6  1  0  0  0  0
  4  7  1  0  0  0  0
  7  8  1  0  0  0  0
  7  9  1  0  0  0  0
  7 10  1  0  0  0  0
 10 11  1  0  0  0  0
  1 12  1  0  0  0  0
 10 12  1  0  0  0  0
 12 13  1  0  0  0  0
 12 14  1  0  0  0  0
 10 15  1  0  0  0  0
 15 16  1  0  0  0  0
M  END
> <VConfSearch Rank>
706

> <Conf_Id>
59

> <Delta U+W>
0.000

> <U+W>
3.010

> <U>
5.843

> <W>
-2.833

> <W(PB)>
-4.568

> <W(SA)>
1.735

> <Valence>
13.789

> <Coulomb>
-8.574

> <VdW>
0.628

> <VdW6>
-3.284

> <VdW12>
3.912

> <Bond>
0.054

> <Angle>
4.034

> <Pdih>
9.702

> <Idih>
0.000

> <Tether>
0.000

$$$$
VeraChem MOL file


 16 16  0  0  0  0  0  0  0  0999 V2000     
   19.5560   17.2915   22.8451 C   0  0  0  0  0  0  0  0  0  0  0  0
   20.0935   16.7631   23.6442 H   0  0  0  0  0  0  0  0  0  0  0  0
   18.8022   16.6090   22.4285 H   0  0  0  0  0  0  0  0  0  0  0  0
   20.4934   17.7695   21.7278 C   0  0  0  0  0  0  0  0  0  0  0  0
   21.4294   18.1423   22.1666 H   0  0  0  0  0  0  0  0  0  0  0  0
   20.7412   16.9694   21.0171 H   0  0  0  0  0  0  0  0  0  0  0  0
   19.7368   18.9336   21.0617 C   0  0  0  0  0  0  0  0  0  0  0  0
   19.1132   18.5481   20.2446 H   0  0  0  0  0  0  0  0  0  0  0  0
   20.4274   19.6728   20.6344 H   0  0  0  0  0  0  0  0  0  0  0  0
   18.8244   19.5428   22.1463 C   0  0  0  0  0  0  0  0  0  0  0  0
   17.7969   19.6114   21.7601 H   0  0  0  0  0  0  0  0  0  0  0  0
   18.8735   18.5766   23.3486 C   0  0  0  0  0  0  0  0  0  0  0  0
   19.4711   19.0107   24.1617 H   0  0  0  0  0  0  0  0  0  0  0  0
   17.8695   18.3700   23.7414 H   0  0  0  0  0  0  0  0  0  0  0  0
   19.3056   20.8261   22.5278 O   0  0  0  0  0  0  0  0  0  0  0  0
   18.6986   21.1589   23.2224 H   0  0  0  0  0  0  0  0  0  0  0  0
  1  2  1  0  0  0  0
  1  3  1  0  0  0  0
  1  4  1  0  0  0  0
  4  5  1  0  0  0  0
  4  6  1  0  0  0  0
  4  7  1  0  0  0  0
  7  8  1  0  0  0  0
  7  9  1  0  0  0  0
  7 10  1  0  0  0  0
 10 11  1  0  0  0  0
  1 12  1  0  0  0  0
 10 12  1  0  0  0  0
 12 13  1  0  0  0  0
 12 14  1  0  0  0  0
 10 15  1  0  0  0  0
 15 16  1  0  0  0  0
M  END
> <VConfSearch Rank>
707

> <Conf_Id>
33

> <Delta U+W>
0.015

> <U+W>
3.025

> <U>
5.843

> <W>
-2.819

> <W(PB)>
-4.568

> <W(SA)>
1.750

> <Valence>
13.789

> <Coulomb>
-8.574

> <VdW>
0.628

> <VdW6>
-3.284

> <VdW12>
3.913

> <Bond>
0.054

> <Angle>
4.033

> <Pdih>
9.702

> <Idih>
0.000

> <Tether>
0.000

$$$$
VeraChem MOL file


 16 16  0  0  0  0  0  0  0  0999 V2000     
   19.7611   18.1601   21.0599 C   0  0  0  0  0  0  0  0  0  0  0  0
   20.7842   17.7604   21.0328 H   0  0  0  0  0  0  0  0  0  0  0  0
   19.3337   18.0503   20.0538 H   0  0  0  0  0  0  0  0  0  0  0  0
   19.7863   19.6378   21.5080 C   0  0  0  0  0  0  0  0  0  0  0  0
   20.8216   19.9536   21.6968 H   0  0  0  0  0  0  0  0  0  0  0  0
   19.3710   20.3009   20.7367 H   0  0  0  0  0  0  0  0  0  0  0  0
   18.9597   19.7147   22.8093 C   0  0  0  0  0  0  0  0  0  0  0  0
   17.9401   20.0494   22.5770 H   0  0  0  0  0  0  0  0  0  0  0  0
   19.3869   20.4221   23.5325 H   0  0  0  0  0  0  0  0  0  0  0  0
   18.9011   18.2839   23.3608 C   0  0  0  0  0  0  0  0  0  0  0  0
   17.9940   18.1179   23.9596 H   0  0  0  0  0  0  0  0  0  0  0  0
   18.9193   17.3998   22.1066 C   0  0  0  0  0  0  0  0  0  0  0  0
   19.3161   16.3964   22.3107 H   0  0  0  0  0  0  0  0  0  0  0  0
   17.8919   17.2839   21.7370 H   0  0  0  0  0  0  0  0  0  0  0  0
   20.0685   18.0304   24.1287 O   0  0  0  0  0  0  0  0  0  0  0  0
   20.8162   18.2021   23.5199 H   0  0  0  0  0  0  0  0  0  0  0  0
  1  2  1  0  0  0  0
  1  3  1  0  0  0  0
  1  4  1  0  0  0  0
  4  5  1  0  0  0  0
  4  6  1  0  0  0  0
  4  7  1  0  0  0  0
  7  8  1  0  0  0  0
  7  9  1  0  0  0  0
  7 10  1  0  0  0  0
 10 11  1  0  0  0  0
  1 12  1  0  0  0  0
 10 12  1  0  0  0  0
 12 13  1  0  0  0  0
 12 14  1  0  0  0  0
 10 15  1  0  0  0  0
 15 16  1  0  0  0  0
M  END
> <VConfSearch Rank>
708

> <Conf_Id>
20

> <Delta U+W>
-0.483

> <U+W>
2.527

> <U>
4.508

> <W>
-1.981

> <W(PB)>
-3.712

> <W(SA)>
1.732

> <Valence>
14.705

> <Coulomb>
-10.687

> <VdW>
0.490

> <VdW6>
-3.745

> <VdW12>
4.235

> <Bond>
0.068

> <Angle>
3.901

> <Pdih>
10.737

> <Idih>
0.000

> <Tether>
0.000

$$$$
VeraChem MOL file


 16 16  0  0  0  0  0  0  0  0999 V2000     
   19.0150   17.1417   22.3461 C   0  0  0  0  0  0  0  0  0  0  0  0
   19.9740   16.6188   22.4666 H   0  0  0  0  0  0  0  0  0  0  0  0
   18.2111   16.3931   22.3577 H   0  0  0  0  0  0  0  0  0  0  0  0
   19.0350   17.9602   21.0478 C   0  0  0  0  0  0  0  0  0  0  0  0
   19.5333   17.4282   20.2260 H   0  0  0  0  0  0  0  0  0  0  0  0
   18.0053   18.1855   20.7370 H   0  0  0  0  0  0  0  0  0  0  0  0
   19.7615   19.2634   21.4278 C   0  0  0  0  0  0  0  0  0  0  0  0
   19.4187   20.1071   20.8150 H   0  0  0  0  0  0  0  0  0  0  0  0
   20.8401   19.1404   21.2595 H   0  0  0  0  0  0  0  0  0  0  0  0
   19.4775   19.4986   22.9264 C   0  0  0  0  0  0  0  0  0  0  0  0
   18.7564   20.3199   23.0484 H   0  0  0  0  0  0  0  0  0  0  0  0
   18.8564   18.1916   23.4612 C   0  0  0  0  0  0  0  0  0  0  0  0
   19.3245   17.8605   24.3978 H   0  0  0  0  0  0  0  0  0  0  0  0
   17.7900   18.3579   23.6618 H   0  0  0  0  0  0  0  0  0  0  0  0
   20.6882   19.7848   23.6165 O   0  0  0  0  0  0  0  0  0  0  0  0
   21.0425   20.6138   23.2308 H   0  0  0  0  0  0  0  0  0  0  0  0
  1  2  1  0  0  0  0
  1  3  1  0  0  0  0
  1  4  1  0  0  0  0
  4  5  1  0  0  0  0
  4  6  1  0  0  0  0
  4  7  1  0  0  0  0
  7  8  1  0  0  0  0
  7  9  1  0  0  0  0
  7 10  1  0  0  0  0
 10 11  1  0  0  0  0
  1 12  1  0  0  0  0
 10 12  1  0  0  0  0
 12 13  1  0  0  0  0
 12 14  1  0  0  0  0
 10 15  1  0  0  0  0
 15 16  1  0  0  0  0
M  END
> <VConfSearch Rank>
709

> <Conf_Id>
59

> <Delta U+W>
0.000

> <U+W>
3.010

> <U>
5.843

> <W>
-2.833

> <W(PB)>
-4.568

> <W(SA)>
1.735

> <Valence>
13.789

> <Coulomb>
-8.574

> <VdW>
0.628

> <VdW6>
-3.284

> <VdW12>
3.912

> <Bond>
0.054

> <Angle>
4.034

> <Pdih>
9.702

> <Idih>
0.000

> <Tether>
0.000

$$$$
VeraChem MOL file


 16 16  0  0  0  0  0  0  0  0999 V2000     
   18.0659   18.3300   22.5362 C   0  0  0  0  0  0  0  0  0  0  0  0
   17.3652   18.2642   23.3797 H   0  0  0  0  0  0  0  0  0  0  0  0
   17.4887   18.2587   21.6038 H   0  0  0  0  0  0  0  0  0  0  0  0
   19.1282   17.2228   22.5717 C   0  0  0  0  0  0  0  0  0  0  0  0
   19.4541   17.0582   23.6083 H   0  0  0  0  0  0  0  0  0  0  0  0
   18.7546   16.2699   22.1730 H   0  0  0  0  0  0  0  0  0  0  0  0
   20.2997   17.7863   21.7463 C   0  0  0  0  0  0  0  0  0  0  0  0
   20.1770   17.5045   20.6925 H   0  0  0  0  0  0  0  0  0  0  0  0
   21.2640   17.3875   22.0884 H   0  0  0  0  0  0  0  0  0  0  0  0
   20.2248   19.3223   21.8683 C   0  0  0  0  0  0  0  0  0  0  0  0
   20.2536   19.7684   20.8634 H   0  0  0  0  0  0  0  0  0  0  0  0
   18.8762   19.6391   22.5484 C   0  0  0  0  0  0  0  0  0  0  0  0
   19.0391   19.9559   23.5876 H   0  0  0  0  0  0  0  0  0  0  0  0
   18.3425   20.4460   22.0298 H   0  0  0  0  0  0  0  0  0  0  0  0
   21.3011   19.8043   22.6640 O   0  0  0  0  0  0  0  0  0  0  0  0
   21.1978   20.7779   22.7168 H   0  0  0  0  0  0  0  0  0  0  0  0
  1  2  1  0  0  0  0
  1  3  1  0  0  0  0
  1  4  1  0  0  0  0
  4  5  1  0  0  0  0
  4  6  1  0  0  0  0
  4  7  1  0  0  0  0
  7  8  1  0  0  0  0
  7  9  1  0  0  0  0
  7 10  1  0  0  0  0
 10 11  1  0  0  0  0
  1 12  1  0  0  0  0
 10 12  1  0  0  0  0
 12 13  1  0  0  0  0
 12 14  1  0  0  0  0
 10 15  1  0  0  0  0
 15 16  1  0  0  0  0
M  END
> <VConfSearch Rank>
710

> <Conf_Id>
33

> <Delta U+W>
0.015

> <U+W>
3.025

> <U>
5.843

> <W>
-2.819

> <W(PB)>
-4.568

> <W(SA)>
1.750

> <Valence>
13.789

> <Coulomb>
-8.574

> <VdW>
0.628

> <VdW6>
-3.284

> <VdW12>
3.913

> <Bond>
0.054

> <Angle>
4.033

> <Pdih>
9.702

> <Idih>
0.000

> <Tether>
0.000

$$$$
VeraChem MOL file


 16 16  0  0  0  0  0  0  0  0999 V2000     
   19.6760   19.9123   22.2265 C   0  0  0  0  0  0  0  0  0  0  0  0
   18.8957   20.5648   22.6418 H   0  0  0  0  0  0  0  0  0  0  0  0
   20.5118   20.5516   21.9107 H   0  0  0  0  0  0  0  0  0  0  0  0
   19.1058   19.0982   21.0445 C   0  0  0  0  0  0  0  0  0  0  0  0
   18.0497   19.3575   20.8871 H   0  0  0  0  0  0  0  0  0  0  0  0
   19.6440   19.3109   20.1106 H   0  0  0  0  0  0  0  0  0  0  0  0
   19.2371   17.6104   21.4340 C   0  0  0  0  0  0  0  0  0  0  0  0
   20.1432   17.1903   20.9776 H   0  0  0  0  0  0  0  0  0  0  0  0
   18.3821   17.0131   21.0903 H   0  0  0  0  0  0  0  0  0  0  0  0
   19.3894   17.5825   22.9608 C   0  0  0  0  0  0  0  0  0  0  0  0
   19.9550   16.7008   23.2949 H   0  0  0  0  0  0  0  0  0  0  0  0
   20.1317   18.8858   23.2853 C   0  0  0  0  0  0  0  0  0  0  0  0
   19.9381   19.2307   24.3098 H   0  0  0  0  0  0  0  0  0  0  0  0
   21.2119   18.7144   23.1890 H   0  0  0  0  0  0  0  0  0  0  0  0
   18.1022   17.6157   23.5598 O   0  0  0  0  0  0  0  0  0  0  0  0
   17.6780   18.4250   23.2073 H   0  0  0  0  0  0  0  0  0  0  0  0
  1  2  1  0  0  0  0
  1  3  1  0  0  0  0
  1  4  1  0  0  0  0
  4  5  1  0  0  0  0
  4  6  1  0  0  0  0
  4  7  1  0  0  0  0
  7  8  1  0  0  0  0
  7  9  1  0  0  0  0
  7 10  1  0  0  0  0
 10 11  1  0  0  0  0
  1 12  1  0  0  0  0
 10 12  1  0  0  0  0
 12 13  1  0  0  0  0
 12 14  1  0  0  0  0
 10 15  1  0  0  0  0
 15 16  1  0  0  0  0
M  END
> <VConfSearch Rank>
711

> <Conf_Id>
20

> <Delta U+W>
-0.483

> <U+W>
2.527

> <U>
4.508

> <W>
-1.981

> <W(PB)>
-3.712

> <W(SA)>
1.732

> <Valence>
14.705

> <Coulomb>
-10.687

> <VdW>
0.490

> <VdW6>
-3.745

> <VdW12>
4.235

> <Bond>
0.068

> <Angle>
3.901

> <Pdih>
10.737

> <Idih>
0.000

> <Tether>
0.000

$$$$
VeraChem MOL file


 16 16  0  0  0  0  0  0  0  0999 V2000     
   19.3985   19.5409   23.3811 C   0  0  0  0  0  0  0  0  0  0  0  0
   18.9989   19.0219   24.2635 H   0  0  0  0  0  0  0  0  0  0  0  0
   19.7073   20.5500   23.6859 H   0  0  0  0  0  0  0  0  0  0  0  0
   18.3372   19.5624   22.2726 C   0  0  0  0  0  0  0  0  0  0  0  0
   17.3268   19.7414   22.6647 H   0  0  0  0  0  0  0  0  0  0  0  0
   18.5718   20.3578   21.5515 H   0  0  0  0  0  0  0  0  0  0  0  0
   18.4664   18.1875   21.5918 C   0  0  0  0  0  0  0  0  0  0  0  0
   18.1788   18.2353   20.5335 H   0  0  0  0  0  0  0  0  0  0  0  0
   17.7995   17.4710   22.0906 H   0  0  0  0  0  0  0  0  0  0  0  0
   19.9382   17.7551   21.7607 C   0  0  0  0  0  0  0  0  0  0  0  0
   20.4702   17.8482   20.8027 H   0  0  0  0  0  0  0  0  0  0  0  0
   20.5610   18.7252   22.7858 C   0  0  0  0  0  0  0  0  0  0  0  0
   21.1275   18.1998   23.5662 H   0  0  0  0  0  0  0  0  0  0  0  0
   21.2550   19.3983   22.2658 H   0  0  0  0  0  0  0  0  0  0  0  0
   20.0049   16.4194   22.2459 O   0  0  0  0  0  0  0  0  0  0  0  0
   19.5877   15.8514   21.5641 H   0  0  0  0  0  0  0  0  0  0  0  0
  1  2  1  0  0  0  0
  1  3  1  0  0  0  0
  1  4  1  0  0  0  0
  4  5  1  0  0  0  0
  4  6  1  0  0  0  0
  4  7  1  0  0  0  0
  7  8  1  0  0  0  0
  7  9  1  0  0  0  0
  7 10  1  0  0  0  0
 10 11  1  0  0  0  0
  1 12  1  0  0  0  0
 10 12  1  0  0  0  0
 12 13  1  0  0  0  0
 12 14  1  0  0  0  0
 10 15  1  0  0  0  0
 15 16  1  0  0  0  0
M  END
> <VConfSearch Rank>
712

> <Conf_Id>
59

> <Delta U+W>
0.000

> <U+W>
3.010

> <U>
5.843

> <W>
-2.833

> <W(PB)>
-4.568

> <W(SA)>
1.735

> <Valence>
13.789

> <Coulomb>
-8.574

> <VdW>
0.628

> <VdW6>
-3.284

> <VdW12>
3.912

> <Bond>
0.054

> <Angle>
4.034

> <Pdih>
9.702

> <Idih>
0.000

> <Tether>
0.000

$$$$
VeraChem MOL file


 16 16  0  0  0  0  0  0  0  0999 V2000     
   20.4990   19.5929   22.3454 C   0  0  0  0  0  0  0  0  0  0  0  0
   21.1516   20.1522   21.6613 H   0  0  0  0  0  0  0  0  0  0  0  0
   20.6332   19.9994   23.3575 H   0  0  0  0  0  0  0  0  0  0  0  0
   20.8074   18.0893   22.3480 C   0  0  0  0  0  0  0  0  0  0  0  0
   21.0255   17.7564   21.3236 H   0  0  0  0  0  0  0  0  0  0  0  0
   21.6687   17.8388   22.9820 H   0  0  0  0  0  0  0  0  0  0  0  0
   19.5051   17.4298   22.8382 C   0  0  0  0  0  0  0  0  0  0  0  0
   19.5267   17.3402   23.9321 H   0  0  0  0  0  0  0  0  0  0  0  0
   19.3818   16.4207   22.4230 H   0  0  0  0  0  0  0  0  0  0  0  0
   18.3544   18.3742   22.4335 C   0  0  0  0  0  0  0  0  0  0  0  0
   17.7260   18.5787   23.3127 H   0  0  0  0  0  0  0  0  0  0  0  0
   19.0157   19.6791   21.9418 C   0  0  0  0  0  0  0  0  0  0  0  0
   18.9405   19.7555   20.8485 H   0  0  0  0  0  0  0  0  0  0  0  0
   18.5328   20.5644   22.3755 H   0  0  0  0  0  0  0  0  0  0  0  0
   17.5847   17.7902   21.3894 O   0  0  0  0  0  0  0  0  0  0  0  0
   16.8796   18.4340   21.1659 H   0  0  0  0  0  0  0  0  0  0  0  0
  1  2  1  0  0  0  0
  1  3  1  0  0  0  0
  1  4  1  0  0  0  0
  4  5  1  0  0  0  0
  4  6  1  0  0  0  0
  4  7  1  0  0  0  0
  7  8  1  0  0  0  0
  7  9  1  0  0  0  0
  7 10  1  0  0  0  0
 10 11  1  0  0  0  0
  1 12  1  0  0  0  0
 10 12  1  0  0  0  0
 12 13  1  0  0  0  0
 12 14  1  0  0  0  0
 10 15  1  0  0  0  0
 15 16  1  0  0  0  0
M  END
> <VConfSearch Rank>
713

> <Conf_Id>
33

> <Delta U+W>
0.015

> <U+W>
3.025

> <U>
5.843

> <W>
-2.819

> <W(PB)>
-4.568

> <W(SA)>
1.750

> <Valence>
13.789

> <Coulomb>
-8.574

> <VdW>
0.628

> <VdW6>
-3.284

> <VdW12>
3.913

> <Bond>
0.054

> <Angle>
4.033

> <Pdih>
9.702

> <Idih>
0.000

> <Tether>
0.000

$$$$
VeraChem MOL file


 16 16  0  0  0  0  0  0  0  0999 V2000     
   20.2921   19.2696   21.5404 C   0  0  0  0  0  0  0  0  0  0  0  0
   20.5769   18.7712   20.6036 H   0  0  0  0  0  0  0  0  0  0  0  0
   20.8557   20.2106   21.6021 H   0  0  0  0  0  0  0  0  0  0  0  0
   20.5960   18.3459   22.7402 C   0  0  0  0  0  0  0  0  0  0  0  0
   21.0289   17.4009   22.3841 H   0  0  0  0  0  0  0  0  0  0  0  0
   21.3179   18.8042   23.4300 H   0  0  0  0  0  0  0  0  0  0  0  0
   19.2471   18.0831   23.4429 C   0  0  0  0  0  0  0  0  0  0  0  0
   19.1401   18.7636   24.2979 H   0  0  0  0  0  0  0  0  0  0  0  0
   19.1685   17.0554   23.8219 H   0  0  0  0  0  0  0  0  0  0  0  0
   18.1594   18.4063   22.4097 C   0  0  0  0  0  0  0  0  0  0  0  0
   17.2247   18.7257   22.8926 H   0  0  0  0  0  0  0  0  0  0  0  0
   18.7711   19.5312   21.5639 C   0  0  0  0  0  0  0  0  0  0  0  0
   18.3405   19.5740   20.5546 H   0  0  0  0  0  0  0  0  0  0  0  0
   18.5719   20.4938   22.0532 H   0  0  0  0  0  0  0  0  0  0  0  0
   17.9421   17.2686   21.5879 O   0  0  0  0  0  0  0  0  0  0  0  0
   18.8189   17.0597   21.2049 H   0  0  0  0  0  0  0  0  0  0  0  0
  1  2  1  0  0  0  0
  1  3  1  0  0  0  0
  1  4  1  0  0  0  0
  4  5  1  0  0  0  0
  4  6  1  0  0  0  0
  4  7  1  0  0  0  0
  7  8  1  0  0  0  0
  7  9  1  0  0  0  0
  7 10  1  0  0  0  0
 10 11  1  0  0  0  0
  1 12  1  0  0  0  0
 10 12  1  0  0  0  0
 12 13  1  0  0  0  0
 12 14  1  0  0  0  0
 10 15  1  0  0  0  0
 15 16  1  0  0  0  0
M  END
> <VConfSearch Rank>
714

> <Conf_Id>
20

> <Delta U+W>
-0.483

> <U+W>
2.527

> <U>
4.508

> <W>
-1.981

> <W(PB)>
-3.712

> <W(SA)>
1.732

> <Valence>
14.705

> <Coulomb>
-10.687

> <VdW>
0.490

> <VdW6>
-3.745

> <VdW12>
4.235

> <Bond>
0.068

> <Angle>
3.901

> <Pdih>
10.737

> <Idih>
0.000

> <Tether>
0.000

$$$$
VeraChem MOL file


 16 16  0  0  0  0  0  0  0  0999 V2000     
   20.1261   19.5876   22.9893 C   0  0  0  0  0  0  0  0  0  0  0  0
   19.8205   19.5262   24.0431 H   0  0  0  0  0  0  0  0  0  0  0  0
   20.9105   20.3517   22.9024 H   0  0  0  0  0  0  0  0  0  0  0  0
   18.9031   19.9012   22.1165 C   0  0  0  0  0  0  0  0  0  0  0  0
   18.2297   20.6304   22.5872 H   0  0  0  0  0  0  0  0  0  0  0  0
   19.2328   20.3108   21.1516 H   0  0  0  0  0  0  0  0  0  0  0  0
   18.2273   18.5349   21.8989 C   0  0  0  0  0  0  0  0  0  0  0  0
   17.6923   18.5001   20.9411 H   0  0  0  0  0  0  0  0  0  0  0  0
   17.4966   18.3594   22.7002 H   0  0  0  0  0  0  0  0  0  0  0  0
   19.3513   17.4792   21.9596 C   0  0  0  0  0  0  0  0  0  0  0  0
   19.5662   17.0998   20.9499 H   0  0  0  0  0  0  0  0  0  0  0  0
   20.5983   18.2033   22.5078 C   0  0  0  0  0  0  0  0  0  0  0  0
   21.0867   17.6398   23.3140 H   0  0  0  0  0  0  0  0  0  0  0  0
   21.3276   18.3245   21.6963 H   0  0  0  0  0  0  0  0  0  0  0  0
   18.9798   16.4159   22.8286 O   0  0  0  0  0  0  0  0  0  0  0  0
   18.1809   16.0010   22.4398 H   0  0  0  0  0  0  0  0  0  0  0  0
  1  2  1  0  0  0  0
  1  3  1  0  0  0  0
  1  4  1  0  0  0  0
  4  5  1  0  0  0  0
  4  6  1  0  0  0  0
  4  7  1  0  0  0  0
  7  8  1  0  0  0  0
  7  9  1  0  0  0  0
  7 10  1  0  0  0  0
 10 11  1  0  0  0  0
  1 12  1  0  0  0  0
 10 12  1  0  0  0  0
 12 13  1  0  0  0  0
 12 14  1  0  0  0  0
 10 15  1  0  0  0  0
 15 16  1  0  0  0  0
M  END
> <VConfSearch Rank>
715

> <Conf_Id>
59

> <Delta U+W>
0.000

> <U+W>
3.010

> <U>
5.843

> <W>
-2.833

> <W(PB)>
-4.568

> <W(SA)>
1.735

> <Valence>
13.789

> <Coulomb>
-8.574

> <VdW>
0.628

> <VdW6>
-3.284

> <VdW12>
3.912

> <Bond>
0.054

> <Angle>
4.034

> <Pdih>
9.702

> <Idih>
0.000

> <Tether>
0.000

$$$$
VeraChem MOL file


 16 16  0  0  0  0  0  0  0  0999 V2000     
   18.9349   17.4516   21.6245 C   0  0  0  0  0  0  0  0  0  0  0  0
   18.8887   16.3628   21.7625 H   0  0  0  0  0  0  0  0  0  0  0  0
   18.2982   17.7168   20.7690 H   0  0  0  0  0  0  0  0  0  0  0  0
   20.3657   17.9487   21.3768 C   0  0  0  0  0  0  0  0  0  0  0  0
   21.0640   17.3976   22.0221 H   0  0  0  0  0  0  0  0  0  0  0  0
   20.6820   17.8140   20.3335 H   0  0  0  0  0  0  0  0  0  0  0  0
   20.3367   19.4303   21.7954 C   0  0  0  0  0  0  0  0  0  0  0  0
   20.0717   20.0523   20.9306 H   0  0  0  0  0  0  0  0  0  0  0  0
   21.3163   19.7664   22.1608 H   0  0  0  0  0  0  0  0  0  0  0  0
   19.2350   19.5630   22.8670 C   0  0  0  0  0  0  0  0  0  0  0  0
   18.5540   20.3806   22.5886 H   0  0  0  0  0  0  0  0  0  0  0  0
   18.4732   18.2209   22.8758 C   0  0  0  0  0  0  0  0  0  0  0  0
   18.7311   17.6426   23.7735 H   0  0  0  0  0  0  0  0  0  0  0  0
   17.3863   18.3739   22.8741 H   0  0  0  0  0  0  0  0  0  0  0  0
   19.8175   19.8052   24.1421 O   0  0  0  0  0  0  0  0  0  0  0  0
   19.0772   19.8691   24.7820 H   0  0  0  0  0  0  0  0  0  0  0  0
  1  2  1  0  0  0  0
  1  3  1  0  0  0  0
  1  4  1  0  0  0  0
  4  5  1  0  0  0  0
  4  6  1  0  0  0  0
  4  7  1  0  0  0  0
  7  8  1  0  0  0  0
  7  9  1  0  0  0  0
  7 10  1  0  0  0  0
 10 11  1  0  0  0  0
  1 12  1  0  0  0  0
 10 12  1  0  0  0  0
 12 13  1  0  0  0  0
 12 14  1  0  0  0  0
 10 15  1  0  0  0  0
 15 16  1  0  0  0  0
M  END
> <VConfSearch Rank>
716

> <Conf_Id>
33

> <Delta U+W>
0.015

> <U+W>
3.025

> <U>
5.843

> <W>
-2.819

> <W(PB)>
-4.568

> <W(SA)>
1.750

> <Valence>
13.789

> <Coulomb>
-8.574

> <VdW>
0.628

> <VdW6>
-3.284

> <VdW12>
3.913

> <Bond>
0.054

> <Angle>
4.033

> <Pdih>
9.702

> <Idih>
0.000

> <Tether>
0.000

$$$$
VeraChem MOL file


 16 16  0  0  0  0  0  0  0  0999 V2000     
   20.1561   19.2844   23.1098 C   0  0  0  0  0  0  0  0  0  0  0  0
   21.2322   19.1961   22.9062 H   0  0  0  0  0  0  0  0  0  0  0  0
   20.0346   19.9431   23.9807 H   0  0  0  0  0  0  0  0  0  0  0  0
   19.5536   17.8859   23.3671 C   0  0  0  0  0  0  0  0  0  0  0  0
   20.3384   17.1208   23.2891 H   0  0  0  0  0  0  0  0  0  0  0  0
   19.1161   17.8133   24.3722 H   0  0  0  0  0  0  0  0  0  0  0  0
   18.4823   17.6638   22.2783 C   0  0  0  0  0  0  0  0  0  0  0  0
   17.4911   17.9047   22.6845 H   0  0  0  0  0  0  0  0  0  0  0  0
   18.4556   16.6238   21.9267 H   0  0  0  0  0  0  0  0  0  0  0  0
   18.8118   18.6506   21.1501 C   0  0  0  0  0  0  0  0  0  0  0  0
   17.9123   18.9338   20.5848 H   0  0  0  0  0  0  0  0  0  0  0  0
   19.4253   19.8554   21.8760 C   0  0  0  0  0  0  0  0  0  0  0  0
   20.0950   20.4353   21.2269 H   0  0  0  0  0  0  0  0  0  0  0  0
   18.6177   20.5230   22.2043 H   0  0  0  0  0  0  0  0  0  0  0  0
   19.7873   18.0737   20.2943 O   0  0  0  0  0  0  0  0  0  0  0  0
   20.5424   17.8562   20.8789 H   0  0  0  0  0  0  0  0  0  0  0  0
  1  2  1  0  0  0  0
  1  3  1  0  0  0  0
  1  4  1  0  0  0  0
  4  5  1  0  0  0  0
  4  6  1  0  0  0  0
  4  7  1  0  0  0  0
  7  8  1  0  0  0  0
  7  9  1  0  0  0  0
  7 10  1  0  0  0  0
 10 11  1  0  0  0  0
  1 12  1  0  0  0  0
 10 12  1  0  0  0  0
 12 13  1  0  0  0  0
 12 14  1  0  0  0  0
 10 15  1  0  0  0  0
 15 16  1  0  0  0  0
M  END
> <VConfSearch Rank>
717

> <Conf_Id>
20

> <Delta U+W>
-0.483

> <U+W>
2.527

> <U>
4.508

> <W>
-1.981

> <W(PB)>
-3.712

> <W(SA)>
1.732

> <Valence>
14.705

> <Coulomb>
-10.687

> <VdW>
0.490

> <VdW6>
-3.745

> <VdW12>
4.235

> <Bond>
0.068

> <Angle>
3.901

> <Pdih>
10.737

> <Idih>
0.000

> <Tether>
0.000

$$$$
VeraChem MOL file


 16 16  0  0  0  0  0  0  0  0999 V2000     
   20.3685   17.8344   21.5561 C   0  0  0  0  0  0  0  0  0  0  0  0
   20.6224   16.9633   22.1762 H   0  0  0  0  0  0  0  0  0  0  0  0
   20.9335   17.7643   20.6166 H   0  0  0  0  0  0  0  0  0  0  0  0
   20.6756   19.1237   22.3300 C   0  0  0  0  0  0  0  0  0  0  0  0
   21.6071   19.0525   22.9080 H   0  0  0  0  0  0  0  0  0  0  0  0
   20.7709   19.9630   21.6270 H   0  0  0  0  0  0  0  0  0  0  0  0
   19.4431   19.3340   23.2284 C   0  0  0  0  0  0  0  0  0  0  0  0
   19.2730   20.3989   23.4332 H   0  0  0  0  0  0  0  0  0  0  0  0
   19.6035   18.8270   24.1896 H   0  0  0  0  0  0  0  0  0  0  0  0
   18.2487   18.7019   22.4831 C   0  0  0  0  0  0  0  0  0  0  0  0
   17.6020   19.4904   22.0713 H   0  0  0  0  0  0  0  0  0  0  0  0
   18.8467   17.8769   21.3249 C   0  0  0  0  0  0  0  0  0  0  0  0
   18.4182   16.8674   21.2675 H   0  0  0  0  0  0  0  0  0  0  0  0
   18.6323   18.3848   20.3756 H   0  0  0  0  0  0  0  0  0  0  0  0
   17.5148   17.8558   23.3603 O   0  0  0  0  0  0  0  0  0  0  0  0
   17.1692   18.4272   24.0784 H   0  0  0  0  0  0  0  0  0  0  0  0
  1  2  1  0  0  0  0
  1  3  1  0  0  0  0
  1  4  1  0  0  0  0
  4  5  1  0  0  0  0
  4  6  1  0  0  0  0
  4  7  1  0  0  0  0
  7  8  1  0  0  0  0
  7  9  1  0  0  0  0
  7 10  1  0  0  0  0
 10 11  1  0  0  0  0
  1 12  1  0  0  0  0
 10 12  1  0  0  0  0
 12 13  1  0  0  0  0
 12 14  1  0  0  0  0
 10 15  1  0  0  0  0
 15 16  1  0  0  0  0
M  END
> <VConfSearch Rank>
718

> <Conf_Id>
59

> <Delta U+W>
0.000

> <U+W>
3.010

> <U>
5.843

> <W>
-2.833

> <W(PB)>
-4.568

> <W(SA)>
1.735

> <Valence>
13.789

> <Coulomb>
-8.574

> <VdW>
0.628

> <VdW6>
-3.284

> <VdW12>
3.912

> <Bond>
0.054

> <Angle>
4.034

> <Pdih>
9.702

> <Idih>
0.000

> <Tether>
0.000

$$$$
VeraChem MOL file


 16 16  0  0  0  0  0  0  0  0999 V2000     
   18.4776   18.5558   21.2399 C   0  0  0  0  0  0  0  0  0  0  0  0
   18.4111   18.2714   20.1809 H   0  0  0  0  0  0  0  0  0  0  0  0
   17.4606   18.7510   21.6077 H   0  0  0  0  0  0  0  0  0  0  0  0
   19.3525   19.7979   21.4572 C   0  0  0  0  0  0  0  0  0  0  0  0
   20.2277   19.7525   20.7941 H   0  0  0  0  0  0  0  0  0  0  0  0
   18.8130   20.7324   21.2513 H   0  0  0  0  0  0  0  0  0  0  0  0
   19.8107   19.6947   22.9236 C   0  0  0  0  0  0  0  0  0  0  0  0
   19.0879   20.2065   23.5723 H   0  0  0  0  0  0  0  0  0  0  0  0
   20.7896   20.1686   23.0757 H   0  0  0  0  0  0  0  0  0  0  0  0
   19.8263   18.1927   23.2748 C   0  0  0  0  0  0  0  0  0  0  0  0
   19.2565   18.0302   24.2014 H   0  0  0  0  0  0  0  0  0  0  0  0
   19.1417   17.4643   22.0991 C   0  0  0  0  0  0  0  0  0  0  0  0
   19.8883   16.9307   21.4952 H   0  0  0  0  0  0  0  0  0  0  0  0
   18.4067   16.7297   22.4526 H   0  0  0  0  0  0  0  0  0  0  0  0
   21.1660   17.7371   23.4213 O   0  0  0  0  0  0  0  0  0  0  0  0
   21.1165   16.7805   23.6313 H   0  0  0  0  0  0  0  0  0  0  0  0
  1  2  1  0  0  0  0
  1  3  1  0  0  0  0
  1  4  1  0  0  0  0
  4  5  1  0  0  0  0
  4  6  1  0  0  0  0
  4  7  1  0  0  0  0
  7  8  1  0  0  0  0
  7  9  1  0  0  0  0
  7 10  1  0  0  0  0
 10 11  1  0  0  0  0
  1 12  1  0  0  0  0
 10 12  1  0  0  0  0
 12 13  1  0  0  0  0
 12 14  1  0  0  0  0
 10 15  1  0  0  0  0
 15 16  1  0  0  0  0
M  END
> <VConfSearch Rank>
719

> <Conf_Id>
33

> <Delta U+W>
0.015

> <U+W>
3.025

> <U>
5.843

> <W>
-2.819

> <W(PB)>
-4.568

> <W(SA)>
1.750

> <Valence>
13.789

> <Coulomb>
-8.574

> <VdW>
0.628

> <VdW6>
-3.284

> <VdW12>
3.913

> <Bond>
0.054

> <Angle>
4.033

> <Pdih>
9.702

> <Idih>
0.000

> <Tether>
0.000

$$$$
VeraChem MOL file


 16 16  0  0  0  0  0  0  0  0999 V2000     
   20.1742   17.6003   21.8956 C   0  0  0  0  0  0  0  0  0  0  0  0
   20.0905   17.3160   20.8376 H   0  0  0  0  0  0  0  0  0  0  0  0
   20.9325   16.9522   22.3559 H   0  0  0  0  0  0  0  0  0  0  0  0
   18.8026   17.4509   22.5896 C   0  0  0  0  0  0  0  0  0  0  0  0
   18.0555   17.0933   21.8678 H   0  0  0  0  0  0  0  0  0  0  0  0
   18.8438   16.7255   23.4137 H   0  0  0  0  0  0  0  0  0  0  0  0
   18.4176   18.8541   23.1046 C   0  0  0  0  0  0  0  0  0  0  0  0
   18.6801   18.9397   24.1673 H   0  0  0  0  0  0  0  0  0  0  0  0
   17.3416   19.0517   23.0093 H   0  0  0  0  0  0  0  0  0  0  0  0
   19.2649   19.8494   22.3004 C   0  0  0  0  0  0  0  0  0  0  0  0
   19.4509   20.7729   22.8673 H   0  0  0  0  0  0  0  0  0  0  0  0
   20.5670   19.0879   22.0184 C   0  0  0  0  0  0  0  0  0  0  0  0
   21.0795   19.4585   21.1206 H   0  0  0  0  0  0  0  0  0  0  0  0
   21.2480   19.2185   22.8697 H   0  0  0  0  0  0  0  0  0  0  0  0
   18.6128   20.1322   21.0709 O   0  0  0  0  0  0  0  0  0  0  0  0
   18.4903   19.2607   20.6411 H   0  0  0  0  0  0  0  0  0  0  0  0
  1  2  1  0  0  0  0
  1  3  1  0  0  0  0
  1  4  1  0  0  0  0
  4  5  1  0  0  0  0
  4  6  1  0  0  0  0
  4  7  1  0  0  0  0
  7  8  1  0  0  0  0
  7  9  1  0  0  0  0
  7 10  1  0  0  0  0
 10 11  1  0  0  0  0
  1 12  1  0  0  0  0
 10 12  1  0  0  0  0
 12 13  1  0  0  0  0
 12 14  1  0  0  0  0
 10 15  1  0  0  0  0
 15 16  1  0  0  0  0
M  END
> <VConfSearch Rank>
720

> <Conf_Id>
20

> <Delta U+W>
-0.483

> <U+W>
2.527

> <U>
4.508

> <W>
-1.981

> <W(PB)>
-3.712

> <W(SA)>
1.732

> <Valence>
14.705

> <Coulomb>
-10.687

> <VdW>
0.490

> <VdW6>
-3.745

> <VdW12>
4.235

> <Bond>
0.068

> <Angle>
3.901

> <Pdih>
10.737

> <Idih>
0.000

> <Tether>
0.000

$$$$
VeraChem MOL file


 16 16  0  0  0  0  0  0  0  0999 V2000     
   19.5201   17.8223   23.5599 C   0  0  0  0  0  0  0  0  0  0  0  0
   19.9573   16.8573   23.2680 H   0  0  0  0  0  0  0  0  0  0  0  0
   19.4444   17.8485   24.6555 H   0  0  0  0  0  0  0  0  0  0  0  0
   18.1585   17.9988   22.8739 C   0  0  0  0  0  0  0  0  0  0  0  0
   17.5807   17.0649   22.8454 H   0  0  0  0  0  0  0  0  0  0  0  0
   17.5676   18.7521   23.4133 H   0  0  0  0  0  0  0  0  0  0  0  0
   18.5034   18.5176   21.4659 C   0  0  0  0  0  0  0  0  0  0  0  0
   17.7014   19.1502   21.0640 H   0  0  0  0  0  0  0  0  0  0  0  0
   18.6330   17.6645   20.7861 H   0  0  0  0  0  0  0  0  0  0  0  0
   19.8274   19.2986   21.6024 C   0  0  0  0  0  0  0  0  0  0  0  0
   19.6358   20.3793   21.5326 H   0  0  0  0  0  0  0  0  0  0  0  0
   20.3837   18.9692   23.0031 C   0  0  0  0  0  0  0  0  0  0  0  0
   21.4475   18.6977   22.9758 H   0  0  0  0  0  0  0  0  0  0  0  0
   20.2813   19.8532   23.6459 H   0  0  0  0  0  0  0  0  0  0  0  0
   20.7473   18.8845   20.5993 O   0  0  0  0  0  0  0  0  0  0  0  0
   20.3401   19.1067   19.7354 H   0  0  0  0  0  0  0  0  0  0  0  0
  1  2  1  0  0  0  0
  1  3  1  0  0  0  0
  1  4  1  0  0  0  0
  4  5  1  0  0  0  0
  4  6  1  0  0  0  0
  4  7  1  0  0  0  0
  7  8  1  0  0  0  0
  7  9  1  0  0  0  0
  7 10  1  0  0  0  0
 10 11  1  0  0  0  0
  1 12  1  0  0  0  0
 10 12  1  0  0  0  0
 12 13  1  0  0  0  0
 12 14  1  0  0  0  0
 10 15  1  0  0  0  0
 15 16  1  0  0  0  0
M  END
> <VConfSearch Rank>
721

> <Conf_Id>
59

> <Delta U+W>
0.000

> <U+W>
3.010

> <U>
5.843

> <W>
-2.833

> <W(PB)>
-4.568

> <W(SA)>
1.735

> <Valence>
13.789

> <Coulomb>
-8.574

> <VdW>
0.628

> <VdW6>
-3.284

> <VdW12>
3.912

> <Bond>
0.054

> <Angle>
4.034

> <Pdih>
9.702

> <Idih>
0.000

> <Tether>
0.000

$$$$
VeraChem MOL file


 16 16  0  0  0  0  0  0  0  0999 V2000     
   18.2815   19.2458   21.7548 C   0  0  0  0  0  0  0  0  0  0  0  0
   18.0165   20.0842   21.0962 H   0  0  0  0  0  0  0  0  0  0  0  0
   17.3677   18.6736   21.9672 H   0  0  0  0  0  0  0  0  0  0  0  0
   18.9145   19.7154   23.0718 C   0  0  0  0  0  0  0  0  0  0  0  0
   19.5914   20.5584   22.8752 H   0  0  0  0  0  0  0  0  0  0  0  0
   18.1642   20.0403   23.8054 H   0  0  0  0  0  0  0  0  0  0  0  0
   19.7288   18.5036   23.5614 C   0  0  0  0  0  0  0  0  0  0  0  0
   19.0990   17.8701   24.1995 H   0  0  0  0  0  0  0  0  0  0  0  0
   20.5991   18.8144   24.1547 H   0  0  0  0  0  0  0  0  0  0  0  0
   20.1320   17.7073   22.3032 C   0  0  0  0  0  0  0  0  0  0  0  0
   19.8511   16.6523   22.4355 H   0  0  0  0  0  0  0  0  0  0  0  0
   19.3415   18.3212   21.1285 C   0  0  0  0  0  0  0  0  0  0  0  0
   20.0092   18.9147   20.4892 H   0  0  0  0  0  0  0  0  0  0  0  0
   18.8788   17.5456   20.5046 H   0  0  0  0  0  0  0  0  0  0  0  0
   21.5302   17.8308   22.0717 O   0  0  0  0  0  0  0  0  0  0  0  0
   21.7272   17.3181   21.2594 H   0  0  0  0  0  0  0  0  0  0  0  0
  1  2  1  0  0  0  0
  1  3  1  0  0  0  0
  1  4  1  0  0  0  0
  4  5  1  0  0  0  0
  4  6  1  0  0  0  0
  4  7  1  0  0  0  0
  7  8  1  0  0  0  0
  7  9  1  0  0  0  0
  7 10  1  0  0  0  0
 10 11  1  0  0  0  0
  1 12  1  0  0  0  0
 10 12  1  0  0  0  0
 12 13  1  0  0  0  0
 12 14  1  0  0  0  0
 10 15  1  0  0  0  0
 15 16  1  0  0  0  0
M  END
> <VConfSearch Rank>
722

> <Conf_Id>
33

> <Delta U+W>
0.015

> <U+W>
3.025

> <U>
5.843

> <W>
-2.819

> <W(PB)>
-4.568

> <W(SA)>
1.750

> <Valence>
13.789

> <Coulomb>
-8.574

> <VdW>
0.628

> <VdW6>
-3.284

> <VdW12>
3.913

> <Bond>
0.054

> <Angle>
4.033

> <Pdih>
9.702

> <Idih>
0.000

> <Tether>
0.000

$$$$
VeraChem MOL file


 16 16  0  0  0  0  0  0  0  0999 V2000     
   20.4752   18.2724   22.9419 C   0  0  0  0  0  0  0  0  0  0  0  0
   21.3179   18.9661   22.8161 H   0  0  0  0  0  0  0  0  0  0  0  0
   20.7942   17.4827   23.6359 H   0  0  0  0  0  0  0  0  0  0  0  0
   20.0637   17.6917   21.5713 C   0  0  0  0  0  0  0  0  0  0  0  0
   20.7080   18.1036   20.7823 H   0  0  0  0  0  0  0  0  0  0  0  0
   20.1666   16.5982   21.5487 H   0  0  0  0  0  0  0  0  0  0  0  0
   18.5981   18.1161   21.3384 C   0  0  0  0  0  0  0  0  0  0  0  0
   17.9285   17.2933   21.6218 H   0  0  0  0  0  0  0  0  0  0  0  0
   18.3981   18.3625   20.2870 H   0  0  0  0  0  0  0  0  0  0  0  0
   18.3468   19.3073   22.2726 C   0  0  0  0  0  0  0  0  0  0  0  0
   17.2878   19.3803   22.5593 H   0  0  0  0  0  0  0  0  0  0  0  0
   19.2423   19.0247   23.4863 C   0  0  0  0  0  0  0  0  0  0  0  0
   19.5180   19.9426   24.0225 H   0  0  0  0  0  0  0  0  0  0  0  0
   18.6984   18.3785   24.1879 H   0  0  0  0  0  0  0  0  0  0  0  0
   18.7830   20.5001   21.6371 O   0  0  0  0  0  0  0  0  0  0  0  0
   19.7252   20.3436   21.4207 H   0  0  0  0  0  0  0  0  0  0  0  0
  1  2  1  0  0  0  0
  1  3  1  0  0  0  0
  1  4  1  0  0  0  0
  4  5  1  0  0  0  0
  4  6  1  0  0  0  0
  4  7  1  0  0  0  0
  7  8  1  0  0  0  0
  7  9  1  0  0  0  0
  7 10  1  0  0  0  0
 10 11  1  0  0  0  0
  1 12  1  0  0  0  0
 10 12  1  0  0  0  0
 12 13  1  0  0  0  0
 12 14  1  0  0  0  0
 10 15  1  0  0  0  0
 15 16  1  0  0  0  0
M  END
> <VConfSearch Rank>
723

> <Conf_Id>
20

> <Delta U+W>
-0.483

> <U+W>
2.527

> <U>
4.508

> <W>
-1.981

> <W(PB)>
-3.712

> <W(SA)>
1.732

> <Valence>
14.705

> <Coulomb>
-10.687

> <VdW>
0.490

> <VdW6>
-3.745

> <VdW12>
4.235

> <Bond>
0.068

> <Angle>
3.901

> <Pdih>
10.737

> <Idih>
0.000

> <Tether>
0.000

$$$$
VeraChem MOL file


 16 16  0  0  0  0  0  0  0  0999 V2000     
   20.5226   19.0676   23.0169 C   0  0  0  0  0  0  0  0  0  0  0  0
   20.2276   19.0933   24.0752 H   0  0  0  0  0  0  0  0  0  0  0  0
   21.5729   19.3811   22.9448 H   0  0  0  0  0  0  0  0  0  0  0  0
   19.5851   19.9669   22.1996 C   0  0  0  0  0  0  0  0  0  0  0  0
   19.3325   20.8966   22.7274 H   0  0  0  0  0  0  0  0  0  0  0  0
   20.0646   20.2320   21.2470 H   0  0  0  0  0  0  0  0  0  0  0  0
   18.3481   19.0895   21.9337 C   0  0  0  0  0  0  0  0  0  0  0  0
   17.8555   19.3653   20.9924 H   0  0  0  0  0  0  0  0  0  0  0  0
   17.6230   19.2278   22.7473 H   0  0  0  0  0  0  0  0  0  0  0  0
   18.8482   17.6298   21.9057 C   0  0  0  0  0  0  0  0  0  0  0  0
   18.8571   17.2548   20.8719 H   0  0  0  0  0  0  0  0  0  0  0  0
   20.2910   17.6543   22.4512 C   0  0  0  0  0  0  0  0  0  0  0  0
   20.4622   16.8812   23.2122 H   0  0  0  0  0  0  0  0  0  0  0  0
   20.9894   17.4693   21.6247 H   0  0  0  0  0  0  0  0  0  0  0  0
   18.0257   16.8131   22.7305 O   0  0  0  0  0  0  0  0  0  0  0  0
   17.1242   16.8429   22.3460 H   0  0  0  0  0  0  0  0  0  0  0  0
  1  2  1  0  0  0  0
  1  3  1  0  0  0  0
  1  4  1  0  0  0  0
  4  5  1  0  0  0  0
  4  6  1  0  0  0  0
  4  7  1  0  0  0  0
  7  8  1  0  0  0  0
  7  9  1  0  0  0  0
  7 10  1  0  0  0  0
 10 11  1  0  0  0  0
  1 12  1  0  0  0  0
 10 12  1  0  0  0  0
 12 13  1  0  0  0  0
 12 14  1  0  0  0  0
 10 15  1  0  0  0  0
 15 16  1  0  0  0  0
M  END
> <VConfSearch Rank>
724

> <Conf_Id>
59

> <Delta U+W>
0.000

> <U+W>
3.010

> <U>
5.843

> <W>
-2.833

> <W(PB)>
-4.568

> <W(SA)>
1.735

> <Valence>
13.789

> <Coulomb>
-8.574

> <VdW>
0.628

> <VdW6>
-3.284

> <VdW12>
3.912

> <Bond>
0.054

> <Angle>
4.034

> <Pdih>
9.702

> <Idih>
0.000

> <Tether>
0.000

$$$$
VeraChem MOL file


 16 16  0  0  0  0  0  0  0  0999 V2000     
   18.2608   18.8563   21.5296 C   0  0  0  0  0  0  0  0  0  0  0  0
   17.5317   19.6599   21.3581 H   0  0  0  0  0  0  0  0  0  0  0  0
   18.0559   18.0479   20.8139 H   0  0  0  0  0  0  0  0  0  0  0  0
   18.1980   18.3065   22.9612 C   0  0  0  0  0  0  0  0  0  0  0  0
   18.0434   19.1344   23.6672 H   0  0  0  0  0  0  0  0  0  0  0  0
   17.3837   17.5819   23.0970 H   0  0  0  0  0  0  0  0  0  0  0  0
   19.5857   17.6816   23.1951 C   0  0  0  0  0  0  0  0  0  0  0  0
   19.5711   16.6271   22.8903 H   0  0  0  0  0  0  0  0  0  0  0  0
   19.8726   17.7189   24.2545 H   0  0  0  0  0  0  0  0  0  0  0  0
   20.5726   18.4521   22.2938 C   0  0  0  0  0  0  0  0  0  0  0  0
   21.1537   17.7353   21.6955 H   0  0  0  0  0  0  0  0  0  0  0  0
   19.7138   19.3392   21.3679 C   0  0  0  0  0  0  0  0  0  0  0  0
   19.7835   20.3911   21.6767 H   0  0  0  0  0  0  0  0  0  0  0  0
   20.0450   19.2717   20.3236 H   0  0  0  0  0  0  0  0  0  0  0  0
   21.4335   19.2600   23.0875 O   0  0  0  0  0  0  0  0  0  0  0  0
   22.0276   19.7323   22.4666 H   0  0  0  0  0  0  0  0  0  0  0  0
  1  2  1  0  0  0  0
  1  3  1  0  0  0  0
  1  4  1  0  0  0  0
  4  5  1  0  0  0  0
  4  6  1  0  0  0  0
  4  7  1  0  0  0  0
  7  8  1  0  0  0  0
  7  9  1  0  0  0  0
  7 10  1  0  0  0  0
 10 11  1  0  0  0  0
  1 12  1  0  0  0  0
 10 12  1  0  0  0  0
 12 13  1  0  0  0  0
 12 14  1  0  0  0  0
 10 15  1  0  0  0  0
 15 16  1  0  0  0  0
M  END
> <VConfSearch Rank>
725

> <Conf_Id>
33

> <Delta U+W>
0.015

> <U+W>
3.025

> <U>
5.843

> <W>
-2.819

> <W(PB)>
-4.568

> <W(SA)>
1.750

> <Valence>
13.789

> <Coulomb>
-8.574

> <VdW>
0.628

> <VdW6>
-3.284

> <VdW12>
3.913

> <Bond>
0.054

> <Angle>
4.033

> <Pdih>
9.702

> <Idih>
0.000

> <Tether>
0.000

$$$$
VeraChem MOL file


 16 16  0  0  0  0  0  0  0  0999 V2000     
   18.9325   18.2273   23.4580 C   0  0  0  0  0  0  0  0  0  0  0  0
   18.9385   19.0216   24.2171 H   0  0  0  0  0  0  0  0  0  0  0  0
   18.5283   17.3202   23.9278 H   0  0  0  0  0  0  0  0  0  0  0  0
   20.3636   18.0007   22.9235 C   0  0  0  0  0  0  0  0  0  0  0  0
   21.0624   18.6845   23.4248 H   0  0  0  0  0  0  0  0  0  0  0  0
   20.7076   16.9746   23.1130 H   0  0  0  0  0  0  0  0  0  0  0  0
   20.3181   18.3000   21.4100 C   0  0  0  0  0  0  0  0  0  0  0  0
   20.2159   17.3593   20.8529 H   0  0  0  0  0  0  0  0  0  0  0  0
   21.2298   18.8001   21.0570 H   0  0  0  0  0  0  0  0  0  0  0  0
   19.0624   19.1525   21.1828 C   0  0  0  0  0  0  0  0  0  0  0  0
   18.6625   19.0212   20.1670 H   0  0  0  0  0  0  0  0  0  0  0  0
   18.0757   18.6539   22.2471 C   0  0  0  0  0  0  0  0  0  0  0  0
   17.3300   19.4153   22.5123 H   0  0  0  0  0  0  0  0  0  0  0  0
   17.5371   17.7819   21.8533 H   0  0  0  0  0  0  0  0  0  0  0  0
   19.3711   20.5159   21.4334 O   0  0  0  0  0  0  0  0  0  0  0  0
   19.7162   20.5347   22.3498 H   0  0  0  0  0  0  0  0  0  0  0  0
  1  2  1  0  0  0  0
  1  3  1  0  0  0  0
  1  4  1  0  0  0  0
  4  5  1  0  0  0  0
  4  6  1  0  0  0  0
  4  7  1  0  0  0  0
  7  8  1  0  0  0  0
  7  9  1  0  0  0  0
  7 10  1  0  0  0  0
 10 11  1  0  0  0  0
  1 12  1  0  0  0  0
 10 12  1  0  0  0  0
 12 13  1  0  0  0  0
 12 14  1  0  0  0  0
 10 15  1  0  0  0  0
 15 16  1  0  0  0  0
M  END
> <VConfSearch Rank>
726

> <Conf_Id>
20

> <Delta U+W>
-0.483

> <U+W>
2.527

> <U>
4.508

> <W>
-1.981

> <W(PB)>
-3.712

> <W(SA)>
1.732

> <Valence>
14.705

> <Coulomb>
-10.687

> <VdW>
0.490

> <VdW6>
-3.745

> <VdW12>
4.235

> <Bond>
0.068

> <Angle>
3.901

> <Pdih>
10.737

> <Idih>
0.000

> <Tether>
0.000

$$$$
VeraChem MOL file


 16 16  0  0  0  0  0  0  0  0999 V2000     
   18.7070   17.2732   22.5360 C   0  0  0  0  0  0  0  0  0  0  0  0
   17.7921   17.5126   23.0956 H   0  0  0  0  0  0  0  0  0  0  0  0
   18.7146   16.1934   22.3345 H   0  0  0  0  0  0  0  0  0  0  0  0
   19.9342   17.7286   23.3376 C   0  0  0  0  0  0  0  0  0  0  0  0
   19.8246   17.5380   24.4139 H   0  0  0  0  0  0  0  0  0  0  0  0
   20.8265   17.1941   22.9830 H   0  0  0  0  0  0  0  0  0  0  0  0
   20.0648   19.2292   23.0186 C   0  0  0  0  0  0  0  0  0  0  0  0
   21.1092   19.5621   23.0761 H   0  0  0  0  0  0  0  0  0  0  0  0
   19.4854   19.8080   23.7507 H   0  0  0  0  0  0  0  0  0  0  0  0
   19.4843   19.4249   21.6021 C   0  0  0  0  0  0  0  0  0  0  0  0
   20.2979   19.5962   20.8823 H   0  0  0  0  0  0  0  0  0  0  0  0
   18.7566   18.1122   21.2457 C   0  0  0  0  0  0  0  0  0  0  0  0
   17.7516   18.2896   20.8400 H   0  0  0  0  0  0  0  0  0  0  0  0
   19.3356   17.5782   20.4810 H   0  0  0  0  0  0  0  0  0  0  0  0
   18.5671   20.5123   21.5934 O   0  0  0  0  0  0  0  0  0  0  0  0
   19.0781   21.3132   21.8360 H   0  0  0  0  0  0  0  0  0  0  0  0
  1  2  1  0  0  0  0
  1  3  1  0  0  0  0
  1  4  1  0  0  0  0
  4  5  1  0  0  0  0
  4  6  1  0  0  0  0
  4  7  1  0  0  0  0
  7  8  1  0  0  0  0
  7  9  1  0  0  0  0
  7 10  1  0  0  0  0
 10 11  1  0  0  0  0
  1 12  1  0  0  0  0
 10 12  1  0  0  0  0
 12 13  1  0  0  0  0
 12 14  1  0  0  0  0
 10 15  1  0  0  0  0
 15 16  1  0  0  0  0
M  END
> <VConfSearch Rank>
727

> <Conf_Id>
59

> <Delta U+W>
0.000

> <U+W>
3.010

> <U>
5.843

> <W>
-2.833

> <W(PB)>
-4.568

> <W(SA)>
1.735

> <Valence>
13.789

> <Coulomb>
-8.574

> <VdW>
0.628

> <VdW6>
-3.284

> <VdW12>
3.912

> <Bond>
0.054

> <Angle>
4.034

> <Pdih>
9.702

> <Idih>
0.000

> <Tether>
0.000

$$$$
VeraChem MOL file


 16 16  0  0  0  0  0  0  0  0999 V2000     
   18.7120   17.3825   22.2683 C   0  0  0  0  0  0  0  0  0  0  0  0
   17.8079   16.9636   21.8058 H   0  0  0  0  0  0  0  0  0  0  0  0
   19.2488   16.5674   22.7732 H   0  0  0  0  0  0  0  0  0  0  0  0
   18.3905   18.4925   23.2784 C   0  0  0  0  0  0  0  0  0  0  0  0
   17.5724   19.1164   22.8920 H   0  0  0  0  0  0  0  0  0  0  0  0
   18.0876   18.0948   24.2565 H   0  0  0  0  0  0  0  0  0  0  0  0
   19.6821   19.3271   23.3577 C   0  0  0  0  0  0  0  0  0  0  0  0
   20.3315   18.9267   24.1471 H   0  0  0  0  0  0  0  0  0  0  0  0
   19.4708   20.3771   23.5999 H   0  0  0  0  0  0  0  0  0  0  0  0
   20.3907   19.1713   21.9963 C   0  0  0  0  0  0  0  0  0  0  0  0
   21.4361   18.8729   22.1629 H   0  0  0  0  0  0  0  0  0  0  0  0
   19.6376   18.0571   21.2393 C   0  0  0  0  0  0  0  0  0  0  0  0
   19.0301   18.4888   20.4323 H   0  0  0  0  0  0  0  0  0  0  0  0
   20.3313   17.3349   20.7897 H   0  0  0  0  0  0  0  0  0  0  0  0
   20.3254   20.3910   21.2669 O   0  0  0  0  0  0  0  0  0  0  0  0
   20.7781   20.2318   20.4118 H   0  0  0  0  0  0  0  0  0  0  0  0
  1  2  1  0  0  0  0
  1  3  1  0  0  0  0
  1  4  1  0  0  0  0
  4  5  1  0  0  0  0
  4  6  1  0  0  0  0
  4  7  1  0  0  0  0
  7  8  1  0  0  0  0
  7  9  1  0  0  0  0
  7 10  1  0  0  0  0
 10 11  1  0  0  0  0
  1 12  1  0  0  0  0
 10 12  1  0  0  0  0
 12 13  1  0  0  0  0
 12 14  1  0  0  0  0
 10 15  1  0  0  0  0
 15 16  1  0  0  0  0
M  END
> <VConfSearch Rank>
728

> <Conf_Id>
33

> <Delta U+W>
0.015

> <U+W>
3.025

> <U>
5.843

> <W>
-2.819

> <W(PB)>
-4.568

> <W(SA)>
1.750

> <Valence>
13.789

> <Coulomb>
-8.574

> <VdW>
0.628

> <VdW6>
-3.284

> <VdW12>
3.913

> <Bond>
0.054

> <Angle>
4.033

> <Pdih>
9.702

> <Idih>
0.000

> <Tether>
0.000

$$$$
VeraChem MOL file


 16 16  0  0  0  0  0  0  0  0999 V2000     
   20.6660   18.3829   21.9843 C   0  0  0  0  0  0  0  0  0  0  0  0
   21.3393   18.5043   22.8440 H   0  0  0  0  0  0  0  0  0  0  0  0
   21.2769   18.0813   21.1224 H   0  0  0  0  0  0  0  0  0  0  0  0
   19.9160   19.7055   21.7136 C   0  0  0  0  0  0  0  0  0  0  0  0
   20.2271   20.4673   22.4417 H   0  0  0  0  0  0  0  0  0  0  0  0
   20.1338   20.0952   20.7098 H   0  0  0  0  0  0  0  0  0  0  0  0
   18.4122   19.3968   21.8747 C   0  0  0  0  0  0  0  0  0  0  0  0
   17.9667   19.2179   20.8873 H   0  0  0  0  0  0  0  0  0  0  0  0
   17.8650   20.2258   22.3430 H   0  0  0  0  0  0  0  0  0  0  0  0
   18.3293   18.1057   22.7001 C   0  0  0  0  0  0  0  0  0  0  0  0
   17.4131   17.5406   22.4764 H   0  0  0  0  0  0  0  0  0  0  0  0
   19.5872   17.3243   22.2975 C   0  0  0  0  0  0  0  0  0  0  0  0
   19.9079   16.6215   23.0780 H   0  0  0  0  0  0  0  0  0  0  0  0
   19.3707   16.7422   21.3921 H   0  0  0  0  0  0  0  0  0  0  0  0
   18.4012   18.4282   24.0813 O   0  0  0  0  0  0  0  0  0  0  0  0
   19.2394   18.9243   24.1838 H   0  0  0  0  0  0  0  0  0  0  0  0
  1  2  1  0  0  0  0
  1  3  1  0  0  0  0
  1  4  1  0  0  0  0
  4  5  1  0  0  0  0
  4  6  1  0  0  0  0
  4  7  1  0  0  0  0
  7  8  1  0  0  0  0
  7  9  1  0  0  0  0
  7 10  1  0  0  0  0
 10 11  1  0  0  0  0
  1 12  1  0  0  0  0
 10 12  1  0  0  0  0
 12 13  1  0  0  0  0
 12 14  1  0  0  0  0
 10 15  1  0  0  0  0
 15 16  1  0  0  0  0
M  END
> <VConfSearch Rank>
729

> <Conf_Id>
20

> <Delta U+W>
-0.483

> <U+W>
2.527

> <U>
4.508

> <W>
-1.981

> <W(PB)>
-3.712

> <W(SA)>
1.732

> <Valence>
14.705

> <Coulomb>
-10.687

> <VdW>
0.490

> <VdW6>
-3.745

> <VdW12>
4.235

> <Bond>
0.068

> <Angle>
3.901

> <Pdih>
10.737

> <Idih>
0.000

> <Tether>
0.000

$$$$
VeraChem MOL file


 16 16  0  0  0  0  0  0  0  0999 V2000     
   18.5530   17.3550   22.1478 C   0  0  0  0  0  0  0  0  0  0  0  0
   18.7511   16.7528   23.0455 H   0  0  0  0  0  0  0  0  0  0  0  0
   17.8003   16.8324   21.5420 H   0  0  0  0  0  0  0  0  0  0  0  0
   19.8638   17.5853   21.3834 C   0  0  0  0  0  0  0  0  0  0  0  0
   20.5052   16.6935   21.3754 H   0  0  0  0  0  0  0  0  0  0  0  0
   19.6416   17.8580   20.3423 H   0  0  0  0  0  0  0  0  0  0  0  0
   20.5236   18.7752   22.1041 C   0  0  0  0  0  0  0  0  0  0  0  0
   21.1498   19.3617   21.4194 H   0  0  0  0  0  0  0  0  0  0  0  0
   21.1668   18.3995   22.9115 H   0  0  0  0  0  0  0  0  0  0  0  0
   19.3732   19.6226   22.6873 C   0  0  0  0  0  0  0  0  0  0  0  0
   19.2500   20.5446   22.1005 H   0  0  0  0  0  0  0  0  0  0  0  0
   18.0964   18.7656   22.5636 C   0  0  0  0  0  0  0  0  0  0  0  0
   17.5167   18.7444   23.4961 H   0  0  0  0  0  0  0  0  0  0  0  0
   17.4544   19.1907   21.7812 H   0  0  0  0  0  0  0  0  0  0  0  0
   19.6303   19.9257   24.0532 O   0  0  0  0  0  0  0  0  0  0  0  0
   20.4532   20.4586   24.0730 H   0  0  0  0  0  0  0  0  0  0  0  0
  1  2  1  0  0  0  0
  1  3  1  0  0  0  0
  1  4  1  0  0  0  0
  4  5  1  0  0  0  0
  4  6  1  0  0  0  0
  4  7  1  0  0  0  0
  7  8  1  0  0  0  0
  7  9  1  0  0  0  0
  7 10  1  0  0  0  0
 10 11  1  0  0  0  0
  1 12  1  0  0  0  0
 10 12  1  0  0  0  0
 12 13  1  0  0  0  0
 12 14  1  0  0  0  0
 10 15  1  0  0  0  0
 15 16  1  0  0  0  0
M  END
> <VConfSearch Rank>
730

> <Conf_Id>
59

> <Delta U+W>
0.000

> <U+W>
3.010

> <U>
5.843

> <W>
-2.833

> <W(PB)>
-4.568

> <W(SA)>
1.735

> <Valence>
13.789

> <Coulomb>
-8.574

> <VdW>
0.628

> <VdW6>
-3.284

> <VdW12>
3.912

> <Bond>
0.054

> <Angle>
4.034

> <Pdih>
9.702

> <Idih>
0.000

> <Tether>
0.000

$$$$
VeraChem MOL file


 16 16  0  0  0  0  0  0  0  0999 V2000     
   19.4179   18.0198   20.9853 C   0  0  0  0  0  0  0  0  0  0  0  0
   19.6230   17.0544   20.5029 H   0  0  0  0  0  0  0  0  0  0  0  0
   18.9479   18.6813   20.2443 H   0  0  0  0  0  0  0  0  0  0  0  0
   20.6902   18.6806   21.5336 C   0  0  0  0  0  0  0  0  0  0  0  0
   21.3396   17.9149   21.9803 H   0  0  0  0  0  0  0  0  0  0  0  0
   21.2607   19.2035   20.7541 H   0  0  0  0  0  0  0  0  0  0  0  0
   20.1861   19.6342   22.6325 C   0  0  0  0  0  0  0  0  0  0  0  0
   19.9754   20.6196   22.1970 H   0  0  0  0  0  0  0  0  0  0  0  0
   20.9356   19.7720   23.4232 H   0  0  0  0  0  0  0  0  0  0  0  0
   18.8722   19.0304   23.1700 C   0  0  0  0  0  0  0  0  0  0  0  0
   18.0864   19.7998   23.1561 H   0  0  0  0  0  0  0  0  0  0  0  0
   18.5001   17.8780   22.2133 C   0  0  0  0  0  0  0  0  0  0  0  0
   18.6854   16.9083   22.6953 H   0  0  0  0  0  0  0  0  0  0  0  0
   17.4407   17.9160   21.9287 H   0  0  0  0  0  0  0  0  0  0  0  0
   19.0648   18.5313   24.4882 O   0  0  0  0  0  0  0  0  0  0  0  0
   18.2068   18.1518   24.7734 H   0  0  0  0  0  0  0  0  0  0  0  0
  1  2  1  0  0  0  0
  1  3  1  0  0  0  0
  1  4  1  0  0  0  0
  4  5  1  0  0  0  0
  4  6  1  0  0  0  0
  4  7  1  0  0  0  0
  7  8  1  0  0  0  0
  7  9  1  0  0  0  0
  7 10  1  0  0  0  0
 10 11  1  0  0  0  0
  1 12  1  0  0  0  0
 10 12  1  0  0  0  0
 12 13  1  0  0  0  0
 12 14  1  0  0  0  0
 10 15  1  0  0  0  0
 15 16  1  0  0  0  0
M  END
> <VConfSearch Rank>
731

> <Conf_Id>
33

> <Delta U+W>
0.015

> <U+W>
3.025

> <U>
5.843

> <W>
-2.819

> <W(PB)>
-4.568

> <W(SA)>
1.750

> <Valence>
13.789

> <Coulomb>
-8.574

> <VdW>
0.628

> <VdW6>
-3.284

> <VdW12>
3.913

> <Bond>
0.054

> <Angle>
4.033

> <Pdih>
9.702

> <Idih>
0.000

> <Tether>
0.000

$$$$
VeraChem MOL file


 16 16  0  0  0  0  0  0  0  0999 V2000     
   18.1955   19.0694   21.8396 C   0  0  0  0  0  0  0  0  0  0  0  0
   18.1529   19.2961   20.7653 H   0  0  0  0  0  0  0  0  0  0  0  0
   17.2047   19.2812   22.2645 H   0  0  0  0  0  0  0  0  0  0  0  0
   19.2954   19.9193   22.5125 C   0  0  0  0  0  0  0  0  0  0  0  0
   19.7844   20.5581   21.7641 H   0  0  0  0  0  0  0  0  0  0  0  0
   18.8802   20.5750   23.2901 H   0  0  0  0  0  0  0  0  0  0  0  0
   20.3126   18.9244   23.1108 C   0  0  0  0  0  0  0  0  0  0  0  0
   20.1013   18.7815   24.1787 H   0  0  0  0  0  0  0  0  0  0  0  0
   21.3471   19.2815   23.0197 H   0  0  0  0  0  0  0  0  0  0  0  0
   20.0897   17.5954   22.3765 C   0  0  0  0  0  0  0  0  0  0  0  0
   20.3721   16.7357   23.0011 H   0  0  0  0  0  0  0  0  0  0  0  0
   18.5886   17.5928   22.0576 C   0  0  0  0  0  0  0  0  0  0  0  0
   18.3491   16.9656   21.1886 H   0  0  0  0  0  0  0  0  0  0  0  0
   18.0415   17.1911   22.9206 H   0  0  0  0  0  0  0  0  0  0  0  0
   20.8259   17.6029   21.1621 O   0  0  0  0  0  0  0  0  0  0  0  0
   20.5107   18.3938   20.6780 H   0  0  0  0  0  0  0  0  0  0  0  0
  1  2  1  0  0  0  0
  1  3  1  0  0  0  0
  1  4  1  0  0  0  0
  4  5  1  0  0  0  0
  4  6  1  0  0  0  0
  4  7  1  0  0  0  0
  7  8  1  0  0  0  0
  7  9  1  0  0  0  0
  7 10  1  0  0  0  0
 10 11  1  0  0  0  0
  1 12  1  0  0  0  0
 10 12  1  0  0  0  0
 12 13  1  0  0  0  0
 12 14  1  0  0  0  0
 10 15  1  0  0  0  0
 15 16  1  0  0  0  0
M  END
> <VConfSearch Rank>
732

> <Conf_Id>
20

> <Delta U+W>
-0.483

> <U+W>
2.527

> <U>
4.508

> <W>
-1.981

> <W(PB)>
-3.712

> <W(SA)>
1.732

> <Valence>
14.705

> <Coulomb>
-10.687

> <VdW>
0.490

> <VdW6>
-3.745

> <VdW12>
4.235

> <Bond>
0.068

> <Angle>
3.901

> <Pdih>
10.737

> <Idih>
0.000

> <Tether>
0.000

$$$$
VeraChem MOL file


 16 16  0  0  0  0  0  0  0  0999 V2000     
   19.0304   19.0567   23.6384 C   0  0  0  0  0  0  0  0  0  0  0  0
   17.9593   19.2985   23.5936 H   0  0  0  0  0  0  0  0  0  0  0  0
   19.3819   19.2398   24.6629 H   0  0  0  0  0  0  0  0  0  0  0  0
   19.7902   19.8929   22.5996 C   0  0  0  0  0  0  0  0  0  0  0  0
   19.4120   20.9222   22.5339 H   0  0  0  0  0  0  0  0  0  0  0  0
   20.8555   19.9347   22.8663 H   0  0  0  0  0  0  0  0  0  0  0  0
   19.6135   19.1183   21.2808 C   0  0  0  0  0  0  0  0  0  0  0  0
   20.4649   19.2755   20.6061 H   0  0  0  0  0  0  0  0  0  0  0  0
   18.7080   19.4730   20.7698 H   0  0  0  0  0  0  0  0  0  0  0  0
   19.4622   17.6317   21.6665 C   0  0  0  0  0  0  0  0  0  0  0  0
   20.3816   17.0825   21.4162 H   0  0  0  0  0  0  0  0  0  0  0  0
   19.2488   17.5987   23.1939 C   0  0  0  0  0  0  0  0  0  0  0  0
   18.4057   16.9572   23.4833 H   0  0  0  0  0  0  0  0  0  0  0  0
   20.1520   17.1989   23.6730 H   0  0  0  0  0  0  0  0  0  0  0  0
   18.3398   17.0639   21.0019 O   0  0  0  0  0  0  0  0  0  0  0  0
   18.5237   17.1210   20.0404 H   0  0  0  0  0  0  0  0  0  0  0  0
  1  2  1  0  0  0  0
  1  3  1  0  0  0  0
  1  4  1  0  0  0  0
  4  5  1  0  0  0  0
  4  6  1  0  0  0  0
  4  7  1  0  0  0  0
  7  8  1  0  0  0  0
  7  9  1  0  0  0  0
  7 10  1  0  0  0  0
 10 11  1  0  0  0  0
  1 12  1  0  0  0  0
 10 12  1  0  0  0  0
 12 13  1  0  0  0  0
 12 14  1  0  0  0  0
 10 15  1  0  0  0  0
 15 16  1  0  0  0  0
M  END
> <VConfSearch Rank>
733

> <Conf_Id>
59

> <Delta U+W>
0.000

> <U+W>
3.010

> <U>
5.843

> <W>
-2.833

> <W(PB)>
-4.568

> <W(SA)>
1.735

> <Valence>
13.789

> <Coulomb>
-8.574

> <VdW>
0.628

> <VdW6>
-3.284

> <VdW12>
3.912

> <Bond>
0.054

> <Angle>
4.034

> <Pdih>
9.702

> <Idih>
0.000

> <Tether>
0.000

$$$$
VeraChem MOL file


 16 16  0  0  0  0  0  0  0  0999 V2000     
   18.9273   17.4099   22.8752 C   0  0  0  0  0  0  0  0  0  0  0  0
   18.3144   17.0984   23.7319 H   0  0  0  0  0  0  0  0  0  0  0  0
   19.0846   16.5350   22.2290 H   0  0  0  0  0  0  0  0  0  0  0  0
   20.2840   17.9842   23.3057 C   0  0  0  0  0  0  0  0  0  0  0  0
   20.1533   18.6035   24.2042 H   0  0  0  0  0  0  0  0  0  0  0  0
   21.0188   17.1998   23.5323 H   0  0  0  0  0  0  0  0  0  0  0  0
   20.7182   18.8730   22.1256 C   0  0  0  0  0  0  0  0  0  0  0  0
   21.3028   18.2780   21.4120 H   0  0  0  0  0  0  0  0  0  0  0  0
   21.3483   19.7083   22.4589 H   0  0  0  0  0  0  0  0  0  0  0  0
   19.4238   19.3540   21.4378 C   0  0  0  0  0  0  0  0  0  0  0  0
   19.4863   19.1458   20.3597 H   0  0  0  0  0  0  0  0  0  0  0  0
   18.2706   18.5435   22.0663 C   0  0  0  0  0  0  0  0  0  0  0  0
   17.6831   19.1792   22.7427 H   0  0  0  0  0  0  0  0  0  0  0  0
   17.5912   18.1481   21.3003 H   0  0  0  0  0  0  0  0  0  0  0  0
   19.2314   20.7440   21.6719 O   0  0  0  0  0  0  0  0  0  0  0  0
   18.3944   20.9913   21.2248 H   0  0  0  0  0  0  0  0  0  0  0  0
  1  2  1  0  0  0  0
  1  3  1  0  0  0  0
  1  4  1  0  0  0  0
  4  5  1  0  0  0  0
  4  6  1  0  0  0  0
  4  7  1  0  0  0  0
  7  8  1  0  0  0  0
  7  9  1  0  0  0  0
  7 10  1  0  0  0  0
 10 11  1  0  0  0  0
  1 12  1  0  0  0  0
 10 12  1  0  0  0  0
 12 13  1  0  0  0  0
 12 14  1  0  0  0  0
 10 15  1  0  0  0  0
 15 16  1  0  0  0  0
M  END
> <VConfSearch Rank>
734

> <Conf_Id>
33

> <Delta U+W>
0.015

> <U+W>
3.025

> <U>
5.843

> <W>
-2.819

> <W(PB)>
-4.568

> <W(SA)>
1.750

> <Valence>
13.789

> <Coulomb>
-8.574

> <VdW>
0.628

> <VdW6>
-3.284

> <VdW12>
3.913

> <Bond>
0.054

> <Angle>
4.033

> <Pdih>
9.702

> <Idih>
0.000

> <Tether>
0.000

$$$$
VeraChem MOL file


 16 16  0  0  0  0  0  0  0  0999 V2000     
   20.2731   18.9137   21.3136 C   0  0  0  0  0  0  0  0  0  0  0  0
   19.8944   19.5857   20.5312 H   0  0  0  0  0  0  0  0  0  0  0  0
   21.3254   18.6957   21.0852 H   0  0  0  0  0  0  0  0  0  0  0  0
   19.4226   17.6253   21.3563 C   0  0  0  0  0  0  0  0  0  0  0  0
   18.6330   17.6734   20.5938 H   0  0  0  0  0  0  0  0  0  0  0  0
   20.0302   16.7333   21.1512 H   0  0  0  0  0  0  0  0  0  0  0  0
   18.7987   17.5593   22.7666 C   0  0  0  0  0  0  0  0  0  0  0  0
   19.4017   16.8992   23.4040 H   0  0  0  0  0  0  0  0  0  0  0  0
   17.7743   17.1638   22.7505 H   0  0  0  0  0  0  0  0  0  0  0  0
   18.8619   18.9867   23.3266 C   0  0  0  0  0  0  0  0  0  0  0  0
   18.9139   18.9885   24.4249 H   0  0  0  0  0  0  0  0  0  0  0  0
   20.1322   19.5772   22.7001 C   0  0  0  0  0  0  0  0  0  0  0  0
   20.0935   20.6728   22.6353 H   0  0  0  0  0  0  0  0  0  0  0  0
   20.9951   19.3097   23.3242 H   0  0  0  0  0  0  0  0  0  0  0  0
   17.7326   19.7180   22.8718 O   0  0  0  0  0  0  0  0  0  0  0  0
   17.7692   19.6616   21.8947 H   0  0  0  0  0  0  0  0  0  0  0  0
  1  2  1  0  0  0  0
  1  3  1  0  0  0  0
  1  4  1  0  0  0  0
  4  5  1  0  0  0  0
  4  6  1  0  0  0  0
  4  7  1  0  0  0  0
  7  8  1  0  0  0  0
  7  9  1  0  0  0  0
  7 10  1  0  0  0  0
 10 11  1  0  0  0  0
  1 12  1  0  0  0  0
 10 12  1  0  0  0  0
 12 13  1  0  0  0  0
 12 14  1  0  0  0  0
 10 15  1  0  0  0  0
 15 16  1  0  0  0  0
M  END
> <VConfSearch Rank>
735

> <Conf_Id>
20

> <Delta U+W>
-0.483

> <U+W>
2.527

> <U>
4.508

> <W>
-1.981

> <W(PB)>
-3.712

> <W(SA)>
1.732

> <Valence>
14.705

> <Coulomb>
-10.687

> <VdW>
0.490

> <VdW6>
-3.745

> <VdW12>
4.235

> <Bond>
0.068

> <Angle>
3.901

> <Pdih>
10.737

> <Idih>
0.000

> <Tether>
0.000

$$$$
VeraChem MOL file


 16 16  0  0  0  0  0  0  0  0999 V2000     
   18.5788   19.6432   21.7481 C   0  0  0  0  0  0  0  0  0  0  0  0
   19.3128   20.4278   21.5171 H   0  0  0  0  0  0  0  0  0  0  0  0
   17.5918   19.9843   21.4075 H   0  0  0  0  0  0  0  0  0  0  0  0
   18.6071   19.3393   23.2523 C   0  0  0  0  0  0  0  0  0  0  0  0
   18.7231   20.2470   23.8600 H   0  0  0  0  0  0  0  0  0  0  0  0
   17.6707   18.8456   23.5474 H   0  0  0  0  0  0  0  0  0  0  0  0
   19.7864   18.3645   23.4241 C   0  0  0  0  0  0  0  0  0  0  0  0
   19.6273   17.6882   24.2739 H   0  0  0  0  0  0  0  0  0  0  0  0
   20.7051   18.9358   23.6149 H   0  0  0  0  0  0  0  0  0  0  0  0
   19.9058   17.5879   22.0958 C   0  0  0  0  0  0  0  0  0  0  0  0
   19.5393   16.5594   22.2269 H   0  0  0  0  0  0  0  0  0  0  0  0
   19.0072   18.3235   21.0803 C   0  0  0  0  0  0  0  0  0  0  0  0
   19.5176   18.5013   20.1243 H   0  0  0  0  0  0  0  0  0  0  0  0
   18.1207   17.7092   20.8760 H   0  0  0  0  0  0  0  0  0  0  0  0
   21.2557   17.5880   21.6467 O   0  0  0  0  0  0  0  0  0  0  0  0
   21.7798   17.1206   22.3311 H   0  0  0  0  0  0  0  0  0  0  0  0
  1  2  1  0  0  0  0
  1  3  1  0  0  0  0
  1  4  1  0  0  0  0
  4  5  1  0  0  0  0
  4  6  1  0  0  0  0
  4  7  1  0  0  0  0
  7  8  1  0  0  0  0
  7  9  1  0  0  0  0
  7 10  1  0  0  0  0
 10 11  1  0  0  0  0
  1 12  1  0  0  0  0
 10 12  1  0  0  0  0
 12 13  1  0  0  0  0
 12 14  1  0  0  0  0
 10 15  1  0  0  0  0
 15 16  1  0  0  0  0
M  END
> <VConfSearch Rank>
736

> <Conf_Id>
59

> <Delta U+W>
0.000

> <U+W>
3.010

> <U>
5.843

> <W>
-2.833

> <W(PB)>
-4.568

> <W(SA)>
1.735

> <Valence>
13.789

> <Coulomb>
-8.574

> <VdW>
0.628

> <VdW6>
-3.284

> <VdW12>
3.912

> <Bond>
0.054

> <Angle>
4.034

> <Pdih>
9.702

> <Idih>
0.000

> <Tether>
0.000

$$$$
VeraChem MOL file


 16 16  0  0  0  0  0  0  0  0999 V2000     
   20.2827   19.4826   23.0753 C   0  0  0  0  0  0  0  0  0  0  0  0
   20.4875   19.7120   24.1300 H   0  0  0  0  0  0  0  0  0  0  0  0
   21.0205   20.0145   22.4585 H   0  0  0  0  0  0  0  0  0  0  0  0
   18.8652   19.8924   22.6531 C   0  0  0  0  0  0  0  0  0  0  0  0
   18.1588   19.6629   23.4631 H   0  0  0  0  0  0  0  0  0  0  0  0
   18.7891   20.9640   22.4235 H   0  0  0  0  0  0  0  0  0  0  0  0
   18.5555   19.0065   21.4323 C   0  0  0  0  0  0  0  0  0  0  0  0
   18.8749   19.5183   20.5152 H   0  0  0  0  0  0  0  0  0  0  0  0
   17.4802   18.8022   21.3434 H   0  0  0  0  0  0  0  0  0  0  0  0
   19.3844   17.7167   21.6034 C   0  0  0  0  0  0  0  0  0  0  0  0
   19.9558   17.5274   20.6829 H   0  0  0  0  0  0  0  0  0  0  0  0
   20.3489   17.9728   22.7806 C   0  0  0  0  0  0  0  0  0  0  0  0
   20.0223   17.4147   23.6686 H   0  0  0  0  0  0  0  0  0  0  0  0
   21.3719   17.6555   22.5404 H   0  0  0  0  0  0  0  0  0  0  0  0
   18.5288   16.6194   21.8995 O   0  0  0  0  0  0  0  0  0  0  0  0
   19.1060   15.8342   22.0084 H   0  0  0  0  0  0  0  0  0  0  0  0
  1  2  1  0  0  0  0
  1  3  1  0  0  0  0
  1  4  1  0  0  0  0
  4  5  1  0  0  0  0
  4  6  1  0  0  0  0
  4  7  1  0  0  0  0
  7  8  1  0  0  0  0
  7  9  1  0  0  0  0
  7 10  1  0  0  0  0
 10 11  1  0  0  0  0
  1 12  1  0  0  0  0
 10 12  1  0  0  0  0
 12 13  1  0  0  0  0
 12 14  1  0  0  0  0
 10 15  1  0  0  0  0
 15 16  1  0  0  0  0
M  END
> <VConfSearch Rank>
737

> <Conf_Id>
33

> <Delta U+W>
0.015

> <U+W>
3.025

> <U>
5.843

> <W>
-2.819

> <W(PB)>
-4.568

> <W(SA)>
1.750

> <Valence>
13.789

> <Coulomb>
-8.574

> <VdW>
0.628

> <VdW6>
-3.284

> <VdW12>
3.913

> <Bond>
0.054

> <Angle>
4.033

> <Pdih>
9.702

> <Idih>
0.000

> <Tether>
0.000

$$$$
VeraChem MOL file


 16 16  0  0  0  0  0  0  0  0999 V2000     
   18.6863   19.5001   22.9753 C   0  0  0  0  0  0  0  0  0  0  0  0
   19.0773   19.6663   23.9886 H   0  0  0  0  0  0  0  0  0  0  0  0
   17.8152   20.1562   22.8424 H   0  0  0  0  0  0  0  0  0  0  0  0
   18.3102   18.0132   22.7948 C   0  0  0  0  0  0  0  0  0  0  0  0
   18.5182   17.4600   23.7211 H   0  0  0  0  0  0  0  0  0  0  0  0
   17.2425   17.8915   22.5665 H   0  0  0  0  0  0  0  0  0  0  0  0
   19.1882   17.4762   21.6445 C   0  0  0  0  0  0  0  0  0  0  0  0
   18.6146   17.4896   20.7083 H   0  0  0  0  0  0  0  0  0  0  0  0
   19.5177   16.4433   21.8197 H   0  0  0  0  0  0  0  0  0  0  0  0
   20.3680   18.4496   21.5201 C   0  0  0  0  0  0  0  0  0  0  0  0
   20.7672   18.4727   20.4959 H   0  0  0  0  0  0  0  0  0  0  0  0
   19.7766   19.8061   21.9265 C   0  0  0  0  0  0  0  0  0  0  0  0
   20.5410   20.4952   22.3095 H   0  0  0  0  0  0  0  0  0  0  0  0
   19.3172   20.2731   21.0453 H   0  0  0  0  0  0  0  0  0  0  0  0
   21.3773   18.0822   22.4491 O   0  0  0  0  0  0  0  0  0  0  0  0
   20.9342   18.0885   23.3225 H   0  0  0  0  0  0  0  0  0  0  0  0
  1  2  1  0  0  0  0
  1  3  1  0  0  0  0
  1  4  1  0  0  0  0
  4  5  1  0  0  0  0
  4  6  1  0  0  0  0
  4  7  1  0  0  0  0
  7  8  1  0  0  0  0
  7  9  1  0  0  0  0
  7 10  1  0  0  0  0
 10 11  1  0  0  0  0
  1 12  1  0  0  0  0
 10 12  1  0  0  0  0
 12 13  1  0  0  0  0
 12 14  1  0  0  0  0
 10 15  1  0  0  0  0
 15 16  1  0  0  0  0
M  END
> <VConfSearch Rank>
738

> <Conf_Id>
20

> <Delta U+W>
-0.483

> <U+W>
2.527

> <U>
4.508

> <W>
-1.981

> <W(PB)>
-3.712

> <W(SA)>
1.732

> <Valence>
14.705

> <Coulomb>
-10.687

> <VdW>
0.490

> <VdW6>
-3.745

> <VdW12>
4.235

> <Bond>
0.068

> <Angle>
3.901

> <Pdih>
10.737

> <Idih>
0.000

> <Tether>
0.000

$$$$
VeraChem MOL file


 16 16  0  0  0  0  0  0  0  0999 V2000     
   19.2989   18.0607   20.9479 C   0  0  0  0  0  0  0  0  0  0  0  0
   18.7672   17.1013   21.0149 H   0  0  0  0  0  0  0  0  0  0  0  0
   19.5071   18.2655   19.8889 H   0  0  0  0  0  0  0  0  0  0  0  0
   20.5769   18.0007   21.7956 C   0  0  0  0  0  0  0  0  0  0  0  0
   21.0843   17.0295   21.7188 H   0  0  0  0  0  0  0  0  0  0  0  0
   21.2767   18.7810   21.4652 H   0  0  0  0  0  0  0  0  0  0  0  0
   20.1006   18.3012   23.2286 C   0  0  0  0  0  0  0  0  0  0  0  0
   20.8884   18.7853   23.8200 H   0  0  0  0  0  0  0  0  0  0  0  0
   19.8343   17.3595   23.7278 H   0  0  0  0  0  0  0  0  0  0  0  0
   18.8569   19.2048   23.0930 C   0  0  0  0  0  0  0  0  0  0  0  0
   19.1095   20.2375   23.3742 H   0  0  0  0  0  0  0  0  0  0  0  0
   18.4522   19.1664   21.6048 C   0  0  0  0  0  0  0  0  0  0  0  0
   17.3773   18.9866   21.4696 H   0  0  0  0  0  0  0  0  0  0  0  0
   18.6891   20.1344   21.1444 H   0  0  0  0  0  0  0  0  0  0  0  0
   17.7980   18.7072   23.9023 O   0  0  0  0  0  0  0  0  0  0  0  0
   18.1123   18.7439   24.8304 H   0  0  0  0  0  0  0  0  0  0  0  0
  1  2  1  0  0  0  0
  1  3  1  0  0  0  0
  1  4  1  0  0  0  0
  4  5  1  0  0  0  0
  4  6  1  0  0  0  0
  4  7  1  0  0  0  0
  7  8  1  0  0  0  0
  7  9  1  0  0  0  0
  7 10  1  0  0  0  0
 10 11  1  0  0  0  0
  1 12  1  0  0  0  0
 10 12  1  0  0  0  0
 12 13  1  0  0  0  0
 12 14  1  0  0  0  0
 10 15  1  0  0  0  0
 15 16  1  0  0  0  0
M  END
> <VConfSearch Rank>
739

> <Conf_Id>
59

> <Delta U+W>
0.000

> <U+W>
3.010

> <U>
5.843

> <W>
-2.833

> <W(PB)>
-4.568

> <W(SA)>
1.735

> <Valence>
13.789

> <Coulomb>
-8.574

> <VdW>
0.628

> <VdW6>
-3.284

> <VdW12>
3.912

> <Bond>
0.054

> <Angle>
4.034

> <Pdih>
9.702

> <Idih>
0.000

> <Tether>
0.000

$$$$
VeraChem MOL file


 16 16  0  0  0  0  0  0  0  0999 V2000     
   18.7862   19.4712   23.2302 C   0  0  0  0  0  0  0  0  0  0  0  0
   18.1088   19.3972   24.0918 H   0  0  0  0  0  0  0  0  0  0  0  0
   19.1236   20.5138   23.1469 H   0  0  0  0  0  0  0  0  0  0  0  0
   18.1136   19.0401   21.9197 C   0  0  0  0  0  0  0  0  0  0  0  0
   17.4742   18.1655   22.1043 H   0  0  0  0  0  0  0  0  0  0  0  0
   17.4922   19.8352   21.4857 H   0  0  0  0  0  0  0  0  0  0  0  0
   19.2822   18.6396   21.0004 C   0  0  0  0  0  0  0  0  0  0  0  0
   19.6186   19.5149   20.4297 H   0  0  0  0  0  0  0  0  0  0  0  0
   18.9834   17.8662   20.2802 H   0  0  0  0  0  0  0  0  0  0  0  0
   20.4264   18.1704   21.9226 C   0  0  0  0  0  0  0  0  0  0  0  0
   21.3508   18.7020   21.6539 H   0  0  0  0  0  0  0  0  0  0  0  0
   20.0042   18.5384   23.3607 C   0  0  0  0  0  0  0  0  0  0  0  0
   19.7128   17.6357   23.9147 H   0  0  0  0  0  0  0  0  0  0  0  0
   20.8224   19.0217   23.9101 H   0  0  0  0  0  0  0  0  0  0  0  0
   20.6032   16.7634   21.8078 O   0  0  0  0  0  0  0  0  0  0  0  0
   21.3299   16.5205   22.4197 H   0  0  0  0  0  0  0  0  0  0  0  0
  1  2  1  0  0  0  0
  1  3  1  0  0  0  0
  1  4  1  0  0  0  0
  4  5  1  0  0  0  0
  4  6  1  0  0  0  0
  4  7  1  0  0  0  0
  7  8  1  0  0  0  0
  7  9  1  0  0  0  0
  7 10  1  0  0  0  0
 10 11  1  0  0  0  0
  1 12  1  0  0  0  0
 10 12  1  0  0  0  0
 12 13  1  0  0  0  0
 12 14  1  0  0  0  0
 10 15  1  0  0  0  0
 15 16  1  0  0  0  0
M  END
> <VConfSearch Rank>
740

> <Conf_Id>
33

> <Delta U+W>
0.015

> <U+W>
3.025

> <U>
5.843

> <W>
-2.819

> <W(PB)>
-4.568

> <W(SA)>
1.750

> <Valence>
13.789

> <Coulomb>
-8.574

> <VdW>
0.628

> <VdW6>
-3.284

> <VdW12>
3.913

> <Bond>
0.054

> <Angle>
4.033

> <Pdih>
9.702

> <Idih>
0.000

> <Tether>
0.000

$$$$
VeraChem MOL file


 16 16  0  0  0  0  0  0  0  0999 V2000     
   19.9923   18.0833   23.3213 C   0  0  0  0  0  0  0  0  0  0  0  0
   19.3822   17.3646   23.8856 H   0  0  0  0  0  0  0  0  0  0  0  0
   20.9738   18.1444   23.8111 H   0  0  0  0  0  0  0  0  0  0  0  0
   19.2881   19.4574   23.2874 C   0  0  0  0  0  0  0  0  0  0  0  0
   18.3377   19.4039   23.8363 H   0  0  0  0  0  0  0  0  0  0  0  0
   19.9017   20.2374   23.7586 H   0  0  0  0  0  0  0  0  0  0  0  0
   19.0276   19.7792   21.8004 C   0  0  0  0  0  0  0  0  0  0  0  0
   19.8190   20.4409   21.4243 H   0  0  0  0  0  0  0  0  0  0  0  0
   18.0662   20.2871   21.6467 H   0  0  0  0  0  0  0  0  0  0  0  0
   19.1028   18.4393   21.0560 C   0  0  0  0  0  0  0  0  0  0  0  0
   19.4159   18.5743   20.0107 H   0  0  0  0  0  0  0  0  0  0  0  0
   20.1320   17.6270   21.8534 C   0  0  0  0  0  0  0  0  0  0  0  0
   19.9870   16.5445   21.7384 H   0  0  0  0  0  0  0  0  0  0  0  0
   21.1385   17.8700   21.4880 H   0  0  0  0  0  0  0  0  0  0  0  0
   17.8402   17.7932   21.1274 O   0  0  0  0  0  0  0  0  0  0  0  0
   17.6465   17.7173   22.0844 H   0  0  0  0  0  0  0  0  0  0  0  0
  1  2  1  0  0  0  0
  1  3  1  0  0  0  0
  1  4  1  0  0  0  0
  4  5  1  0  0  0  0
  4  6  1  0  0  0  0
  4  7  1  0  0  0  0
  7  8  1  0  0  0  0
  7  9  1  0  0  0  0
  7 10  1  0  0  0  0
 10 11  1  0  0  0  0
  1 12  1  0  0  0  0
 10 12  1  0  0  0  0
 12 13  1  0  0  0  0
 12 14  1  0  0  0  0
 10 15  1  0  0  0  0
 15 16  1  0  0  0  0
M  END
> <VConfSearch Rank>
741

> <Conf_Id>
20

> <Delta U+W>
-0.483

> <U+W>
2.527

> <U>
4.508

> <W>
-1.981

> <W(PB)>
-3.712

> <W(SA)>
1.732

> <Valence>
14.705

> <Coulomb>
-10.687

> <VdW>
0.490

> <VdW6>
-3.745

> <VdW12>
4.235

> <Bond>
0.068

> <Angle>
3.901

> <Pdih>
10.737

> <Idih>
0.000

> <Tether>
0.000

$$$$
VeraChem MOL file


 16 16  0  0  0  0  0  0  0  0999 V2000     
   19.3781   17.6432   23.4471 C   0  0  0  0  0  0  0  0  0  0  0  0
   18.8133   18.1587   24.2363 H   0  0  0  0  0  0  0  0  0  0  0  0
   19.6653   16.6512   23.8214 H   0  0  0  0  0  0  0  0  0  0  0  0
   20.5920   18.4921   23.0451 C   0  0  0  0  0  0  0  0  0  0  0  0
   21.0729   18.9696   23.9097 H   0  0  0  0  0  0  0  0  0  0  0  0
   21.3369   17.8581   22.5444 H   0  0  0  0  0  0  0  0  0  0  0  0
   20.0273   19.5197   22.0473 C   0  0  0  0  0  0  0  0  0  0  0  0
   20.7871   19.8308   21.3188 H   0  0  0  0  0  0  0  0  0  0  0  0
   19.6979   20.4138   22.5939 H   0  0  0  0  0  0  0  0  0  0  0  0
   18.8248   18.8411   21.3579 C   0  0  0  0  0  0  0  0  0  0  0  0
   19.0895   18.5629   20.3274 H   0  0  0  0  0  0  0  0  0  0  0  0
   18.5230   17.5640   22.1690 C   0  0  0  0  0  0  0  0  0  0  0  0
   17.4549   17.4615   22.4028 H   0  0  0  0  0  0  0  0  0  0  0  0
   18.8212   16.6870   21.5799 H   0  0  0  0  0  0  0  0  0  0  0  0
   17.6974   19.7087   21.3714 O   0  0  0  0  0  0  0  0  0  0  0  0
   17.9478   20.5032   20.8541 H   0  0  0  0  0  0  0  0  0  0  0  0
  1  2  1  0  0  0  0
  1  3  1  0  0  0  0
  1  4  1  0  0  0  0
  4  5  1  0  0  0  0
  4  6  1  0  0  0  0
  4  7  1  0  0  0  0
  7  8  1  0  0  0  0
  7  9  1  0  0  0  0
  7 10  1  0  0  0  0
 10 11  1  0  0  0  0
  1 12  1  0  0  0  0
 10 12  1  0  0  0  0
 12 13  1  0  0  0  0
 12 14  1  0  0  0  0
 10 15  1  0  0  0  0
 15 16  1  0  0  0  0
M  END
> <VConfSearch Rank>
742

> <Conf_Id>
59

> <Delta U+W>
0.000

> <U+W>
3.010

> <U>
5.843

> <W>
-2.833

> <W(PB)>
-4.568

> <W(SA)>
1.735

> <Valence>
13.789

> <Coulomb>
-8.574

> <VdW>
0.628

> <VdW6>
-3.284

> <VdW12>
3.912

> <Bond>
0.054

> <Angle>
4.034

> <Pdih>
9.702

> <Idih>
0.000

> <Tether>
0.000

$$$$
VeraChem MOL file


 16 16  0  0  0  0  0  0  0  0999 V2000     
   19.6117   17.3995   23.0436 C   0  0  0  0  0  0  0  0  0  0  0  0
   19.0078   16.7078   23.6467 H   0  0  0  0  0  0  0  0  0  0  0  0
   20.6052   16.9525   22.8999 H   0  0  0  0  0  0  0  0  0  0  0  0
   19.7560   18.7772   23.7044 C   0  0  0  0  0  0  0  0  0  0  0  0
   18.8023   19.0648   24.1685 H   0  0  0  0  0  0  0  0  0  0  0  0
   20.5341   18.7912   24.4797 H   0  0  0  0  0  0  0  0  0  0  0  0
   20.0710   19.7326   22.5386 C   0  0  0  0  0  0  0  0  0  0  0  0
   21.1576   19.7925   22.3946 H   0  0  0  0  0  0  0  0  0  0  0  0
   19.7042   20.7483   22.7378 H   0  0  0  0  0  0  0  0  0  0  0  0
   19.4299   19.1152   21.2786 C   0  0  0  0  0  0  0  0  0  0  0  0
   20.1827   19.0577   20.4789 H   0  0  0  0  0  0  0  0  0  0  0  0
   18.9712   17.6960   21.6752 C   0  0  0  0  0  0  0  0  0  0  0  0
   17.8773   17.6625   21.7712 H   0  0  0  0  0  0  0  0  0  0  0  0
   19.2667   16.9519   20.9243 H   0  0  0  0  0  0  0  0  0  0  0  0
   18.3138   19.8940   20.8642 O   0  0  0  0  0  0  0  0  0  0  0  0
   17.9411   19.4522   20.0721 H   0  0  0  0  0  0  0  0  0  0  0  0
  1  2  1  0  0  0  0
  1  3  1  0  0  0  0
  1  4  1  0  0  0  0
  4  5  1  0  0  0  0
  4  6  1  0  0  0  0
  4  7  1  0  0  0  0
  7  8  1  0  0  0  0
  7  9  1  0  0  0  0
  7 10  1  0  0  0  0
 10 11  1  0  0  0  0
  1 12  1  0  0  0  0
 10 12  1  0  0  0  0
 12 13  1  0  0  0  0
 12 14  1  0  0  0  0
 10 15  1  0  0  0  0
 15 16  1  0  0  0  0
M  END
> <VConfSearch Rank>
743

> <Conf_Id>
33

> <Delta U+W>
0.015

> <U+W>
3.025

> <U>
5.843

> <W>
-2.819

> <W(PB)>
-4.568

> <W(SA)>
1.750

> <Valence>
13.789

> <Coulomb>
-8.574

> <VdW>
0.628

> <VdW6>
-3.284

> <VdW12>
3.913

> <Bond>
0.054

> <Angle>
4.033

> <Pdih>
9.702

> <Idih>
0.000

> <Tether>
0.000

$$$$
VeraChem MOL file


 16 16  0  0  0  0  0  0  0  0999 V2000     
   20.3361   19.4107   21.7821 C   0  0  0  0  0  0  0  0  0  0  0  0
   21.3580   19.0483   21.9599 H   0  0  0  0  0  0  0  0  0  0  0  0
   20.4096   20.3559   21.2269 H   0  0  0  0  0  0  0  0  0  0  0  0
   19.6036   19.5985   23.1286 C   0  0  0  0  0  0  0  0  0  0  0  0
   20.2713   19.3280   23.9582 H   0  0  0  0  0  0  0  0  0  0  0  0
   19.2930   20.6417   23.2774 H   0  0  0  0  0  0  0  0  0  0  0  0
   18.3824   18.6551   23.0978 C   0  0  0  0  0  0  0  0  0  0  0  0
   17.4888   19.2213   22.8036 H   0  0  0  0  0  0  0  0  0  0  0  0
   18.1826   18.2007   24.0774 H   0  0  0  0  0  0  0  0  0  0  0  0
   18.6837   17.6046   22.0204 C   0  0  0  0  0  0  0  0  0  0  0  0
   17.7611   17.2064   21.5743 H   0  0  0  0  0  0  0  0  0  0  0  0
   19.5293   18.3618   20.9876 C   0  0  0  0  0  0  0  0  0  0  0  0
   20.1767   17.6907   20.4075 H   0  0  0  0  0  0  0  0  0  0  0  0
   18.8591   18.8713   20.2827 H   0  0  0  0  0  0  0  0  0  0  0  0
   19.4627   16.5620   22.5887 O   0  0  0  0  0  0  0  0  0  0  0  0
   20.2538   17.0067   22.9568 H   0  0  0  0  0  0  0  0  0  0  0  0
  1  2  1  0  0  0  0
  1  3  1  0  0  0  0
  1  4  1  0  0  0  0
  4  5  1  0  0  0  0
  4  6  1  0  0  0  0
  4  7  1  0  0  0  0
  7  8  1  0  0  0  0
  7  9  1  0  0  0  0
  7 10  1  0  0  0  0
 10 11  1  0  0  0  0
  1 12  1  0  0  0  0
 10 12  1  0  0  0  0
 12 13  1  0  0  0  0
 12 14  1  0  0  0  0
 10 15  1  0  0  0  0
 15 16  1  0  0  0  0
M  END
> <VConfSearch Rank>
744

> <Conf_Id>
20

> <Delta U+W>
-0.483

> <U+W>
2.527

> <U>
4.508

> <W>
-1.981

> <W(PB)>
-3.712

> <W(SA)>
1.732

> <Valence>
14.705

> <Coulomb>
-10.687

> <VdW>
0.490

> <VdW6>
-3.745

> <VdW12>
4.235

> <Bond>
0.068

> <Angle>
3.901

> <Pdih>
10.737

> <Idih>
0.000

> <Tether>
0.000

$$$$
VeraChem MOL file


 16 16  0  0  0  0  0  0  0  0999 V2000     
   19.6692   17.7476   21.1452 C   0  0  0  0  0  0  0  0  0  0  0  0
   20.7053   18.0082   20.8876 H   0  0  0  0  0  0  0  0  0  0  0  0
   19.3314   16.9601   20.4579 H   0  0  0  0  0  0  0  0  0  0  0  0
   18.7902   19.0038   21.0748 C   0  0  0  0  0  0  0  0  0  0  0  0
   19.0506   19.6491   20.2248 H   0  0  0  0  0  0  0  0  0  0  0  0
   17.7355   18.7118   20.9742 H   0  0  0  0  0  0  0  0  0  0  0  0
   19.0104   19.7018   22.4294 C   0  0  0  0  0  0  0  0  0  0  0  0
   18.1264   20.2778   22.7322 H   0  0  0  0  0  0  0  0  0  0  0  0
   19.8551   20.3991   22.3456 H   0  0  0  0  0  0  0  0  0  0  0  0
   19.3363   18.5868   23.4454 C   0  0  0  0  0  0  0  0  0  0  0  0
   18.4756   18.4193   24.1093 H   0  0  0  0  0  0  0  0  0  0  0  0
   19.5990   17.3102   22.6200 C   0  0  0  0  0  0  0  0  0  0  0  0
   20.5161   16.7933   22.9324 H   0  0  0  0  0  0  0  0  0  0  0  0
   18.7605   16.6154   22.7587 H   0  0  0  0  0  0  0  0  0  0  0  0
   20.4933   18.9312   24.1980 O   0  0  0  0  0  0  0  0  0  0  0  0
   20.2746   19.7501   24.6910 H   0  0  0  0  0  0  0  0  0  0  0  0
  1  2  1  0  0  0  0
  1  3  1  0  0  0  0
  1  4  1  0  0  0  0
  4  5  1  0  0  0  0
  4  6  1  0  0  0  0
  4  7  1  0  0  0  0
  7  8  1  0  0  0  0
  7  9  1  0  0  0  0
  7 10  1  0  0  0  0
 10 11  1  0  0  0  0
  1 12  1  0  0  0  0
 10 12  1  0  0  0  0
 12 13  1  0  0  0  0
 12 14  1  0  0  0  0
 10 15  1  0  0  0  0
 15 16  1  0  0  0  0
M  END
> <VConfSearch Rank>
745

> <Conf_Id>
59

> <Delta U+W>
0.000

> <U+W>
3.010

> <U>
5.843

> <W>
-2.833

> <W(PB)>
-4.568

> <W(SA)>
1.735

> <Valence>
13.789

> <Coulomb>
-8.574

> <VdW>
0.628

> <VdW6>
-3.284

> <VdW12>
3.912

> <Bond>
0.054

> <Angle>
4.034

> <Pdih>
9.702

> <Idih>
0.000

> <Tether>
0.000

$$$$
VeraChem MOL file


 16 16  0  0  0  0  0  0  0  0999 V2000     
   19.6715   17.1987   22.4123 C   0  0  0  0  0  0  0  0  0  0  0  0
   19.6822   16.3010   21.7793 H   0  0  0  0  0  0  0  0  0  0  0  0
   20.0468   16.9220   23.4074 H   0  0  0  0  0  0  0  0  0  0  0  0
   18.2679   17.8062   22.5404 C   0  0  0  0  0  0  0  0  0  0  0  0
   17.7532   17.7519   21.5710 H   0  0  0  0  0  0  0  0  0  0  0  0
   17.6521   17.2860   23.2866 H   0  0  0  0  0  0  0  0  0  0  0  0
   18.5182   19.2801   22.9095 C   0  0  0  0  0  0  0  0  0  0  0  0
   18.5603   19.3844   24.0015 H   0  0  0  0  0  0  0  0  0  0  0  0
   17.7134   19.9310   22.5427 H   0  0  0  0  0  0  0  0  0  0  0  0
   19.8914   19.6552   22.3150 C   0  0  0  0  0  0  0  0  0  0  0  0
   20.5149   20.1091   23.0991 H   0  0  0  0  0  0  0  0  0  0  0  0
   20.5298   18.3366   21.8298 C   0  0  0  0  0  0  0  0  0  0  0  0
   20.5070   18.2837   20.7328 H   0  0  0  0  0  0  0  0  0  0  0  0
   21.5765   18.2535   22.1497 H   0  0  0  0  0  0  0  0  0  0  0  0
   19.7249   20.5511   21.2226 O   0  0  0  0  0  0  0  0  0  0  0  0
   20.6224   20.7453   20.8788 H   0  0  0  0  0  0  0  0  0  0  0  0
  1  2  1  0  0  0  0
  1  3  1  0  0  0  0
  1  4  1  0  0  0  0
  4  5  1  0  0  0  0
  4  6  1  0  0  0  0
  4  7  1  0  0  0  0
  7  8  1  0  0  0  0
  7  9  1  0  0  0  0
  7 10  1  0  0  0  0
 10 11  1  0  0  0  0
  1 12  1  0  0  0  0
 10 12  1  0  0  0  0
 12 13  1  0  0  0  0
 12 14  1  0  0  0  0
 10 15  1  0  0  0  0
 15 16  1  0  0  0  0
M  END
> <VConfSearch Rank>
746

> <Conf_Id>
33

> <Delta U+W>
0.015

> <U+W>
3.025

> <U>
5.843

> <W>
-2.819

> <W(PB)>
-4.568

> <W(SA)>
1.750

> <Valence>
13.789

> <Coulomb>
-8.574

> <VdW>
0.628

> <VdW6>
-3.284

> <VdW12>
3.913

> <Bond>
0.054

> <Angle>
4.033

> <Pdih>
9.702

> <Idih>
0.000

> <Tether>
0.000

$$$$
VeraChem MOL file


 16 16  0  0  0  0  0  0  0  0999 V2000     
   20.5074   19.0550   22.8168 C   0  0  0  0  0  0  0  0  0  0  0  0
   20.9006   19.9779   22.3686 H   0  0  0  0  0  0  0  0  0  0  0  0
   21.1801   18.7701   23.6374 H   0  0  0  0  0  0  0  0  0  0  0  0
   20.4183   17.9470   21.7448 C   0  0  0  0  0  0  0  0  0  0  0  0
   20.7694   18.3333   20.7779 H   0  0  0  0  0  0  0  0  0  0  0  0
   21.0437   17.0820   22.0050 H   0  0  0  0  0  0  0  0  0  0  0  0
   18.9304   17.5476   21.6507 C   0  0  0  0  0  0  0  0  0  0  0  0
   18.7531   16.6480   22.2549 H   0  0  0  0  0  0  0  0  0  0  0  0
   18.6238   17.3237   20.6202 H   0  0  0  0  0  0  0  0  0  0  0  0
   18.1377   18.7159   22.2521 C   0  0  0  0  0  0  0  0  0  0  0  0
   17.1821   18.3792   22.6791 H   0  0  0  0  0  0  0  0  0  0  0  0
   19.0700   19.2827   23.3312 C   0  0  0  0  0  0  0  0  0  0  0  0
   18.8664   20.3408   23.5430 H   0  0  0  0  0  0  0  0  0  0  0  0
   18.9204   18.7208   24.2626 H   0  0  0  0  0  0  0  0  0  0  0  0
   17.9264   19.7017   21.2519 O   0  0  0  0  0  0  0  0  0  0  0  0
   18.8220   19.9378   20.9336 H   0  0  0  0  0  0  0  0  0  0  0  0
  1  2  1  0  0  0  0
  1  3  1  0  0  0  0
  1  4  1  0  0  0  0
  4  5  1  0  0  0  0
  4  6  1  0  0  0  0
  4  7  1  0  0  0  0
  7  8  1  0  0  0  0
  7  9  1  0  0  0  0
  7 10  1  0  0  0  0
 10 11  1  0  0  0  0
  1 12  1  0  0  0  0
 10 12  1  0  0  0  0
 12 13  1  0  0  0  0
 12 14  1  0  0  0  0
 10 15  1  0  0  0  0
 15 16  1  0  0  0  0
M  END
> <VConfSearch Rank>
747

> <Conf_Id>
20

> <Delta U+W>
-0.483

> <U+W>
2.527

> <U>
4.508

> <W>
-1.981

> <W(PB)>
-3.712

> <W(SA)>
1.732

> <Valence>
14.705

> <Coulomb>
-10.687

> <VdW>
0.490

> <VdW6>
-3.745

> <VdW12>
4.235

> <Bond>
0.068

> <Angle>
3.901

> <Pdih>
10.737

> <Idih>
0.000

> <Tether>
0.000

$$$$
VeraChem MOL file


 16 16  0  0  0  0  0  0  0  0999 V2000     
   20.4870   18.7462   23.2099 C   0  0  0  0  0  0  0  0  0  0  0  0
   20.0457   19.1031   24.1509 H   0  0  0  0  0  0  0  0  0  0  0  0
   21.5695   18.6329   23.3586 H   0  0  0  0  0  0  0  0  0  0  0  0
   20.1503   19.7279   22.0791 C   0  0  0  0  0  0  0  0  0  0  0  0
   20.2042   20.7755   22.4052 H   0  0  0  0  0  0  0  0  0  0  0  0
   20.8556   19.5901   21.2477 H   0  0  0  0  0  0  0  0  0  0  0  0
   18.7330   19.3256   21.6319 C   0  0  0  0  0  0  0  0  0  0  0  0
   18.5672   19.5537   20.5711 H   0  0  0  0  0  0  0  0  0  0  0  0
   17.9937   19.8888   22.2177 H   0  0  0  0  0  0  0  0  0  0  0  0
   18.6003   17.8143   21.9146 C   0  0  0  0  0  0  0  0  0  0  0  0
   18.6397   17.2501   20.9714 H   0  0  0  0  0  0  0  0  0  0  0  0
   19.8103   17.4282   22.7902 C   0  0  0  0  0  0  0  0  0  0  0  0
   19.5191   16.8277   23.6623 H   0  0  0  0  0  0  0  0  0  0  0  0
   20.5091   16.8297   22.1913 H   0  0  0  0  0  0  0  0  0  0  0  0
   17.3875   17.5495   22.6095 O   0  0  0  0  0  0  0  0  0  0  0  0
   16.6572   17.8223   22.0147 H   0  0  0  0  0  0  0  0  0  0  0  0
  1  2  1  0  0  0  0
  1  3  1  0  0  0  0
  1  4  1  0  0  0  0
  4  5  1  0  0  0  0
  4  6  1  0  0  0  0
  4  7  1  0  0  0  0
  7  8  1  0  0  0  0
  7  9  1  0  0  0  0
  7 10  1  0  0  0  0
 10 11  1  0  0  0  0
  1 12  1  0  0  0  0
 10 12  1  0  0  0  0
 12 13  1  0  0  0  0
 12 14  1  0  0  0  0
 10 15  1  0  0  0  0
 15 16  1  0  0  0  0
M  END
> <VConfSearch Rank>
748

> <Conf_Id>
59

> <Delta U+W>
0.000

> <U+W>
3.010

> <U>
5.843

> <W>
-2.833

> <W(PB)>
-4.568

> <W(SA)>
1.735

> <Valence>
13.789

> <Coulomb>
-8.574

> <VdW>
0.628

> <VdW6>
-3.284

> <VdW12>
3.912

> <Bond>
0.054

> <Angle>
4.034

> <Pdih>
9.702

> <Idih>
0.000

> <Tether>
0.000

$$$$
VeraChem MOL file


 16 16  0  0  0  0  0  0  0  0999 V2000     
   20.7795   19.0976   22.5430 C   0  0  0  0  0  0  0  0  0  0  0  0
   21.4339   19.3317   23.3937 H   0  0  0  0  0  0  0  0  0  0  0  0
   21.3765   19.1614   21.6225 H   0  0  0  0  0  0  0  0  0  0  0  0
   19.5811   20.0519   22.4482 C   0  0  0  0  0  0  0  0  0  0  0  0
   19.1985   20.2638   23.4563 H   0  0  0  0  0  0  0  0  0  0  0  0
   19.8416   21.0065   21.9712 H   0  0  0  0  0  0  0  0  0  0  0  0
   18.5246   19.2654   21.6505 C   0  0  0  0  0  0  0  0  0  0  0  0
   18.6483   19.4654   20.5782 H   0  0  0  0  0  0  0  0  0  0  0  0
   17.5044   19.5610   21.9297 H   0  0  0  0  0  0  0  0  0  0  0  0
   18.7948   17.7703   21.9177 C   0  0  0  0  0  0  0  0  0  0  0  0
   18.8617   17.2361   20.9587 H   0  0  0  0  0  0  0  0  0  0  0  0
   20.1472   17.6985   22.6578 C   0  0  0  0  0  0  0  0  0  0  0  0
   19.9887   17.4573   23.7177 H   0  0  0  0  0  0  0  0  0  0  0  0
   20.8004   16.9268   22.2304 H   0  0  0  0  0  0  0  0  0  0  0  0
   17.7620   17.2223   22.7282 O   0  0  0  0  0  0  0  0  0  0  0  0
   17.9895   16.2798   22.8746 H   0  0  0  0  0  0  0  0  0  0  0  0
  1  2  1  0  0  0  0
  1  3  1  0  0  0  0
  1  4  1  0  0  0  0
  4  5  1  0  0  0  0
  4  6  1  0  0  0  0
  4  7  1  0  0  0  0
  7  8  1  0  0  0  0
  7  9  1  0  0  0  0
  7 10  1  0  0  0  0
 10 11  1  0  0  0  0
  1 12  1  0  0  0  0
 10 12  1  0  0  0  0
 12 13  1  0  0  0  0
 12 14  1  0  0  0  0
 10 15  1  0  0  0  0
 15 16  1  0  0  0  0
M  END
> <VConfSearch Rank>
749

> <Conf_Id>
33

> <Delta U+W>
0.015

> <U+W>
3.025

> <U>
5.843

> <W>
-2.819

> <W(PB)>
-4.568

> <W(SA)>
1.750

> <Valence>
13.789

> <Coulomb>
-8.574

> <VdW>
0.628

> <VdW6>
-3.284

> <VdW12>
3.913

> <Bond>
0.054

> <Angle>
4.033

> <Pdih>
9.702

> <Idih>
0.000

> <Tether>
0.000

$$$$
VeraChem MOL file


 16 16  0  0  0  0  0  0  0  0999 V2000     
   19.6209   17.2980   22.1939 C   0  0  0  0  0  0  0  0  0  0  0  0
   20.4898   16.9696   22.7807 H   0  0  0  0  0  0  0  0  0  0  0  0
   19.1815   16.4082   21.7225 H   0  0  0  0  0  0  0  0  0  0  0  0
   20.0607   18.3394   21.1418 C   0  0  0  0  0  0  0  0  0  0  0  0
   21.1427   18.5143   21.2186 H   0  0  0  0  0  0  0  0  0  0  0  0
   19.8505   17.9949   20.1200 H   0  0  0  0  0  0  0  0  0  0  0  0
   19.2870   19.6366   21.4600 C   0  0  0  0  0  0  0  0  0  0  0  0
   18.4035   19.7052   20.8118 H   0  0  0  0  0  0  0  0  0  0  0  0
   19.8950   20.5356   21.2923 H   0  0  0  0  0  0  0  0  0  0  0  0
   18.8265   19.5101   22.9184 C   0  0  0  0  0  0  0  0  0  0  0  0
   17.9084   20.0858   23.1042 H   0  0  0  0  0  0  0  0  0  0  0  0
   18.5970   18.0046   23.1076 C   0  0  0  0  0  0  0  0  0  0  0  0
   18.6946   17.6977   24.1575 H   0  0  0  0  0  0  0  0  0  0  0  0
   17.5792   17.7551   22.7798 H   0  0  0  0  0  0  0  0  0  0  0  0
   19.8738   19.9352   23.7781 O   0  0  0  0  0  0  0  0  0  0  0  0
   20.6406   19.3734   23.5427 H   0  0  0  0  0  0  0  0  0  0  0  0
  1  2  1  0  0  0  0
  1  3  1  0  0  0  0
  1  4  1  0  0  0  0
  4  5  1  0  0  0  0
  4  6  1  0  0  0  0
  4  7  1  0  0  0  0
  7  8  1  0  0  0  0
  7  9  1  0  0  0  0
  7 10  1  0  0  0  0
 10 11  1  0  0  0  0
  1 12  1  0  0  0  0
 10 12  1  0  0  0  0
 12 13  1  0  0  0  0
 12 14  1  0  0  0  0
 10 15  1  0  0  0  0
 15 16  1  0  0  0  0
M  END
> <VConfSearch Rank>
750

> <Conf_Id>
20

> <Delta U+W>
-0.483

> <U+W>
2.527

> <U>
4.508

> <W>
-1.981

> <W(PB)>
-3.712

> <W(SA)>
1.732

> <Valence>
14.705

> <Coulomb>
-10.687

> <VdW>
0.490

> <VdW6>
-3.745

> <VdW12>
4.235

> <Bond>
0.068

> <Angle>
3.901

> <Pdih>
10.737

> <Idih>
0.000

> <Tether>
0.000

$$$$
VeraChem MOL file


 16 16  0  0  0  0  0  0  0  0999 V2000     
   19.8541   17.5997   21.3360 C   0  0  0  0  0  0  0  0  0  0  0  0
   20.5202   18.1815   20.6836 H   0  0  0  0  0  0  0  0  0  0  0  0
   19.8882   16.5500   21.0142 H   0  0  0  0  0  0  0  0  0  0  0  0
   18.4365   18.1852   21.2772 C   0  0  0  0  0  0  0  0  0  0  0  0
   18.1554   18.4983   20.2625 H   0  0  0  0  0  0  0  0  0  0  0  0
   17.7115   17.4329   21.6179 H   0  0  0  0  0  0  0  0  0  0  0  0
   18.4677   19.3643   22.2668 C   0  0  0  0  0  0  0  0  0  0  0  0
   17.4793   19.5423   22.7098 H   0  0  0  0  0  0  0  0  0  0  0  0
   18.7684   20.2771   21.7348 H   0  0  0  0  0  0  0  0  0  0  0  0
   19.5143   19.0024   23.3417 C   0  0  0  0  0  0  0  0  0  0  0  0
   19.0107   18.7303   24.2808 H   0  0  0  0  0  0  0  0  0  0  0  0
   20.2845   17.7788   22.8036 C   0  0  0  0  0  0  0  0  0  0  0  0
   21.3724   17.8982   22.8942 H   0  0  0  0  0  0  0  0  0  0  0  0
   19.9968   16.8917   23.3828 H   0  0  0  0  0  0  0  0  0  0  0  0
   20.4055   20.0923   23.5457 O   0  0  0  0  0  0  0  0  0  0  0  0
   19.8641   20.8405   23.8749 H   0  0  0  0  0  0  0  0  0  0  0  0
  1  2  1  0  0  0  0
  1  3  1  0  0  0  0
  1  4  1  0  0  0  0
  4  5  1  0  0  0  0
  4  6  1  0  0  0  0
  4  7  1  0  0  0  0
  7  8  1  0  0  0  0
  7  9  1  0  0  0  0
  7 10  1  0  0  0  0
 10 11  1  0  0  0  0
  1 12  1  0  0  0  0
 10 12  1  0  0  0  0
 12 13  1  0  0  0  0
 12 14  1  0  0  0  0
 10 15  1  0  0  0  0
 15 16  1  0  0  0  0
M  END
> <VConfSearch Rank>
751

> <Conf_Id>
59

> <Delta U+W>
0.000

> <U+W>
3.010

> <U>
5.843

> <W>
-2.833

> <W(PB)>
-4.568

> <W(SA)>
1.735

> <Valence>
13.789

> <Coulomb>
-8.574

> <VdW>
0.628

> <VdW6>
-3.284

> <VdW12>
3.912

> <Bond>
0.054

> <Angle>
4.034

> <Pdih>
9.702

> <Idih>
0.000

> <Tether>
0.000

$$$$
VeraChem MOL file


 16 16  0  0  0  0  0  0  0  0999 V2000     
   19.4020   18.6765   23.7255 C   0  0  0  0  0  0  0  0  0  0  0  0
   19.7612   19.3158   24.5435 H   0  0  0  0  0  0  0  0  0  0  0  0
   18.7144   17.9310   24.1487 H   0  0  0  0  0  0  0  0  0  0  0  0
   20.5485   17.9650   22.9940 C   0  0  0  0  0  0  0  0  0  0  0  0
   21.3994   18.6521   22.8865 H   0  0  0  0  0  0  0  0  0  0  0  0
   20.8947   17.0693   23.5275 H   0  0  0  0  0  0  0  0  0  0  0  0
   19.9730   17.6355   21.6043 C   0  0  0  0  0  0  0  0  0  0  0  0
   19.4990   16.6457   21.6271 H   0  0  0  0  0  0  0  0  0  0  0  0
   20.7581   17.6121   20.8368 H   0  0  0  0  0  0  0  0  0  0  0  0
   18.8976   18.7016   21.3096 C   0  0  0  0  0  0  0  0  0  0  0  0
   17.9634   18.2028   21.0128 H   0  0  0  0  0  0  0  0  0  0  0  0
   18.6857   19.4804   22.6250 C   0  0  0  0  0  0  0  0  0  0  0  0
   19.1369   20.4794   22.5528 H   0  0  0  0  0  0  0  0  0  0  0  0
   17.6192   19.6078   22.8511 H   0  0  0  0  0  0  0  0  0  0  0  0
   19.3463   19.5809   20.2853 O   0  0  0  0  0  0  0  0  0  0  0  0
   18.6333   20.2399   20.1480 H   0  0  0  0  0  0  0  0  0  0  0  0
  1  2  1  0  0  0  0
  1  3  1  0  0  0  0
  1  4  1  0  0  0  0
  4  5  1  0  0  0  0
  4  6  1  0  0  0  0
  4  7  1  0  0  0  0
  7  8  1  0  0  0  0
  7  9  1  0  0  0  0
  7 10  1  0  0  0  0
 10 11  1  0  0  0  0
  1 12  1  0  0  0  0
 10 12  1  0  0  0  0
 12 13  1  0  0  0  0
 12 14  1  0  0  0  0
 10 15  1  0  0  0  0
 15 16  1  0  0  0  0
M  END
> <VConfSearch Rank>
752

> <Conf_Id>
33

> <Delta U+W>
0.015

> <U+W>
3.025

> <U>
5.843

> <W>
-2.819

> <W(PB)>
-4.568

> <W(SA)>
1.750

> <Valence>
13.789

> <Coulomb>
-8.574

> <VdW>
0.628

> <VdW6>
-3.284

> <VdW12>
3.913

> <Bond>
0.054

> <Angle>
4.033

> <Pdih>
9.702

> <Idih>
0.000

> <Tether>
0.000

$$$$
VeraChem MOL file


 16 16  0  0  0  0  0  0  0  0999 V2000     
   18.9825   17.4064   21.8350 C   0  0  0  0  0  0  0  0  0  0  0  0
   19.1963   16.5879   22.5361 H   0  0  0  0  0  0  0  0  0  0  0  0
   18.4698   16.9743   20.9647 H   0  0  0  0  0  0  0  0  0  0  0  0
   20.2975   18.1072   21.4292 C   0  0  0  0  0  0  0  0  0  0  0  0
   21.1477   17.6273   21.9331 H   0  0  0  0  0  0  0  0  0  0  0  0
   20.4721   18.0427   20.3464 H   0  0  0  0  0  0  0  0  0  0  0  0
   20.1686   19.5766   21.8837 C   0  0  0  0  0  0  0  0  0  0  0  0
   19.8532   20.1970   21.0344 H   0  0  0  0  0  0  0  0  0  0  0  0
   21.1182   19.9812   22.2586 H   0  0  0  0  0  0  0  0  0  0  0  0
   19.0665   19.5962   22.9514 C   0  0  0  0  0  0  0  0  0  0  0  0
   18.5597   20.5711   22.9919 H   0  0  0  0  0  0  0  0  0  0  0  0
   18.1079   18.4789   22.5184 C   0  0  0  0  0  0  0  0  0  0  0  0
   17.5344   18.0726   23.3622 H   0  0  0  0  0  0  0  0  0  0  0  0
   17.3915   18.8853   21.7923 H   0  0  0  0  0  0  0  0  0  0  0  0
   19.6308   19.2659   24.2121 O   0  0  0  0  0  0  0  0  0  0  0  0
   20.0552   18.3931   24.0804 H   0  0  0  0  0  0  0  0  0  0  0  0
  1  2  1  0  0  0  0
  1  3  1  0  0  0  0
  1  4  1  0  0  0  0
  4  5  1  0  0  0  0
  4  6  1  0  0  0  0
  4  7  1  0  0  0  0
  7  8  1  0  0  0  0
  7  9  1  0  0  0  0
  7 10  1  0  0  0  0
 10 11  1  0  0  0  0
  1 12  1  0  0  0  0
 10 12  1  0  0  0  0
 12 13  1  0  0  0  0
 12 14  1  0  0  0  0
 10 15  1  0  0  0  0
 15 16  1  0  0  0  0
M  END
> <VConfSearch Rank>
753

> <Conf_Id>
20

> <Delta U+W>
-0.483

> <U+W>
2.527

> <U>
4.508

> <W>
-1.981

> <W(PB)>
-3.712

> <W(SA)>
1.732

> <Valence>
14.705

> <Coulomb>
-10.687

> <VdW>
0.490

> <VdW6>
-3.745

> <VdW12>
4.235

> <Bond>
0.068

> <Angle>
3.901

> <Pdih>
10.737

> <Idih>
0.000

> <Tether>
0.000

$$$$
VeraChem MOL file


 16 16  0  0  0  0  0  0  0  0999 V2000     
   19.5926   17.3867   23.1483 C   0  0  0  0  0  0  0  0  0  0  0  0
   19.4669   17.7444   24.1798 H   0  0  0  0  0  0  0  0  0  0  0  0
   19.7826   16.3052   23.1800 H   0  0  0  0  0  0  0  0  0  0  0  0
   20.7302   18.1622   22.4700 C   0  0  0  0  0  0  0  0  0  0  0  0
   21.5759   18.3416   23.1478 H   0  0  0  0  0  0  0  0  0  0  0  0
   21.0986   17.5955   21.6035 H   0  0  0  0  0  0  0  0  0  0  0  0
   20.0721   19.4706   21.9952 C   0  0  0  0  0  0  0  0  0  0  0  0
   20.5682   19.8673   21.1001 H   0  0  0  0  0  0  0  0  0  0  0  0
   20.1524   20.2263   22.7885 H   0  0  0  0  0  0  0  0  0  0  0  0
   18.5901   19.1377   21.7219 C   0  0  0  0  0  0  0  0  0  0  0  0
   18.4055   19.1048   20.6382 H   0  0  0  0  0  0  0  0  0  0  0  0
   18.3407   17.7395   22.3240 C   0  0  0  0  0  0  0  0  0  0  0  0
   17.4303   17.7061   22.9372 H   0  0  0  0  0  0  0  0  0  0  0  0
   18.2204   17.0148   21.5083 H   0  0  0  0  0  0  0  0  0  0  0  0
   17.7477   20.0986   22.3472 O   0  0  0  0  0  0  0  0  0  0  0  0
   17.9554   20.9644   21.9363 H   0  0  0  0  0  0  0  0  0  0  0  0
  1  2  1  0  0  0  0
  1  3  1  0  0  0  0
  1  4  1  0  0  0  0
  4  5  1  0  0  0  0
  4  6  1  0  0  0  0
  4  7  1  0  0  0  0
  7  8  1  0  0  0  0
  7  9  1  0  0  0  0
  7 10  1  0  0  0  0
 10 11  1  0  0  0  0
  1 12  1  0  0  0  0
 10 12  1  0  0  0  0
 12 13  1  0  0  0  0
 12 14  1  0  0  0  0
 10 15  1  0  0  0  0
 15 16  1  0  0  0  0
M  END
> <VConfSearch Rank>
754

> <Conf_Id>
59

> <Delta U+W>
0.000

> <U+W>
3.010

> <U>
5.843

> <W>
-2.833

> <W(PB)>
-4.568

> <W(SA)>
1.735

> <Valence>
13.789

> <Coulomb>
-8.574

> <VdW>
0.628

> <VdW6>
-3.284

> <VdW12>
3.912

> <Bond>
0.054

> <Angle>
4.034

> <Pdih>
9.702

> <Idih>
0.000

> <Tether>
0.000

$$$$
VeraChem MOL file


 16 16  0  0  0  0  0  0  0  0999 V2000     
   18.3579   17.6831   22.3036 C   0  0  0  0  0  0  0  0  0  0  0  0
   18.1133   16.6893   22.7029 H   0  0  0  0  0  0  0  0  0  0  0  0
   17.4415   18.1190   21.8819 H   0  0  0  0  0  0  0  0  0  0  0  0
   19.4471   17.6267   21.2237 C   0  0  0  0  0  0  0  0  0  0  0  0
   20.2128   16.8926   21.5109 H   0  0  0  0  0  0  0  0  0  0  0  0
   19.0488   17.3417   20.2405 H   0  0  0  0  0  0  0  0  0  0  0  0
   20.0614   19.0387   21.2221 C   0  0  0  0  0  0  0  0  0  0  0  0
   19.5205   19.6750   20.5096 H   0  0  0  0  0  0  0  0  0  0  0  0
   21.1167   19.0201   20.9186 H   0  0  0  0  0  0  0  0  0  0  0  0
   19.8713   19.6027   22.6453 C   0  0  0  0  0  0  0  0  0  0  0  0
   19.4027   20.5958   22.5829 H   0  0  0  0  0  0  0  0  0  0  0  0
   18.9337   18.6215   23.3800 C   0  0  0  0  0  0  0  0  0  0  0  0
   19.5000   18.0301   24.1123 H   0  0  0  0  0  0  0  0  0  0  0  0
   18.1370   19.1511   23.9181 H   0  0  0  0  0  0  0  0  0  0  0  0
   21.1244   19.6784   23.3144 O   0  0  0  0  0  0  0  0  0  0  0  0
   20.9434   20.0302   24.2116 H   0  0  0  0  0  0  0  0  0  0  0  0
  1  2  1  0  0  0  0
  1  3  1  0  0  0  0
  1  4  1  0  0  0  0
  4  5  1  0  0  0  0
  4  6  1  0  0  0  0
  4  7  1  0  0  0  0
  7  8  1  0  0  0  0
  7  9  1  0  0  0  0
  7 10  1  0  0  0  0
 10 11  1  0  0  0  0
  1 12  1  0  0  0  0
 10 12  1  0  0  0  0
 12 13  1  0  0  0  0
 12 14  1  0  0  0  0
 10 15  1  0  0  0  0
 15 16  1  0  0  0  0
M  END
> <VConfSearch Rank>
755

> <Conf_Id>
33

> <Delta U+W>
0.015

> <U+W>
3.025

> <U>
5.843

> <W>
-2.819

> <W(PB)>
-4.568

> <W(SA)>
1.750

> <Valence>
13.789

> <Coulomb>
-8.574

> <VdW>
0.628

> <VdW6>
-3.284

> <VdW12>
3.913

> <Bond>
0.054

> <Angle>
4.033

> <Pdih>
9.702

> <Idih>
0.000

> <Tether>
0.000

$$$$
VeraChem MOL file


 16 16  0  0  0  0  0  0  0  0999 V2000     
   19.6752   18.5613   20.9564 C   0  0  0  0  0  0  0  0  0  0  0  0
   19.0120   17.9147   20.3654 H   0  0  0  0  0  0  0  0  0  0  0  0
   20.4061   19.0073   20.2680 H   0  0  0  0  0  0  0  0  0  0  0  0
   20.3673   17.7338   22.0615 C   0  0  0  0  0  0  0  0  0  0  0  0
   20.0400   16.6865   22.0045 H   0  0  0  0  0  0  0  0  0  0  0  0
   21.4604   17.7477   21.9517 H   0  0  0  0  0  0  0  0  0  0  0  0
   19.9370   18.3545   23.4075 C   0  0  0  0  0  0  0  0  0  0  0  0
   20.7181   19.0400   23.7618 H   0  0  0  0  0  0  0  0  0  0  0  0
   19.7812   17.5950   24.1853 H   0  0  0  0  0  0  0  0  0  0  0  0
   18.6627   19.1586   23.1168 C   0  0  0  0  0  0  0  0  0  0  0  0
   18.5439   19.9964   23.8189 H   0  0  0  0  0  0  0  0  0  0  0  0
   18.8535   19.6518   21.6762 C   0  0  0  0  0  0  0  0  0  0  0  0
   17.8972   19.8514   21.1747 H   0  0  0  0  0  0  0  0  0  0  0  0
   19.4241   20.5898   21.6932 H   0  0  0  0  0  0  0  0  0  0  0  0
   17.5399   18.2906   23.1691 O   0  0  0  0  0  0  0  0  0  0  0  0
   17.7333   17.5843   22.5188 H   0  0  0  0  0  0  0  0  0  0  0  0
  1  2  1  0  0  0  0
  1  3  1  0  0  0  0
  1  4  1  0  0  0  0
  4  5  1  0  0  0  0
  4  6  1  0  0  0  0
  4  7  1  0  0  0  0
  7  8  1  0  0  0  0
  7  9  1  0  0  0  0
  7 10  1  0  0  0  0
 10 11  1  0  0  0  0
  1 12  1  0  0  0  0
 10 12  1  0  0  0  0
 12 13  1  0  0  0  0
 12 14  1  0  0  0  0
 10 15  1  0  0  0  0
 15 16  1  0  0  0  0
M  END
> <VConfSearch Rank>
756

> <Conf_Id>
20

> <Delta U+W>
-0.483

> <U+W>
2.527

> <U>
4.508

> <W>
-1.981

> <W(PB)>
-3.712

> <W(SA)>
1.732

> <Valence>
14.705

> <Coulomb>
-10.687

> <VdW>
0.490

> <VdW6>
-3.745

> <VdW12>
4.235

> <Bond>
0.068

> <Angle>
3.901

> <Pdih>
10.737

> <Idih>
0.000

> <Tether>
0.000

$$$$
VeraChem MOL file


 16 16  0  0  0  0  0  0  0  0999 V2000     
   19.5580   17.1846   22.7594 C   0  0  0  0  0  0  0  0  0  0  0  0
   18.6777   16.6362   22.3962 H   0  0  0  0  0  0  0  0  0  0  0  0
   20.2327   16.4681   23.2473 H   0  0  0  0  0  0  0  0  0  0  0  0
   19.1105   18.3066   23.7063 C   0  0  0  0  0  0  0  0  0  0  0  0
   18.2870   17.9953   24.3634 H   0  0  0  0  0  0  0  0  0  0  0  0
   19.9551   18.6167   24.3372 H   0  0  0  0  0  0  0  0  0  0  0  0
   18.7085   19.4607   22.7698 C   0  0  0  0  0  0  0  0  0  0  0  0
   18.8616   20.4369   23.2476 H   0  0  0  0  0  0  0  0  0  0  0  0
   17.6427   19.3710   22.5195 H   0  0  0  0  0  0  0  0  0  0  0  0
   19.5708   19.3098   21.4988 C   0  0  0  0  0  0  0  0  0  0  0  0
   20.3537   20.0820   21.4813 H   0  0  0  0  0  0  0  0  0  0  0  0
   20.2301   17.9177   21.5838 C   0  0  0  0  0  0  0  0  0  0  0  0
   20.1336   17.3529   20.6469 H   0  0  0  0  0  0  0  0  0  0  0  0
   21.3012   18.0409   21.7903 H   0  0  0  0  0  0  0  0  0  0  0  0
   18.7531   19.3954   20.3378 O   0  0  0  0  0  0  0  0  0  0  0  0
   18.3533   20.2907   20.3407 H   0  0  0  0  0  0  0  0  0  0  0  0
  1  2  1  0  0  0  0
  1  3  1  0  0  0  0
  1  4  1  0  0  0  0
  4  5  1  0  0  0  0
  4  6  1  0  0  0  0
  4  7  1  0  0  0  0
  7  8  1  0  0  0  0
  7  9  1  0  0  0  0
  7 10  1  0  0  0  0
 10 11  1  0  0  0  0
  1 12  1  0  0  0  0
 10 12  1  0  0  0  0
 12 13  1  0  0  0  0
 12 14  1  0  0  0  0
 10 15  1  0  0  0  0
 15 16  1  0  0  0  0
M  END
> <VConfSearch Rank>
757

> <Conf_Id>
59

> <Delta U+W>
0.000

> <U+W>
3.010

> <U>
5.843

> <W>
-2.833

> <W(PB)>
-4.568

> <W(SA)>
1.735

> <Valence>
13.789

> <Coulomb>
-8.574

> <VdW>
0.628

> <VdW6>
-3.284

> <VdW12>
3.912

> <Bond>
0.054

> <Angle>
4.034

> <Pdih>
9.702

> <Idih>
0.000

> <Tether>
0.000

$$$$
VeraChem MOL file


 16 16  0  0  0  0  0  0  0  0999 V2000     
   19.5560   20.0384   22.1671 C   0  0  0  0  0  0  0  0  0  0  0  0
   20.1781   20.8640   22.5390 H   0  0  0  0  0  0  0  0  0  0  0  0
   18.8900   20.4342   21.3877 H   0  0  0  0  0  0  0  0  0  0  0  0
   18.7208   19.3897   23.2794 C   0  0  0  0  0  0  0  0  0  0  0  0
   19.3208   19.3197   24.1974 H   0  0  0  0  0  0  0  0  0  0  0  0
   17.8096   19.9597   23.5065 H   0  0  0  0  0  0  0  0  0  0  0  0
   18.4135   17.9749   22.7551 C   0  0  0  0  0  0  0  0  0  0  0  0
   17.4742   17.9883   22.1872 H   0  0  0  0  0  0  0  0  0  0  0  0
   18.2966   17.2557   23.5768 H   0  0  0  0  0  0  0  0  0  0  0  0
   19.5696   17.5968   21.8062 C   0  0  0  0  0  0  0  0  0  0  0  0
   19.1550   17.2547   20.8467 H   0  0  0  0  0  0  0  0  0  0  0  0
   20.3972   18.8823   21.5957 C   0  0  0  0  0  0  0  0  0  0  0  0
   21.3466   18.8180   22.1446 H   0  0  0  0  0  0  0  0  0  0  0  0
   20.6310   19.0425   20.5353 H   0  0  0  0  0  0  0  0  0  0  0  0
   20.3767   16.5843   22.3954 O   0  0  0  0  0  0  0  0  0  0  0  0
   21.0970   16.3926   21.7583 H   0  0  0  0  0  0  0  0  0  0  0  0
  1  2  1  0  0  0  0
  1  3  1  0  0  0  0
  1  4  1  0  0  0  0
  4  5  1  0  0  0  0
  4  6  1  0  0  0  0
  4  7  1  0  0  0  0
  7  8  1  0  0  0  0
  7  9  1  0  0  0  0
  7 10  1  0  0  0  0
 10 11  1  0  0  0  0
  1 12  1  0  0  0  0
 10 12  1  0  0  0  0
 12 13  1  0  0  0  0
 12 14  1  0  0  0  0
 10 15  1  0  0  0  0
 15 16  1  0  0  0  0
M  END
> <VConfSearch Rank>
758

> <Conf_Id>
33

> <Delta U+W>
0.015

> <U+W>
3.025

> <U>
5.843

> <W>
-2.819

> <W(PB)>
-4.568

> <W(SA)>
1.750

> <Valence>
13.789

> <Coulomb>
-8.574

> <VdW>
0.628

> <VdW6>
-3.284

> <VdW12>
3.913

> <Bond>
0.054

> <Angle>
4.033

> <Pdih>
9.702

> <Idih>
0.000

> <Tether>
0.000

$$$$
VeraChem MOL file


 16 16  0  0  0  0  0  0  0  0999 V2000     
   18.5496   19.0765   23.1966 C   0  0  0  0  0  0  0  0  0  0  0  0
   19.0373   19.6920   23.9651 H   0  0  0  0  0  0  0  0  0  0  0  0
   17.4766   19.0405   23.4299 H   0  0  0  0  0  0  0  0  0  0  0  0
   19.1748   17.6645   23.1797 C   0  0  0  0  0  0  0  0  0  0  0  0
   19.9643   17.5962   23.9408 H   0  0  0  0  0  0  0  0  0  0  0  0
   18.4286   16.8897   23.4032 H   0  0  0  0  0  0  0  0  0  0  0  0
   19.7738   17.4679   21.7708 C   0  0  0  0  0  0  0  0  0  0  0  0
   19.0674   16.9043   21.1472 H   0  0  0  0  0  0  0  0  0  0  0  0
   20.7185   16.9085   21.7946 H   0  0  0  0  0  0  0  0  0  0  0  0
   19.9458   18.8746   21.1820 C   0  0  0  0  0  0  0  0  0  0  0  0
   19.8906   18.8630   20.0839 H   0  0  0  0  0  0  0  0  0  0  0  0
   18.7932   19.6797   21.7969 C   0  0  0  0  0  0  0  0  0  0  0  0
   19.0130   20.7548   21.8395 H   0  0  0  0  0  0  0  0  0  0  0  0
   17.8956   19.5465   21.1787 H   0  0  0  0  0  0  0  0  0  0  0  0
   21.1823   19.4176   21.6214 O   0  0  0  0  0  0  0  0  0  0  0  0
   21.1405   19.3875   22.5994 H   0  0  0  0  0  0  0  0  0  0  0  0
  1  2  1  0  0  0  0
  1  3  1  0  0  0  0
  1  4  1  0  0  0  0
  4  5  1  0  0  0  0
  4  6  1  0  0  0  0
  4  7  1  0  0  0  0
  7  8  1  0  0  0  0
  7  9  1  0  0  0  0
  7 10  1  0  0  0  0
 10 11  1  0  0  0  0
  1 12  1  0  0  0  0
 10 12  1  0  0  0  0
 12 13  1  0  0  0  0
 12 14  1  0  0  0  0
 10 15  1  0  0  0  0
 15 16  1  0  0  0  0
M  END
> <VConfSearch Rank>
759

> <Conf_Id>
20

> <Delta U+W>
-0.483

> <U+W>
2.527

> <U>
4.508

> <W>
-1.981

> <W(PB)>
-3.712

> <W(SA)>
1.732

> <Valence>
14.705

> <Coulomb>
-10.687

> <VdW>
0.490

> <VdW6>
-3.745

> <VdW12>
4.235

> <Bond>
0.068

> <Angle>
3.901

> <Pdih>
10.737

> <Idih>
0.000

> <Tether>
0.000

$$$$
VeraChem MOL file


 16 16  0  0  0  0  0  0  0  0999 V2000     
   18.3323   18.7397   21.3007 C   0  0  0  0  0  0  0  0  0  0  0  0
   17.9770   17.7264   21.0670 H   0  0  0  0  0  0  0  0  0  0  0  0
   17.7336   19.4562   20.7222 H   0  0  0  0  0  0  0  0  0  0  0  0
   19.8319   18.8433   20.9903 C   0  0  0  0  0  0  0  0  0  0  0  0
   20.1057   18.3115   20.0689 H   0  0  0  0  0  0  0  0  0  0  0  0
   20.1132   19.8992   20.8742 H   0  0  0  0  0  0  0  0  0  0  0  0
   20.5221   18.2541   22.2340 C   0  0  0  0  0  0  0  0  0  0  0  0
   21.5108   18.7030   22.3945 H   0  0  0  0  0  0  0  0  0  0  0  0
   20.6609   17.1733   22.0947 H   0  0  0  0  0  0  0  0  0  0  0  0
   19.5771   18.5228   23.4242 C   0  0  0  0  0  0  0  0  0  0  0  0
   19.9853   19.3260   24.0549 H   0  0  0  0  0  0  0  0  0  0  0  0
   18.2352   18.9829   22.8181 C   0  0  0  0  0  0  0  0  0  0  0  0
   17.3772   18.4570   23.2578 H   0  0  0  0  0  0  0  0  0  0  0  0
   18.1041   20.0555   23.0117 H   0  0  0  0  0  0  0  0  0  0  0  0
   19.3911   17.3330   24.1817 O   0  0  0  0  0  0  0  0  0  0  0  0
   20.2720   17.0817   24.5315 H   0  0  0  0  0  0  0  0  0  0  0  0
  1  2  1  0  0  0  0
  1  3  1  0  0  0  0
  1  4  1  0  0  0  0
  4  5  1  0  0  0  0
  4  6  1  0  0  0  0
  4  7  1  0  0  0  0
  7  8  1  0  0  0  0
  7  9  1  0  0  0  0
  7 10  1  0  0  0  0
 10 11  1  0  0  0  0
  1 12  1  0  0  0  0
 10 12  1  0  0  0  0
 12 13  1  0  0  0  0
 12 14  1  0  0  0  0
 10 15  1  0  0  0  0
 15 16  1  0  0  0  0
M  END
> <VConfSearch Rank>
760

> <Conf_Id>
59

> <Delta U+W>
0.000

> <U+W>
3.010

> <U>
5.843

> <W>
-2.833

> <W(PB)>
-4.568

> <W(SA)>
1.735

> <Valence>
13.789

> <Coulomb>
-8.574

> <VdW>
0.628

> <VdW6>
-3.284

> <VdW12>
3.912

> <Bond>
0.054

> <Angle>
4.034

> <Pdih>
9.702

> <Idih>
0.000

> <Tether>
0.000

$$$$
VeraChem MOL file


 16 16  0  0  0  0  0  0  0  0999 V2000     
   20.0183   19.3921   21.2285 C   0  0  0  0  0  0  0  0  0  0  0  0
   20.2074   19.3152   20.1492 H   0  0  0  0  0  0  0  0  0  0  0  0
   20.2406   20.4210   21.5439 H   0  0  0  0  0  0  0  0  0  0  0  0
   20.8694   18.4075   22.0422 C   0  0  0  0  0  0  0  0  0  0  0  0
   20.9283   17.4465   21.5124 H   0  0  0  0  0  0  0  0  0  0  0  0
   21.8921   18.7733   22.2063 H   0  0  0  0  0  0  0  0  0  0  0  0
   20.0926   18.2236   23.3589 C   0  0  0  0  0  0  0  0  0  0  0  0
   20.4263   18.9705   24.0909 H   0  0  0  0  0  0  0  0  0  0  0  0
   20.2640   17.2300   23.7941 H   0  0  0  0  0  0  0  0  0  0  0  0
   18.6057   18.4705   23.0306 C   0  0  0  0  0  0  0  0  0  0  0  0
   18.1948   19.2062   23.7373 H   0  0  0  0  0  0  0  0  0  0  0  0
   18.5657   19.0371   21.5956 C   0  0  0  0  0  0  0  0  0  0  0  0
   18.1897   18.2774   20.8967 H   0  0  0  0  0  0  0  0  0  0  0  0
   17.9088   19.9137   21.5261 H   0  0  0  0  0  0  0  0  0  0  0  0
   17.8794   17.2490   23.0964 O   0  0  0  0  0  0  0  0  0  0  0  0
   16.9496   17.4621   22.8693 H   0  0  0  0  0  0  0  0  0  0  0  0
  1  2  1  0  0  0  0
  1  3  1  0  0  0  0
  1  4  1  0  0  0  0
  4  5  1  0  0  0  0
  4  6  1  0  0  0  0
  4  7  1  0  0  0  0
  7  8  1  0  0  0  0
  7  9  1  0  0  0  0
  7 10  1  0  0  0  0
 10 11  1  0  0  0  0
  1 12  1  0  0  0  0
 10 12  1  0  0  0  0
 12 13  1  0  0  0  0
 12 14  1  0  0  0  0
 10 15  1  0  0  0  0
 15 16  1  0  0  0  0
M  END
> <VConfSearch Rank>
761

> <Conf_Id>
33

> <Delta U+W>
0.015

> <U+W>
3.025

> <U>
5.843

> <W>
-2.819

> <W(PB)>
-4.568

> <W(SA)>
1.750

> <Valence>
13.789

> <Coulomb>
-8.574

> <VdW>
0.628

> <VdW6>
-3.284

> <VdW12>
3.913

> <Bond>
0.054

> <Angle>
4.033

> <Pdih>
9.702

> <Idih>
0.000

> <Tether>
0.000

$$$$
VeraChem MOL file


 16 16  0  0  0  0  0  0  0  0999 V2000     
   19.5731   17.2924   22.3593 C   0  0  0  0  0  0  0  0  0  0  0  0
   20.5731   17.0092   22.7157 H   0  0  0  0  0  0  0  0  0  0  0  0
   19.0012   16.3677   22.2017 H   0  0  0  0  0  0  0  0  0  0  0  0
   19.6928   18.1149   21.0577 C   0  0  0  0  0  0  0  0  0  0  0  0
   20.7507   18.2289   20.7836 H   0  0  0  0  0  0  0  0  0  0  0  0
   19.1827   17.6209   20.2194 H   0  0  0  0  0  0  0  0  0  0  0  0
   19.0668   19.4946   21.3527 C   0  0  0  0  0  0  0  0  0  0  0  0
   18.0310   19.5128   20.9888 H   0  0  0  0  0  0  0  0  0  0  0  0
   19.6090   20.3119   20.8587 H   0  0  0  0  0  0  0  0  0  0  0  0
   19.0608   19.6408   22.8803 C   0  0  0  0  0  0  0  0  0  0  0  0
   18.2477   20.2981   23.2207 H   0  0  0  0  0  0  0  0  0  0  0  0
   18.8781   18.2055   23.3916 C   0  0  0  0  0  0  0  0  0  0  0  0
   19.2804   18.0703   24.4045 H   0  0  0  0  0  0  0  0  0  0  0  0
   17.8056   17.9724   23.4242 H   0  0  0  0  0  0  0  0  0  0  0  0
   20.3225   20.1326   23.3080 O   0  0  0  0  0  0  0  0  0  0  0  0
   20.9766   19.4907   22.9627 H   0  0  0  0  0  0  0  0  0  0  0  0
  1  2  1  0  0  0  0
  1  3  1  0  0  0  0
  1  4  1  0  0  0  0
  4  5  1  0  0  0  0
  4  6  1  0  0  0  0
  4  7  1  0  0  0  0
  7  8  1  0  0  0  0
  7  9  1  0  0  0  0
  7 10  1  0  0  0  0
 10 11  1  0  0  0  0
  1 12  1  0  0  0  0
 10 12  1  0  0  0  0
 12 13  1  0  0  0  0
 12 14  1  0  0  0  0
 10 15  1  0  0  0  0
 15 16  1  0  0  0  0
M  END
> <VConfSearch Rank>
762

> <Conf_Id>
20

> <Delta U+W>
-0.483

> <U+W>
2.527

> <U>
4.508

> <W>
-1.981

> <W(PB)>
-3.712

> <W(SA)>
1.732

> <Valence>
14.705

> <Coulomb>
-10.687

> <VdW>
0.490

> <VdW6>
-3.745

> <VdW12>
4.235

> <Bond>
0.068

> <Angle>
3.901

> <Pdih>
10.737

> <Idih>
0.000

> <Tether>
0.000

$$$$
VeraChem MOL file


 16 16  0  0  0  0  0  0  0  0999 V2000     
   19.5127   17.9305   23.6184 C   0  0  0  0  0  0  0  0  0  0  0  0
   20.5338   17.5241   23.6199 H   0  0  0  0  0  0  0  0  0  0  0  0
   19.0680   17.7473   24.6059 H   0  0  0  0  0  0  0  0  0  0  0  0
   18.7047   17.2871   22.4831 C   0  0  0  0  0  0  0  0  0  0  0  0
   18.9220   16.2162   22.3703 H   0  0  0  0  0  0  0  0  0  0  0  0
   17.6303   17.4004   22.6839 H   0  0  0  0  0  0  0  0  0  0  0  0
   19.0892   18.0980   21.2320 C   0  0  0  0  0  0  0  0  0  0  0  0
   18.2717   18.1175   20.4998 H   0  0  0  0  0  0  0  0  0  0  0  0
   19.9612   17.6334   20.7518 H   0  0  0  0  0  0  0  0  0  0  0  0
   19.4430   19.5169   21.7251 C   0  0  0  0  0  0  0  0  0  0  0  0
   18.6393   20.2190   21.4593 H   0  0  0  0  0  0  0  0  0  0  0  0
   19.5543   19.4278   23.2612 C   0  0  0  0  0  0  0  0  0  0  0  0
   20.4651   19.9091   23.6417 H   0  0  0  0  0  0  0  0  0  0  0  0
   18.6937   19.9383   23.7127 H   0  0  0  0  0  0  0  0  0  0  0  0
   20.6826   19.9358   21.1668 O   0  0  0  0  0  0  0  0  0  0  0  0
   20.5580   19.9639   20.1946 H   0  0  0  0  0  0  0  0  0  0  0  0
  1  2  1  0  0  0  0
  1  3  1  0  0  0  0
  1  4  1  0  0  0  0
  4  5  1  0  0  0  0
  4  6  1  0  0  0  0
  4  7  1  0  0  0  0
  7  8  1  0  0  0  0
  7  9  1  0  0  0  0
  7 10  1  0  0  0  0
 10 11  1  0  0  0  0
  1 12  1  0  0  0  0
 10 12  1  0  0  0  0
 12 13  1  0  0  0  0
 12 14  1  0  0  0  0
 10 15  1  0  0  0  0
 15 16  1  0  0  0  0
M  END
> <VConfSearch Rank>
763

> <Conf_Id>
59

> <Delta U+W>
0.000

> <U+W>
3.010

> <U>
5.843

> <W>
-2.833

> <W(PB)>
-4.568

> <W(SA)>
1.735

> <Valence>
13.789

> <Coulomb>
-8.574

> <VdW>
0.628

> <VdW6>
-3.284

> <VdW12>
3.912

> <Bond>
0.054

> <Angle>
4.034

> <Pdih>
9.702

> <Idih>
0.000

> <Tether>
0.000

$$$$
VeraChem MOL file


 16 16  0  0  0  0  0  0  0  0999 V2000     
   19.6552   20.0206   22.1035 C   0  0  0  0  0  0  0  0  0  0  0  0
   19.4767   20.7932   21.3432 H   0  0  0  0  0  0  0  0  0  0  0  0
   19.9938   20.5162   23.0240 H   0  0  0  0  0  0  0  0  0  0  0  0
   20.7027   18.9919   21.6558 C   0  0  0  0  0  0  0  0  0  0  0  0
   20.5607   18.7613   20.5908 H   0  0  0  0  0  0  0  0  0  0  0  0
   21.7309   19.3520   21.7958 H   0  0  0  0  0  0  0  0  0  0  0  0
   20.3984   17.7402   22.4995 C   0  0  0  0  0  0  0  0  0  0  0  0
   20.9724   17.7776   23.4345 H   0  0  0  0  0  0  0  0  0  0  0  0
   20.6793   16.8189   21.9719 H   0  0  0  0  0  0  0  0  0  0  0  0
   18.8926   17.7889   22.8314 C   0  0  0  0  0  0  0  0  0  0  0  0
   18.7552   17.6625   23.9152 H   0  0  0  0  0  0  0  0  0  0  0  0
   18.3963   19.1836   22.3952 C   0  0  0  0  0  0  0  0  0  0  0  0
   17.7930   19.1041   21.4806 H   0  0  0  0  0  0  0  0  0  0  0  0
   17.7745   19.6510   23.1696 H   0  0  0  0  0  0  0  0  0  0  0  0
   18.1991   16.7747   22.1143 O   0  0  0  0  0  0  0  0  0  0  0  0
   17.2518   16.8591   22.3530 H   0  0  0  0  0  0  0  0  0  0  0  0
  1  2  1  0  0  0  0
  1  3  1  0  0  0  0
  1  4  1  0  0  0  0
  4  5  1  0  0  0  0
  4  6  1  0  0  0  0
  4  7  1  0  0  0  0
  7  8  1  0  0  0  0
  7  9  1  0  0  0  0
  7 10  1  0  0  0  0
 10 11  1  0  0  0  0
  1 12  1  0  0  0  0
 10 12  1  0  0  0  0
 12 13  1  0  0  0  0
 12 14  1  0  0  0  0
 10 15  1  0  0  0  0
 15 16  1  0  0  0  0
M  END
> <VConfSearch Rank>
764

> <Conf_Id>
33

> <Delta U+W>
0.015

> <U+W>
3.025

> <U>
5.843

> <W>
-2.819

> <W(PB)>
-4.568

> <W(SA)>
1.750

> <Valence>
13.789

> <Coulomb>
-8.574

> <VdW>
0.628

> <VdW6>
-3.284

> <VdW12>
3.913

> <Bond>
0.054

> <Angle>
4.033

> <Pdih>
9.702

> <Idih>
0.000

> <Tether>
0.000

$$$$
VeraChem MOL file


 16 16  0  0  0  0  0  0  0  0999 V2000     
   18.4882   19.5526   22.5818 C   0  0  0  0  0  0  0  0  0  0  0  0
   18.7697   20.5672   22.2678 H   0  0  0  0  0  0  0  0  0  0  0  0
   17.5085   19.6160   23.0748 H   0  0  0  0  0  0  0  0  0  0  0  0
   19.5645   18.9785   23.5289 C   0  0  0  0  0  0  0  0  0  0  0  0
   20.3662   19.7156   23.6741 H   0  0  0  0  0  0  0  0  0  0  0  0
   19.1475   18.7406   24.5171 H   0  0  0  0  0  0  0  0  0  0  0  0
   20.1215   17.7131   22.8426 C   0  0  0  0  0  0  0  0  0  0  0  0
   19.6247   16.8242   23.2533 H   0  0  0  0  0  0  0  0  0  0  0  0
   21.2018   17.5952   23.0007 H   0  0  0  0  0  0  0  0  0  0  0  0
   19.7623   17.8426   21.3562 C   0  0  0  0  0  0  0  0  0  0  0  0
   19.6584   16.8581   20.8778 H   0  0  0  0  0  0  0  0  0  0  0  0
   18.4345   18.6120   21.3592 C   0  0  0  0  0  0  0  0  0  0  0  0
   18.2679   19.1579   20.4210 H   0  0  0  0  0  0  0  0  0  0  0  0
   17.6091   17.8982   21.4815 H   0  0  0  0  0  0  0  0  0  0  0  0
   20.7529   18.6219   20.7018 O   0  0  0  0  0  0  0  0  0  0  0  0
   20.7743   19.4700   21.1913 H   0  0  0  0  0  0  0  0  0  0  0  0
  1  2  1  0  0  0  0
  1  3  1  0  0  0  0
  1  4  1  0  0  0  0
  4  5  1  0  0  0  0
  4  6  1  0  0  0  0
  4  7  1  0  0  0  0
  7  8  1  0  0  0  0
  7  9  1  0  0  0  0
  7 10  1  0  0  0  0
 10 11  1  0  0  0  0
  1 12  1  0  0  0  0
 10 12  1  0  0  0  0
 12 13  1  0  0  0  0
 12 14  1  0  0  0  0
 10 15  1  0  0  0  0
 15 16  1  0  0  0  0
M  END
> <VConfSearch Rank>
765

> <Conf_Id>
20

> <Delta U+W>
-0.483

> <U+W>
2.527

> <U>
4.508

> <W>
-1.981

> <W(PB)>
-3.712

> <W(SA)>
1.732

> <Valence>
14.705

> <Coulomb>
-10.687

> <VdW>
0.490

> <VdW6>
-3.745

> <VdW12>
4.235

> <Bond>
0.068

> <Angle>
3.901

> <Pdih>
10.737

> <Idih>
0.000

> <Tether>
0.000

$$$$
VeraChem MOL file


 16 16  0  0  0  0  0  0  0  0999 V2000     
   18.7680   18.2945   21.0110 C   0  0  0  0  0  0  0  0  0  0  0  0
   18.0860   17.4479   21.1714 H   0  0  0  0  0  0  0  0  0  0  0  0
   18.6751   18.6181   19.9654 H   0  0  0  0  0  0  0  0  0  0  0  0
   20.2004   17.8761   21.3700 C   0  0  0  0  0  0  0  0  0  0  0  0
   20.4310   16.8527   21.0441 H   0  0  0  0  0  0  0  0  0  0  0  0
   20.9160   18.5587   20.8908 H   0  0  0  0  0  0  0  0  0  0  0  0
   20.2738   18.0345   22.8997 C   0  0  0  0  0  0  0  0  0  0  0  0
   21.2933   18.2723   23.2299 H   0  0  0  0  0  0  0  0  0  0  0  0
   19.9759   17.0912   23.3773 H   0  0  0  0  0  0  0  0  0  0  0  0
   19.2816   19.1574   23.2688 C   0  0  0  0  0  0  0  0  0  0  0  0
   19.8307   20.0723   23.5353 H   0  0  0  0  0  0  0  0  0  0  0  0
   18.4347   19.4209   22.0066 C   0  0  0  0  0  0  0  0  0  0  0  0
   17.3595   19.4607   22.2269 H   0  0  0  0  0  0  0  0  0  0  0  0
   18.7234   20.3893   21.5775 H   0  0  0  0  0  0  0  0  0  0  0  0
   18.4460   18.7410   24.3422 O   0  0  0  0  0  0  0  0  0  0  0  0
   19.0342   18.5779   25.1096 H   0  0  0  0  0  0  0  0  0  0  0  0
  1  2  1  0  0  0  0
  1  3  1  0  0  0  0
  1  4  1  0  0  0  0
  4  5  1  0  0  0  0
  4  6  1  0  0  0  0
  4  7  1  0  0  0  0
  7  8  1  0  0  0  0
  7  9  1  0  0  0  0
  7 10  1  0  0  0  0
 10 11  1  0  0  0  0
  1 12  1  0  0  0  0
 10 12  1  0  0  0  0
 12 13  1  0  0  0  0
 12 14  1  0  0  0  0
 10 15  1  0  0  0  0
 15 16  1  0  0  0  0
M  END
> <VConfSearch Rank>
766

> <Conf_Id>
59

> <Delta U+W>
0.000

> <U+W>
3.010

> <U>
5.843

> <W>
-2.833

> <W(PB)>
-4.568

> <W(SA)>
1.735

> <Valence>
13.789

> <Coulomb>
-8.574

> <VdW>
0.628

> <VdW6>
-3.284

> <VdW12>
3.912

> <Bond>
0.054

> <Angle>
4.034

> <Pdih>
9.702

> <Idih>
0.000

> <Tether>
0.000

$$$$
VeraChem MOL file


 16 16  0  0  0  0  0  0  0  0999 V2000     
   18.3087   18.8508   23.1269 C   0  0  0  0  0  0  0  0  0  0  0  0
   17.9020   18.5272   24.0947 H   0  0  0  0  0  0  0  0  0  0  0  0
   17.6931   19.6822   22.7562 H   0  0  0  0  0  0  0  0  0  0  0  0
   18.3237   17.7178   22.0916 C   0  0  0  0  0  0  0  0  0  0  0  0
   18.6166   16.7774   22.5789 H   0  0  0  0  0  0  0  0  0  0  0  0
   17.3438   17.5693   21.6179 H   0  0  0  0  0  0  0  0  0  0  0  0
   19.4081   18.1341   21.0807 C   0  0  0  0  0  0  0  0  0  0  0  0
   18.9548   18.7327   20.2798 H   0  0  0  0  0  0  0  0  0  0  0  0
   19.8843   17.2606   20.6158 H   0  0  0  0  0  0  0  0  0  0  0  0
   20.4168   19.0091   21.8531 C   0  0  0  0  0  0  0  0  0  0  0  0
   20.5739   19.9507   21.3070 H   0  0  0  0  0  0  0  0  0  0  0  0
   19.7790   19.2964   23.2287 C   0  0  0  0  0  0  0  0  0  0  0  0
   20.2822   18.7122   24.0112 H   0  0  0  0  0  0  0  0  0  0  0  0
   19.8587   20.3579   23.4966 H   0  0  0  0  0  0  0  0  0  0  0  0
   21.6458   18.3116   22.0179 O   0  0  0  0  0  0  0  0  0  0  0  0
   22.2412   18.9060   22.5215 H   0  0  0  0  0  0  0  0  0  0  0  0
  1  2  1  0  0  0  0
  1  3  1  0  0  0  0
  1  4  1  0  0  0  0
  4  5  1  0  0  0  0
  4  6  1  0  0  0  0
  4  7  1  0  0  0  0
  7  8  1  0  0  0  0
  7  9  1  0  0  0  0
  7 10  1  0  0  0  0
 10 11  1  0  0  0  0
  1 12  1  0  0  0  0
 10 12  1  0  0  0  0
 12 13  1  0  0  0  0
 12 14  1  0  0  0  0
 10 15  1  0  0  0  0
 15 16  1  0  0  0  0
M  END
> <VConfSearch Rank>
767

> <Conf_Id>
33

> <Delta U+W>
0.015

> <U+W>
3.025

> <U>
5.843

> <W>
-2.819

> <W(PB)>
-4.568

> <W(SA)>
1.750

> <Valence>
13.789

> <Coulomb>
-8.574

> <VdW>
0.628

> <VdW6>
-3.284

> <VdW12>
3.913

> <Bond>
0.054

> <Angle>
4.033

> <Pdih>
9.702

> <Idih>
0.000

> <Tether>
0.000

$$$$
VeraChem MOL file


 16 16  0  0  0  0  0  0  0  0999 V2000     
   20.3990   17.7706   22.0630 C   0  0  0  0  0  0  0  0  0  0  0  0
   20.0985   16.7464   21.8026 H   0  0  0  0  0  0  0  0  0  0  0  0
   21.4971   17.8045   22.0689 H   0  0  0  0  0  0  0  0  0  0  0  0
   19.8114   18.1569   23.4380 C   0  0  0  0  0  0  0  0  0  0  0  0
   19.2275   17.3192   23.8435 H   0  0  0  0  0  0  0  0  0  0  0  0
   20.6022   18.3937   24.1629 H   0  0  0  0  0  0  0  0  0  0  0  0
   18.8970   19.3766   23.1961 C   0  0  0  0  0  0  0  0  0  0  0  0
   19.4435   20.2982   23.4361 H   0  0  0  0  0  0  0  0  0  0  0  0
   17.9946   19.3508   23.8215 H   0  0  0  0  0  0  0  0  0  0  0  0
   18.5660   19.3694   21.6977 C   0  0  0  0  0  0  0  0  0  0  0  0
   18.3579   20.3824   21.3244 H   0  0  0  0  0  0  0  0  0  0  0  0
   19.8185   18.7722   21.0421 C   0  0  0  0  0  0  0  0  0  0  0  0
   19.5972   18.3003   20.0755 H   0  0  0  0  0  0  0  0  0  0  0  0
   20.5448   19.5760   20.8630 H   0  0  0  0  0  0  0  0  0  0  0  0
   17.4612   18.5074   21.4669 O   0  0  0  0  0  0  0  0  0  0  0  0
   17.7356   17.6393   21.8278 H   0  0  0  0  0  0  0  0  0  0  0  0
  1  2  1  0  0  0  0
  1  3  1  0  0  0  0
  1  4  1  0  0  0  0
  4  5  1  0  0  0  0
  4  6  1  0  0  0  0
  4  7  1  0  0  0  0
  7  8  1  0  0  0  0
  7  9  1  0  0  0  0
  7 10  1  0  0  0  0
 10 11  1  0  0  0  0
  1 12  1  0  0  0  0
 10 12  1  0  0  0  0
 12 13  1  0  0  0  0
 12 14  1  0  0  0  0
 10 15  1  0  0  0  0
 15 16  1  0  0  0  0
M  END
> <VConfSearch Rank>
768

> <Conf_Id>
20

> <Delta U+W>
-0.483

> <U+W>
2.527

> <U>
4.508

> <W>
-1.981

> <W(PB)>
-3.712

> <W(SA)>
1.732

> <Valence>
14.705

> <Coulomb>
-10.687

> <VdW>
0.490

> <VdW6>
-3.745

> <VdW12>
4.235

> <Bond>
0.068

> <Angle>
3.901

> <Pdih>
10.737

> <Idih>
0.000

> <Tether>
0.000

$$$$
VeraChem MOL file


 16 16  0  0  0  0  0  0  0  0999 V2000     
   19.5190   17.8172   21.0712 C   0  0  0  0  0  0  0  0  0  0  0  0
   19.4100   18.5702   20.2782 H   0  0  0  0  0  0  0  0  0  0  0  0
   19.7559   16.8535   20.6004 H   0  0  0  0  0  0  0  0  0  0  0  0
   18.2330   17.7609   21.9072 C   0  0  0  0  0  0  0  0  0  0  0  0
   17.3289   17.8525   21.2899 H   0  0  0  0  0  0  0  0  0  0  0  0
   18.1849   16.8051   22.4474 H   0  0  0  0  0  0  0  0  0  0  0  0
   18.3773   18.9197   22.9106 C   0  0  0  0  0  0  0  0  0  0  0  0
   17.8448   18.7082   23.8469 H   0  0  0  0  0  0  0  0  0  0  0  0
   17.9465   19.8321   22.4762 H   0  0  0  0  0  0  0  0  0  0  0  0
   19.8911   19.1036   23.1479 C   0  0  0  0  0  0  0  0  0  0  0  0
   20.1655   18.7206   24.1417 H   0  0  0  0  0  0  0  0  0  0  0  0
   20.6052   18.2685   22.0651 C   0  0  0  0  0  0  0  0  0  0  0  0
   21.4033   18.8317   21.5633 H   0  0  0  0  0  0  0  0  0  0  0  0
   21.0627   17.3885   22.5355 H   0  0  0  0  0  0  0  0  0  0  0  0
   20.2446   20.4758   23.0219 O   0  0  0  0  0  0  0  0  0  0  0  0
   19.7568   20.9574   23.7230 H   0  0  0  0  0  0  0  0  0  0  0  0
  1  2  1  0  0  0  0
  1  3  1  0  0  0  0
  1  4  1  0  0  0  0
  4  5  1  0  0  0  0
  4  6  1  0  0  0  0
  4  7  1  0  0  0  0
  7  8  1  0  0  0  0
  7  9  1  0  0  0  0
  7 10  1  0  0  0  0
 10 11  1  0  0  0  0
  1 12  1  0  0  0  0
 10 12  1  0  0  0  0
 12 13  1  0  0  0  0
 12 14  1  0  0  0  0
 10 15  1  0  0  0  0
 15 16  1  0  0  0  0
M  END
> <VConfSearch Rank>
769

> <Conf_Id>
59

> <Delta U+W>
0.000

> <U+W>
3.010

> <U>
5.843

> <W>
-2.833

> <W(PB)>
-4.568

> <W(SA)>
1.735

> <Valence>
13.789

> <Coulomb>
-8.574

> <VdW>
0.628

> <VdW6>
-3.284

> <VdW12>
3.912

> <Bond>
0.054

> <Angle>
4.034

> <Pdih>
9.702

> <Idih>
0.000

> <Tether>
0.000

$$$$
VeraChem MOL file


 16 16  0  0  0  0  0  0  0  0999 V2000     
   18.1987   18.6151   22.9922 C   0  0  0  0  0  0  0  0  0  0  0  0
   17.1599   18.9376   22.8386 H   0  0  0  0  0  0  0  0  0  0  0  0
   18.2428   18.0291   23.9208 H   0  0  0  0  0  0  0  0  0  0  0  0
   19.1706   19.7996   23.0826 C   0  0  0  0  0  0  0  0  0  0  0  0
   18.8849   20.5672   22.3498 H   0  0  0  0  0  0  0  0  0  0  0  0
   19.1780   20.2612   24.0793 H   0  0  0  0  0  0  0  0  0  0  0  0
   20.5387   19.2054   22.7000 C   0  0  0  0  0  0  0  0  0  0  0  0
   21.0473   18.8410   23.6020 H   0  0  0  0  0  0  0  0  0  0  0  0
   21.1885   19.9560   22.2306 H   0  0  0  0  0  0  0  0  0  0  0  0
   20.2539   18.0112   21.7660 C   0  0  0  0  0  0  0  0  0  0  0  0
   20.7871   17.1240   22.1377 H   0  0  0  0  0  0  0  0  0  0  0  0
   18.7301   17.7721   21.8185 C   0  0  0  0  0  0  0  0  0  0  0  0
   18.2593   18.1108   20.8855 H   0  0  0  0  0  0  0  0  0  0  0  0
   18.4929   16.7084   21.9490 H   0  0  0  0  0  0  0  0  0  0  0  0
   20.6567   18.3207   20.4372 O   0  0  0  0  0  0  0  0  0  0  0  0
   20.4434   17.5363   19.8887 H   0  0  0  0  0  0  0  0  0  0  0  0
  1  2  1  0  0  0  0
  1  3  1  0  0  0  0
  1  4  1  0  0  0  0
  4  5  1  0  0  0  0
  4  6  1  0  0  0  0
  4  7  1  0  0  0  0
  7  8  1  0  0  0  0
  7  9  1  0  0  0  0
  7 10  1  0  0  0  0
 10 11  1  0  0  0  0
  1 12  1  0  0  0  0
 10 12  1  0  0  0  0
 12 13  1  0  0  0  0
 12 14  1  0  0  0  0
 10 15  1  0  0  0  0
 15 16  1  0  0  0  0
M  END
> <VConfSearch Rank>
770

> <Conf_Id>
33

> <Delta U+W>
0.015

> <U+W>
3.025

> <U>
5.843

> <W>
-2.819

> <W(PB)>
-4.568

> <W(SA)>
1.750

> <Valence>
13.789

> <Coulomb>
-8.574

> <VdW>
0.628

> <VdW6>
-3.284

> <VdW12>
3.913

> <Bond>
0.054

> <Angle>
4.033

> <Pdih>
9.702

> <Idih>
0.000

> <Tether>
0.000

$$$$
VeraChem MOL file


 16 16  0  0  0  0  0  0  0  0999 V2000     
   18.1310   18.2707   21.9204 C   0  0  0  0  0  0  0  0  0  0  0  0
   17.4058   18.3369   22.7431 H   0  0  0  0  0  0  0  0  0  0  0  0
   17.5873   17.9472   21.0222 H   0  0  0  0  0  0  0  0  0  0  0  0
   19.2564   17.2801   22.2906 C   0  0  0  0  0  0  0  0  0  0  0  0
   19.0754   16.8660   23.2921 H   0  0  0  0  0  0  0  0  0  0  0  0
   19.3021   16.4389   21.5854 H   0  0  0  0  0  0  0  0  0  0  0  0
   20.5720   18.0873   22.2772 C   0  0  0  0  0  0  0  0  0  0  0  0
   21.0828   17.9404   21.3164 H   0  0  0  0  0  0  0  0  0  0  0  0
   21.2607   17.7740   23.0731 H   0  0  0  0  0  0  0  0  0  0  0  0
   20.1672   19.5620   22.4059 C   0  0  0  0  0  0  0  0  0  0  0  0
   20.9070   20.2270   21.9374 H   0  0  0  0  0  0  0  0  0  0  0  0
   18.8089   19.6391   21.6960 C   0  0  0  0  0  0  0  0  0  0  0  0
   18.1949   20.4728   22.0620 H   0  0  0  0  0  0  0  0  0  0  0  0
   18.9763   19.7939   20.6219 H   0  0  0  0  0  0  0  0  0  0  0  0
   19.9961   19.8819   23.7789 O   0  0  0  0  0  0  0  0  0  0  0  0
   19.3279   19.2457   24.1074 H   0  0  0  0  0  0  0  0  0  0  0  0
  1  2  1  0  0  0  0
  1  3  1  0  0  0  0
  1  4  1  0  0  0  0
  4  5  1  0  0  0  0
  4  6  1  0  0  0  0
  4  7  1  0  0  0  0
  7  8  1  0  0  0  0
  7  9  1  0  0  0  0
  7 10  1  0  0  0  0
 10 11  1  0  0  0  0
  1 12  1  0  0  0  0
 10 12  1  0  0  0  0
 12 13  1  0  0  0  0
 12 14  1  0  0  0  0
 10 15  1  0  0  0  0
 15 16  1  0  0  0  0
M  END
> <VConfSearch Rank>
771

> <Conf_Id>
20

> <Delta U+W>
-0.483

> <U+W>
2.527

> <U>
4.508

> <W>
-1.981

> <W(PB)>
-3.712

> <W(SA)>
1.732

> <Valence>
14.705

> <Coulomb>
-10.687

> <VdW>
0.490

> <VdW6>
-3.745

> <VdW12>
4.235

> <Bond>
0.068

> <Angle>
3.901

> <Pdih>
10.737

> <Idih>
0.000

> <Tether>
0.000

$$$$
VeraChem MOL file


 16 16  0  0  0  0  0  0  0  0999 V2000     
   19.6232   17.6134   21.2378 C   0  0  0  0  0  0  0  0  0  0  0  0
   18.6332   17.3505   20.8398 H   0  0  0  0  0  0  0  0  0  0  0  0
   20.3845   17.1078   20.6284 H   0  0  0  0  0  0  0  0  0  0  0  0
   19.7027   17.2208   22.7194 C   0  0  0  0  0  0  0  0  0  0  0  0
   19.2123   16.2594   22.9240 H   0  0  0  0  0  0  0  0  0  0  0  0
   20.7554   17.1414   23.0248 H   0  0  0  0  0  0  0  0  0  0  0  0
   19.0317   18.3906   23.4623 C   0  0  0  0  0  0  0  0  0  0  0  0
   19.4451   18.5149   24.4714 H   0  0  0  0  0  0  0  0  0  0  0  0
   17.9562   18.1893   23.5607 H   0  0  0  0  0  0  0  0  0  0  0  0
   19.2635   19.6463   22.5956 C   0  0  0  0  0  0  0  0  0  0  0  0
   20.0217   20.2914   23.0629 H   0  0  0  0  0  0  0  0  0  0  0  0
   19.7900   19.1442   21.2353 C   0  0  0  0  0  0  0  0  0  0  0  0
   19.2652   19.6067   20.3887 H   0  0  0  0  0  0  0  0  0  0  0  0
   20.8543   19.3987   21.1474 H   0  0  0  0  0  0  0  0  0  0  0  0
   18.0415   20.3528   22.4182 O   0  0  0  0  0  0  0  0  0  0  0  0
   17.7490   20.6372   23.3099 H   0  0  0  0  0  0  0  0  0  0  0  0
  1  2  1  0  0  0  0
  1  3  1  0  0  0  0
  1  4  1  0  0  0  0
  4  5  1  0  0  0  0
  4  6  1  0  0  0  0
  4  7  1  0  0  0  0
  7  8  1  0  0  0  0
  7  9  1  0  0  0  0
  7 10  1  0  0  0  0
 10 11  1  0  0  0  0
  1 12  1  0  0  0  0
 10 12  1  0  0  0  0
 12 13  1  0  0  0  0
 12 14  1  0  0  0  0
 10 15  1  0  0  0  0
 15 16  1  0  0  0  0
M  END
> <VConfSearch Rank>
772

> <Conf_Id>
59

> <Delta U+W>
0.000

> <U+W>
3.010

> <U>
5.843

> <W>
-2.833

> <W(PB)>
-4.568

> <W(SA)>
1.735

> <Valence>
13.789

> <Coulomb>
-8.574

> <VdW>
0.628

> <VdW6>
-3.284

> <VdW12>
3.912

> <Bond>
0.054

> <Angle>
4.034

> <Pdih>
9.702

> <Idih>
0.000

> <Tether>
0.000

$$$$
VeraChem MOL file


 16 16  0  0  0  0  0  0  0  0999 V2000     
   19.3840   17.6164   23.3240 C   0  0  0  0  0  0  0  0  0  0  0  0
   19.1274   17.5370   24.3892 H   0  0  0  0  0  0  0  0  0  0  0  0
   19.5251   16.6011   22.9279 H   0  0  0  0  0  0  0  0  0  0  0  0
   20.6558   18.4432   23.0898 C   0  0  0  0  0  0  0  0  0  0  0  0
   20.6667   19.3037   23.7734 H   0  0  0  0  0  0  0  0  0  0  0  0
   21.5718   17.8601   23.2559 H   0  0  0  0  0  0  0  0  0  0  0  0
   20.5304   18.9398   21.6377 C   0  0  0  0  0  0  0  0  0  0  0  0
   20.9921   18.2117   20.9582 H   0  0  0  0  0  0  0  0  0  0  0  0
   21.0411   19.9013   21.4937 H   0  0  0  0  0  0  0  0  0  0  0  0
   19.0210   19.0269   21.3314 C   0  0  0  0  0  0  0  0  0  0  0  0
   18.8080   18.4865   20.3975 H   0  0  0  0  0  0  0  0  0  0  0  0
   18.2978   18.3460   22.5125 C   0  0  0  0  0  0  0  0  0  0  0  0
   17.8141   19.0999   23.1485 H   0  0  0  0  0  0  0  0  0  0  0  0
   17.5227   17.6511   22.1644 H   0  0  0  0  0  0  0  0  0  0  0  0
   18.6190   20.3877   21.2285 O   0  0  0  0  0  0  0  0  0  0  0  0
   17.6557   20.3834   21.0457 H   0  0  0  0  0  0  0  0  0  0  0  0
  1  2  1  0  0  0  0
  1  3  1  0  0  0  0
  1  4  1  0  0  0  0
  4  5  1  0  0  0  0
  4  6  1  0  0  0  0
  4  7  1  0  0  0  0
  7  8  1  0  0  0  0
  7  9  1  0  0  0  0
  7 10  1  0  0  0  0
 10 11  1  0  0  0  0
  1 12  1  0  0  0  0
 10 12  1  0  0  0  0
 12 13  1  0  0  0  0
 12 14  1  0  0  0  0
 10 15  1  0  0  0  0
 15 16  1  0  0  0  0
M  END
> <VConfSearch Rank>
773

> <Conf_Id>
33

> <Delta U+W>
0.015

> <U+W>
3.025

> <U>
5.843

> <W>
-2.819

> <W(PB)>
-4.568

> <W(SA)>
1.750

> <Valence>
13.789

> <Coulomb>
-8.574

> <VdW>
0.628

> <VdW6>
-3.284

> <VdW12>
3.913

> <Bond>
0.054

> <Angle>
4.033

> <Pdih>
9.702

> <Idih>
0.000

> <Tether>
0.000

$$$$
VeraChem MOL file


 16 16  0  0  0  0  0  0  0  0999 V2000     
   18.4944   19.1240   23.1182 C   0  0  0  0  0  0  0  0  0  0  0  0
   18.8505   20.0144   23.6546 H   0  0  0  0  0  0  0  0  0  0  0  0
   17.4670   18.9230   23.4513 H   0  0  0  0  0  0  0  0  0  0  0  0
   19.4289   17.9287   23.4062 C   0  0  0  0  0  0  0  0  0  0  0  0
   20.2366   18.2403   24.0828 H   0  0  0  0  0  0  0  0  0  0  0  0
   18.8900   17.1019   23.8890 H   0  0  0  0  0  0  0  0  0  0  0  0
   20.0119   17.4913   22.0457 C   0  0  0  0  0  0  0  0  0  0  0  0
   19.4358   16.6418   21.6557 H   0  0  0  0  0  0  0  0  0  0  0  0
   21.0608   17.1756   22.1244 H   0  0  0  0  0  0  0  0  0  0  0  0
   19.8345   18.6887   21.1024 C   0  0  0  0  0  0  0  0  0  0  0  0
   19.7485   18.3686   20.0540 H   0  0  0  0  0  0  0  0  0  0  0  0
   18.5469   19.3633   21.5943 C   0  0  0  0  0  0  0  0  0  0  0  0
   18.5130   20.4309   21.3391 H   0  0  0  0  0  0  0  0  0  0  0  0
   17.6854   18.8781   21.1169 H   0  0  0  0  0  0  0  0  0  0  0  0
   20.9249   19.5827   21.2714 O   0  0  0  0  0  0  0  0  0  0  0  0
   20.9224   19.8105   22.2239 H   0  0  0  0  0  0  0  0  0  0  0  0
  1  2  1  0  0  0  0
  1  3  1  0  0  0  0
  1  4  1  0  0  0  0
  4  5  1  0  0  0  0
  4  6  1  0  0  0  0
  4  7  1  0  0  0  0
  7  8  1  0  0  0  0
  7  9  1  0  0  0  0
  7 10  1  0  0  0  0
 10 11  1  0  0  0  0
  1 12  1  0  0  0  0
 10 12  1  0  0  0  0
 12 13  1  0  0  0  0
 12 14  1  0  0  0  0
 10 15  1  0  0  0  0
 15 16  1  0  0  0  0
M  END
> <VConfSearch Rank>
774

> <Conf_Id>
20

> <Delta U+W>
-0.483

> <U+W>
2.527

> <U>
4.508

> <W>
-1.981

> <W(PB)>
-3.712

> <W(SA)>
1.732

> <Valence>
14.705

> <Coulomb>
-10.687

> <VdW>
0.490

> <VdW6>
-3.745

> <VdW12>
4.235

> <Bond>
0.068

> <Angle>
3.901

> <Pdih>
10.737

> <Idih>
0.000

> <Tether>
0.000

$$$$
VeraChem MOL file


 16 16  0  0  0  0  0  0  0  0999 V2000     
   20.7056   19.0128   22.6101 C   0  0  0  0  0  0  0  0  0  0  0  0
   21.3541   18.1552   22.3829 H   0  0  0  0  0  0  0  0  0  0  0  0
   21.3428   19.8575   22.9052 H   0  0  0  0  0  0  0  0  0  0  0  0
   19.7035   18.6238   23.7057 C   0  0  0  0  0  0  0  0  0  0  0  0
   20.1579   17.9952   24.4837 H   0  0  0  0  0  0  0  0  0  0  0  0
   19.3083   19.5307   24.1841 H   0  0  0  0  0  0  0  0  0  0  0  0
   18.5741   17.8982   22.9518 C   0  0  0  0  0  0  0  0  0  0  0  0
   17.6098   18.0174   23.4624 H   0  0  0  0  0  0  0  0  0  0  0  0
   18.8004   16.8242   22.9046 H   0  0  0  0  0  0  0  0  0  0  0  0
   18.5423   18.5008   21.5314 C   0  0  0  0  0  0  0  0  0  0  0  0
   17.6680   19.1589   21.4213 H   0  0  0  0  0  0  0  0  0  0  0  0
   19.8307   19.3365   21.3850 C   0  0  0  0  0  0  0  0  0  0  0  0
   20.3584   19.1277   20.4449 H   0  0  0  0  0  0  0  0  0  0  0  0
   19.5685   20.4025   21.3908 H   0  0  0  0  0  0  0  0  0  0  0  0
   18.5172   17.4633   20.5583 O   0  0  0  0  0  0  0  0  0  0  0  0
   17.6879   16.9609   20.7042 H   0  0  0  0  0  0  0  0  0  0  0  0
  1  2  1  0  0  0  0
  1  3  1  0  0  0  0
  1  4  1  0  0  0  0
  4  5  1  0  0  0  0
  4  6  1  0  0  0  0
  4  7  1  0  0  0  0
  7  8  1  0  0  0  0
  7  9  1  0  0  0  0
  7 10  1  0  0  0  0
 10 11  1  0  0  0  0
  1 12  1  0  0  0  0
 10 12  1  0  0  0  0
 12 13  1  0  0  0  0
 12 14  1  0  0  0  0
 10 15  1  0  0  0  0
 15 16  1  0  0  0  0
M  END
> <VConfSearch Rank>
775

> <Conf_Id>
59

> <Delta U+W>
0.000

> <U+W>
3.010

> <U>
5.843

> <W>
-2.833

> <W(PB)>
-4.568

> <W(SA)>
1.735

> <Valence>
13.789

> <Coulomb>
-8.574

> <VdW>
0.628

> <VdW6>
-3.284

> <VdW12>
3.912

> <Bond>
0.054

> <Angle>
4.034

> <Pdih>
9.702

> <Idih>
0.000

> <Tether>
0.000

$$$$
VeraChem MOL file


 16 16  0  0  0  0  0  0  0  0999 V2000     
   18.6975   19.4926   23.1387 C   0  0  0  0  0  0  0  0  0  0  0  0
   17.6823   19.5875   23.5474 H   0  0  0  0  0  0  0  0  0  0  0  0
   19.3335   20.2490   23.6194 H   0  0  0  0  0  0  0  0  0  0  0  0
   18.7339   19.6799   21.6158 C   0  0  0  0  0  0  0  0  0  0  0  0
   17.8592   19.1917   21.1637 H   0  0  0  0  0  0  0  0  0  0  0  0
   18.7267   20.7386   21.3230 H   0  0  0  0  0  0  0  0  0  0  0  0
   20.0170   18.9553   21.1690 C   0  0  0  0  0  0  0  0  0  0  0  0
   20.8602   19.6582   21.1809 H   0  0  0  0  0  0  0  0  0  0  0  0
   19.9247   18.5620   20.1479 H   0  0  0  0  0  0  0  0  0  0  0  0
   20.2763   17.8414   22.2043 C   0  0  0  0  0  0  0  0  0  0  0  0
   21.3123   17.9153   22.5658 H   0  0  0  0  0  0  0  0  0  0  0  0
   19.2922   18.0908   23.3667 C   0  0  0  0  0  0  0  0  0  0  0  0
   18.4847   17.3463   23.3483 H   0  0  0  0  0  0  0  0  0  0  0  0
   19.7928   18.0212   24.3411 H   0  0  0  0  0  0  0  0  0  0  0  0
   20.0357   16.5655   21.6227 O   0  0  0  0  0  0  0  0  0  0  0  0
   20.2036   15.9007   22.3237 H   0  0  0  0  0  0  0  0  0  0  0  0
  1  2  1  0  0  0  0
  1  3  1  0  0  0  0
  1  4  1  0  0  0  0
  4  5  1  0  0  0  0
  4  6  1  0  0  0  0
  4  7  1  0  0  0  0
  7  8  1  0  0  0  0
  7  9  1  0  0  0  0
  7 10  1  0  0  0  0
 10 11  1  0  0  0  0
  1 12  1  0  0  0  0
 10 12  1  0  0  0  0
 12 13  1  0  0  0  0
 12 14  1  0  0  0  0
 10 15  1  0  0  0  0
 15 16  1  0  0  0  0
M  END
> <VConfSearch Rank>
776

> <Conf_Id>
33

> <Delta U+W>
0.015

> <U+W>
3.025

> <U>
5.843

> <W>
-2.819

> <W(PB)>
-4.568

> <W(SA)>
1.750

> <Valence>
13.789

> <Coulomb>
-8.574

> <VdW>
0.628

> <VdW6>
-3.284

> <VdW12>
3.913

> <Bond>
0.054

> <Angle>
4.033

> <Pdih>
9.702

> <Idih>
0.000

> <Tether>
0.000

$$$$
VeraChem MOL file


 16 16  0  0  0  0  0  0  0  0999 V2000     
   20.4645   19.3880   22.2654 C   0  0  0  0  0  0  0  0  0  0  0  0
   20.9372   19.4952   23.2514 H   0  0  0  0  0  0  0  0  0  0  0  0
   21.0616   19.9639   21.5451 H   0  0  0  0  0  0  0  0  0  0  0  0
   19.0058   19.8917   22.3248 C   0  0  0  0  0  0  0  0  0  0  0  0
   18.7729   20.2435   23.3393 H   0  0  0  0  0  0  0  0  0  0  0  0
   18.8396   20.7303   21.6348 H   0  0  0  0  0  0  0  0  0  0  0  0
   18.1118   18.6875   21.9598 C   0  0  0  0  0  0  0  0  0  0  0  0
   17.8376   18.7426   20.8981 H   0  0  0  0  0  0  0  0  0  0  0  0
   17.1823   18.6668   22.5444 H   0  0  0  0  0  0  0  0  0  0  0  0
   18.9702   17.4361   22.1884 C   0  0  0  0  0  0  0  0  0  0  0  0
   18.6570   16.6064   21.5383 H   0  0  0  0  0  0  0  0  0  0  0  0
   20.3973   17.8988   21.8655 C   0  0  0  0  0  0  0  0  0  0  0  0
   21.1567   17.2949   22.3800 H   0  0  0  0  0  0  0  0  0  0  0  0
   20.5680   17.8009   20.7853 H   0  0  0  0  0  0  0  0  0  0  0  0
   18.8978   17.0628   23.5567 O   0  0  0  0  0  0  0  0  0  0  0  0
   19.1915   17.8545   24.0526 H   0  0  0  0  0  0  0  0  0  0  0  0
  1  2  1  0  0  0  0
  1  3  1  0  0  0  0
  1  4  1  0  0  0  0
  4  5  1  0  0  0  0
  4  6  1  0  0  0  0
  4  7  1  0  0  0  0
  7  8  1  0  0  0  0
  7  9  1  0  0  0  0
  7 10  1  0  0  0  0
 10 11  1  0  0  0  0
  1 12  1  0  0  0  0
 10 12  1  0  0  0  0
 12 13  1  0  0  0  0
 12 14  1  0  0  0  0
 10 15  1  0  0  0  0
 15 16  1  0  0  0  0
M  END
> <VConfSearch Rank>
777

> <Conf_Id>
20

> <Delta U+W>
-0.483

> <U+W>
2.527

> <U>
4.508

> <W>
-1.981

> <W(PB)>
-3.712

> <W(SA)>
1.732

> <Valence>
14.705

> <Coulomb>
-10.687

> <VdW>
0.490

> <VdW6>
-3.745

> <VdW12>
4.235

> <Bond>
0.068

> <Angle>
3.901

> <Pdih>
10.737

> <Idih>
0.000

> <Tether>
0.000

$$$$
VeraChem MOL file


 16 16  0  0  0  0  0  0  0  0999 V2000     
   19.7884   19.4551   23.3709 C   0  0  0  0  0  0  0  0  0  0  0  0
   20.4140   18.8394   24.0322 H   0  0  0  0  0  0  0  0  0  0  0  0
   19.7986   20.4862   23.7494 H   0  0  0  0  0  0  0  0  0  0  0  0
   18.3719   18.8674   23.3091 C   0  0  0  0  0  0  0  0  0  0  0  0
   18.0285   18.5006   24.2860 H   0  0  0  0  0  0  0  0  0  0  0  0
   17.6672   19.6367   22.9638 H   0  0  0  0  0  0  0  0  0  0  0  0
   18.4692   17.7426   22.2622 C   0  0  0  0  0  0  0  0  0  0  0  0
   17.5112   17.5884   21.7490 H   0  0  0  0  0  0  0  0  0  0  0  0
   18.7389   16.8027   22.7629 H   0  0  0  0  0  0  0  0  0  0  0  0
   19.5801   18.1611   21.2761 C   0  0  0  0  0  0  0  0  0  0  0  0
   19.1357   18.4827   20.3229 H   0  0  0  0  0  0  0  0  0  0  0  0
   20.3108   19.3543   21.9259 C   0  0  0  0  0  0  0  0  0  0  0  0
   21.4027   19.2399   21.8978 H   0  0  0  0  0  0  0  0  0  0  0  0
   20.0572   20.2709   21.3777 H   0  0  0  0  0  0  0  0  0  0  0  0
   20.4861   17.0836   21.0711 O   0  0  0  0  0  0  0  0  0  0  0  0
   19.9689   16.3539   20.6691 H   0  0  0  0  0  0  0  0  0  0  0  0
  1  2  1  0  0  0  0
  1  3  1  0  0  0  0
  1  4  1  0  0  0  0
  4  5  1  0  0  0  0
  4  6  1  0  0  0  0
  4  7  1  0  0  0  0
  7  8  1  0  0  0  0
  7  9  1  0  0  0  0
  7 10  1  0  0  0  0
 10 11  1  0  0  0  0
  1 12  1  0  0  0  0
 10 12  1  0  0  0  0
 12 13  1  0  0  0  0
 12 14  1  0  0  0  0
 10 15  1  0  0  0  0
 15 16  1  0  0  0  0
M  END
> <VConfSearch Rank>
778

> <Conf_Id>
59

> <Delta U+W>
0.000

> <U+W>
3.010

> <U>
5.843

> <W>
-2.833

> <W(PB)>
-4.568

> <W(SA)>
1.735

> <Valence>
13.789

> <Coulomb>
-8.574

> <VdW>
0.628

> <VdW6>
-3.284

> <VdW12>
3.912

> <Bond>
0.054

> <Angle>
4.034

> <Pdih>
9.702

> <Idih>
0.000

> <Tether>
0.000

$$$$
VeraChem MOL file


 16 16  0  0  0  0  0  0  0  0999 V2000     
   18.6977   18.3043   21.1106 C   0  0  0  0  0  0  0  0  0  0  0  0
   18.6998   17.5772   20.2871 H   0  0  0  0  0  0  0  0  0  0  0  0
   17.7731   18.8946   21.0453 H   0  0  0  0  0  0  0  0  0  0  0  0
   19.9126   19.2413   21.0653 C   0  0  0  0  0  0  0  0  0  0  0  0
   20.8058   18.6721   20.7724 H   0  0  0  0  0  0  0  0  0  0  0  0
   19.7803   20.0656   20.3515 H   0  0  0  0  0  0  0  0  0  0  0  0
   20.0699   19.7382   22.5143 C   0  0  0  0  0  0  0  0  0  0  0  0
   19.4854   20.6568   22.6542 H   0  0  0  0  0  0  0  0  0  0  0  0
   21.1171   19.9696   22.7509 H   0  0  0  0  0  0  0  0  0  0  0  0
   19.4947   18.6326   23.4234 C   0  0  0  0  0  0  0  0  0  0  0  0
   18.7678   19.0761   24.1193 H   0  0  0  0  0  0  0  0  0  0  0  0
   18.7872   17.6272   22.4904 C   0  0  0  0  0  0  0  0  0  0  0  0
   19.3789   16.7056   22.4052 H   0  0  0  0  0  0  0  0  0  0  0  0
   17.7933   17.3558   22.8692 H   0  0  0  0  0  0  0  0  0  0  0  0
   20.5440   17.9873   24.1350 O   0  0  0  0  0  0  0  0  0  0  0  0
   20.1250   17.2915   24.6842 H   0  0  0  0  0  0  0  0  0  0  0  0
  1  2  1  0  0  0  0
  1  3  1  0  0  0  0
  1  4  1  0  0  0  0
  4  5  1  0  0  0  0
  4  6  1  0  0  0  0
  4  7  1  0  0  0  0
  7  8  1  0  0  0  0
  7  9  1  0  0  0  0
  7 10  1  0  0  0  0
 10 11  1  0  0  0  0
  1 12  1  0  0  0  0
 10 12  1  0  0  0  0
 12 13  1  0  0  0  0
 12 14  1  0  0  0  0
 10 15  1  0  0  0  0
 15 16  1  0  0  0  0
M  END
> <VConfSearch Rank>
779

> <Conf_Id>
33

> <Delta U+W>
0.015

> <U+W>
3.025

> <U>
5.843

> <W>
-2.819

> <W(PB)>
-4.568

> <W(SA)>
1.750

> <Valence>
13.789

> <Coulomb>
-8.574

> <VdW>
0.628

> <VdW6>
-3.284

> <VdW12>
3.913

> <Bond>
0.054

> <Angle>
4.033

> <Pdih>
9.702

> <Idih>
0.000

> <Tether>
0.000

$$$$
VeraChem MOL file


 16 16  0  0  0  0  0  0  0  0999 V2000     
   18.7965   18.2876   23.4168 C   0  0  0  0  0  0  0  0  0  0  0  0
   19.3912   17.6141   24.0492 H   0  0  0  0  0  0  0  0  0  0  0  0
   17.8679   18.5184   23.9567 H   0  0  0  0  0  0  0  0  0  0  0  0
   18.5103   17.6146   22.0566 C   0  0  0  0  0  0  0  0  0  0  0  0
   18.9655   16.6150   22.0311 H   0  0  0  0  0  0  0  0  0  0  0  0
   17.4319   17.4943   21.8845 H   0  0  0  0  0  0  0  0  0  0  0  0
   19.1466   18.5179   20.9788 C   0  0  0  0  0  0  0  0  0  0  0  0
   18.3777   19.1729   20.5484 H   0  0  0  0  0  0  0  0  0  0  0  0
   19.5892   17.9380   20.1580 H   0  0  0  0  0  0  0  0  0  0  0  0
   20.1858   19.3811   21.7069 C   0  0  0  0  0  0  0  0  0  0  0  0
   20.3406   20.3433   21.1980 H   0  0  0  0  0  0  0  0  0  0  0  0
   19.5940   19.5730   23.1098 C   0  0  0  0  0  0  0  0  0  0  0  0
   20.3671   19.7732   23.8636 H   0  0  0  0  0  0  0  0  0  0  0  0
   18.9117   20.4331   23.0943 H   0  0  0  0  0  0  0  0  0  0  0  0
   21.4048   18.6596   21.8083 O   0  0  0  0  0  0  0  0  0  0  0  0
   21.1709   17.8277   22.2692 H   0  0  0  0  0  0  0  0  0  0  0  0
  1  2  1  0  0  0  0
  1  3  1  0  0  0  0
  1  4  1  0  0  0  0
  4  5  1  0  0  0  0
  4  6  1  0  0  0  0
  4  7  1  0  0  0  0
  7  8  1  0  0  0  0
  7  9  1  0  0  0  0
  7 10  1  0  0  0  0
 10 11  1  0  0  0  0
  1 12  1  0  0  0  0
 10 12  1  0  0  0  0
 12 13  1  0  0  0  0
 12 14  1  0  0  0  0
 10 15  1  0  0  0  0
 15 16  1  0  0  0  0
M  END
> <VConfSearch Rank>
780

> <Conf_Id>
20

> <Delta U+W>
-0.483

> <U+W>
2.527

> <U>
4.508

> <W>
-1.981

> <W(PB)>
-3.712

> <W(SA)>
1.732

> <Valence>
14.705

> <Coulomb>
-10.687

> <VdW>
0.490

> <VdW6>
-3.745

> <VdW12>
4.235

> <Bond>
0.068

> <Angle>
3.901

> <Pdih>
10.737

> <Idih>
0.000

> <Tether>
0.000

$$$$
VeraChem MOL file


 16 16  0  0  0  0  0  0  0  0999 V2000     
   20.1165   18.1086   21.1565 C   0  0  0  0  0  0  0  0  0  0  0  0
   19.7209   17.1099   20.9246 H   0  0  0  0  0  0  0  0  0  0  0  0
   20.8647   18.3677   20.3951 H   0  0  0  0  0  0  0  0  0  0  0  0
   20.6991   18.1141   22.5765 C   0  0  0  0  0  0  0  0  0  0  0  0
   21.2411   17.1875   22.8094 H   0  0  0  0  0  0  0  0  0  0  0  0
   21.3957   18.9568   22.6870 H   0  0  0  0  0  0  0  0  0  0  0  0
   19.4782   18.3243   23.4907 C   0  0  0  0  0  0  0  0  0  0  0  0
   19.7553   18.8443   24.4168 H   0  0  0  0  0  0  0  0  0  0  0  0
   19.0574   17.3473   23.7652 H   0  0  0  0  0  0  0  0  0  0  0  0
   18.4543   19.1357   22.6691 C   0  0  0  0  0  0  0  0  0  0  0  0
   18.4186   20.1734   23.0315 H   0  0  0  0  0  0  0  0  0  0  0  0
   18.9585   19.1221   21.2112 C   0  0  0  0  0  0  0  0  0  0  0  0
   18.1637   18.8667   20.4977 H   0  0  0  0  0  0  0  0  0  0  0  0
   19.3310   20.1216   20.9520 H   0  0  0  0  0  0  0  0  0  0  0  0
   17.1696   18.5298   22.7496 O   0  0  0  0  0  0  0  0  0  0  0  0
   16.9051   18.5557   23.6935 H   0  0  0  0  0  0  0  0  0  0  0  0
  1  2  1  0  0  0  0
  1  3  1  0  0  0  0
  1  4  1  0  0  0  0
  4  5  1  0  0  0  0
  4  6  1  0  0  0  0
  4  7  1  0  0  0  0
  7  8  1  0  0  0  0
  7  9  1  0  0  0  0
  7 10  1  0  0  0  0
 10 11  1  0  0  0  0
  1 12  1  0  0  0  0
 10 12  1  0  0  0  0
 12 13  1  0  0  0  0
 12 14  1  0  0  0  0
 10 15  1  0  0  0  0
 15 16  1  0  0  0  0
M  END
> <VConfSearch Rank>
781

> <Conf_Id>
59

> <Delta U+W>
0.000

> <U+W>
3.010

> <U>
5.843

> <W>
-2.833

> <W(PB)>
-4.568

> <W(SA)>
1.735

> <Valence>
13.789

> <Coulomb>
-8.574

> <VdW>
0.628

> <VdW6>
-3.284

> <VdW12>
3.912

> <Bond>
0.054

> <Angle>
4.034

> <Pdih>
9.702

> <Idih>
0.000

> <Tether>
0.000

$$$$
VeraChem MOL file


 16 16  0  0  0  0  0  0  0  0999 V2000     
   20.0227   17.7469   21.2994 C   0  0  0  0  0  0  0  0  0  0  0  0
   20.5832   16.8040   21.2393 H   0  0  0  0  0  0  0  0  0  0  0  0
   19.7338   18.0403   20.2806 H   0  0  0  0  0  0  0  0  0  0  0  0
   20.8404   18.8720   21.9484 C   0  0  0  0  0  0  0  0  0  0  0  0
   21.4216   18.4672   22.7887 H   0  0  0  0  0  0  0  0  0  0  0  0
   21.5379   19.3441   21.2433 H   0  0  0  0  0  0  0  0  0  0  0  0
   19.7843   19.8586   22.4798 C   0  0  0  0  0  0  0  0  0  0  0  0
   19.5522   20.6018   21.7060 H   0  0  0  0  0  0  0  0  0  0  0  0
   20.1454   20.3995   23.3647 H   0  0  0  0  0  0  0  0  0  0  0  0
   18.5179   19.0293   22.7768 C   0  0  0  0  0  0  0  0  0  0  0  0
   17.6531   19.4981   22.2849 H   0  0  0  0  0  0  0  0  0  0  0  0
   18.7673   17.6270   22.1828 C   0  0  0  0  0  0  0  0  0  0  0  0
   18.9561   16.9015   22.9858 H   0  0  0  0  0  0  0  0  0  0  0  0
   17.9031   17.2737   21.6056 H   0  0  0  0  0  0  0  0  0  0  0  0
   18.3097   18.9376   24.1811 O   0  0  0  0  0  0  0  0  0  0  0  0
   17.5039   18.3943   24.3111 H   0  0  0  0  0  0  0  0  0  0  0  0
  1  2  1  0  0  0  0
  1  3  1  0  0  0  0
  1  4  1  0  0  0  0
  4  5  1  0  0  0  0
  4  6  1  0  0  0  0
  4  7  1  0  0  0  0
  7  8  1  0  0  0  0
  7  9  1  0  0  0  0
  7 10  1  0  0  0  0
 10 11  1  0  0  0  0
  1 12  1  0  0  0  0
 10 12  1  0  0  0  0
 12 13  1  0  0  0  0
 12 14  1  0  0  0  0
 10 15  1  0  0  0  0
 15 16  1  0  0  0  0
M  END
> <VConfSearch Rank>
782

> <Conf_Id>
33

> <Delta U+W>
0.015

> <U+W>
3.025

> <U>
5.843

> <W>
-2.819

> <W(PB)>
-4.568

> <W(SA)>
1.750

> <Valence>
13.789

> <Coulomb>
-8.574

> <VdW>
0.628

> <VdW6>
-3.284

> <VdW12>
3.913

> <Bond>
0.054

> <Angle>
4.033

> <Pdih>
9.702

> <Idih>
0.000

> <Tether>
0.000

$$$$
VeraChem MOL file


 16 16  0  0  0  0  0  0  0  0999 V2000     
   19.2405   19.9345   22.1467 C   0  0  0  0  0  0  0  0  0  0  0  0
   18.3187   20.2521   21.6402 H   0  0  0  0  0  0  0  0  0  0  0  0
   19.7898   20.8402   22.4381 H   0  0  0  0  0  0  0  0  0  0  0  0
   20.0768   19.0417   21.2041 C   0  0  0  0  0  0  0  0  0  0  0  0
   19.5602   18.9282   20.2410 H   0  0  0  0  0  0  0  0  0  0  0  0
   21.0640   19.4800   21.0031 H   0  0  0  0  0  0  0  0  0  0  0  0
   20.2098   17.6717   21.9025 C   0  0  0  0  0  0  0  0  0  0  0  0
   21.1750   17.6175   22.4232 H   0  0  0  0  0  0  0  0  0  0  0  0
   20.1664   16.8360   21.1914 H   0  0  0  0  0  0  0  0  0  0  0  0
   19.0802   17.6118   22.9395 C   0  0  0  0  0  0  0  0  0  0  0  0
   19.3431   16.9627   23.7872 H   0  0  0  0  0  0  0  0  0  0  0  0
   18.9006   19.0708   23.3799 C   0  0  0  0  0  0  0  0  0  0  0  0
   17.8898   19.2688   23.7611 H   0  0  0  0  0  0  0  0  0  0  0  0
   19.6111   19.2893   24.1880 H   0  0  0  0  0  0  0  0  0  0  0  0
   17.8894   17.1637   22.3086 O   0  0  0  0  0  0  0  0  0  0  0  0
   17.7365   17.7948   21.5755 H   0  0  0  0  0  0  0  0  0  0  0  0
  1  2  1  0  0  0  0
  1  3  1  0  0  0  0
  1  4  1  0  0  0  0
  4  5  1  0  0  0  0
  4  6  1  0  0  0  0
  4  7  1  0  0  0  0
  7  8  1  0  0  0  0
  7  9  1  0  0  0  0
  7 10  1  0  0  0  0
 10 11  1  0  0  0  0
  1 12  1  0  0  0  0
 10 12  1  0  0  0  0
 12 13  1  0  0  0  0
 12 14  1  0  0  0  0
 10 15  1  0  0  0  0
 15 16  1  0  0  0  0
M  END
> <VConfSearch Rank>
783

> <Conf_Id>
20

> <Delta U+W>
-0.483

> <U+W>
2.527

> <U>
4.508

> <W>
-1.981

> <W(PB)>
-3.712

> <W(SA)>
1.732

> <Valence>
14.705

> <Coulomb>
-10.687

> <VdW>
0.490

> <VdW6>
-3.745

> <VdW12>
4.235

> <Bond>
0.068

> <Angle>
3.901

> <Pdih>
10.737

> <Idih>
0.000

> <Tether>
0.000

$$$$
VeraChem MOL file


 16 16  0  0  0  0  0  0  0  0999 V2000     
   19.1730   19.5670   21.2878 C   0  0  0  0  0  0  0  0  0  0  0  0
   20.0528   20.2202   21.3710 H   0  0  0  0  0  0  0  0  0  0  0  0
   18.5645   19.9154   20.4421 H   0  0  0  0  0  0  0  0  0  0  0  0
   18.3971   19.5780   22.6120 C   0  0  0  0  0  0  0  0  0  0  0  0
   18.3586   20.5778   23.0656 H   0  0  0  0  0  0  0  0  0  0  0  0
   17.3661   19.2392   22.4392 H   0  0  0  0  0  0  0  0  0  0  0  0
   19.1381   18.5605   23.4986 C   0  0  0  0  0  0  0  0  0  0  0  0
   18.4598   18.0901   24.2222 H   0  0  0  0  0  0  0  0  0  0  0  0
   19.9274   19.0765   24.0620 H   0  0  0  0  0  0  0  0  0  0  0  0
   19.7572   17.5197   22.5420 C   0  0  0  0  0  0  0  0  0  0  0  0
   19.1951   16.5761   22.5976 H   0  0  0  0  0  0  0  0  0  0  0  0
   19.6295   18.1059   21.1207 C   0  0  0  0  0  0  0  0  0  0  0  0
   20.5688   18.0379   20.5558 H   0  0  0  0  0  0  0  0  0  0  0  0
   18.8664   17.5423   20.5684 H   0  0  0  0  0  0  0  0  0  0  0  0
   21.1267   17.3097   22.8648 O   0  0  0  0  0  0  0  0  0  0  0  0
   21.1487   16.9494   23.7765 H   0  0  0  0  0  0  0  0  0  0  0  0
  1  2  1  0  0  0  0
  1  3  1  0  0  0  0
  1  4  1  0  0  0  0
  4  5  1  0  0  0  0
  4  6  1  0  0  0  0
  4  7  1  0  0  0  0
  7  8  1  0  0  0  0
  7  9  1  0  0  0  0
  7 10  1  0  0  0  0
 10 11  1  0  0  0  0
  1 12  1  0  0  0  0
 10 12  1  0  0  0  0
 12 13  1  0  0  0  0
 12 14  1  0  0  0  0
 10 15  1  0  0  0  0
 15 16  1  0  0  0  0
M  END
> <VConfSearch Rank>
784

> <Conf_Id>
59

> <Delta U+W>
0.000

> <U+W>
3.010

> <U>
5.843

> <W>
-2.833

> <W(PB)>
-4.568

> <W(SA)>
1.735

> <Valence>
13.789

> <Coulomb>
-8.574

> <VdW>
0.628

> <VdW6>
-3.284

> <VdW12>
3.912

> <Bond>
0.054

> <Angle>
4.034

> <Pdih>
9.702

> <Idih>
0.000

> <Tether>
0.000

$$$$
VeraChem MOL file


 16 16  0  0  0  0  0  0  0  0999 V2000     
   20.5645   19.2144   22.9709 C   0  0  0  0  0  0  0  0  0  0  0  0
   21.0987   20.1737   23.0057 H   0  0  0  0  0  0  0  0  0  0  0  0
   20.9479   18.5781   23.7807 H   0  0  0  0  0  0  0  0  0  0  0  0
   20.7384   18.4977   21.6248 C   0  0  0  0  0  0  0  0  0  0  0  0
   20.7012   19.2327   20.8087 H   0  0  0  0  0  0  0  0  0  0  0  0
   21.6920   17.9567   21.5576 H   0  0  0  0  0  0  0  0  0  0  0  0
   19.5220   17.5584   21.5286 C   0  0  0  0  0  0  0  0  0  0  0  0
   19.7717   16.5856   21.9716 H   0  0  0  0  0  0  0  0  0  0  0  0
   19.2272   17.3842   20.4851 H   0  0  0  0  0  0  0  0  0  0  0  0
   18.3948   18.2126   22.3540 C   0  0  0  0  0  0  0  0  0  0  0  0
   17.9906   17.4767   23.0643 H   0  0  0  0  0  0  0  0  0  0  0  0
   19.0417   19.3859   23.1198 C   0  0  0  0  0  0  0  0  0  0  0  0
   18.7388   20.3438   22.6752 H   0  0  0  0  0  0  0  0  0  0  0  0
   18.7403   19.3939   24.1752 H   0  0  0  0  0  0  0  0  0  0  0  0
   17.3713   18.6943   21.4913 O   0  0  0  0  0  0  0  0  0  0  0  0
   16.6914   19.1072   22.0647 H   0  0  0  0  0  0  0  0  0  0  0  0
  1  2  1  0  0  0  0
  1  3  1  0  0  0  0
  1  4  1  0  0  0  0
  4  5  1  0  0  0  0
  4  6  1  0  0  0  0
  4  7  1  0  0  0  0
  7  8  1  0  0  0  0
  7  9  1  0  0  0  0
  7 10  1  0  0  0  0
 10 11  1  0  0  0  0
  1 12  1  0  0  0  0
 10 12  1  0  0  0  0
 12 13  1  0  0  0  0
 12 14  1  0  0  0  0
 10 15  1  0  0  0  0
 15 16  1  0  0  0  0
M  END
> <VConfSearch Rank>
785

> <Conf_Id>
33

> <Delta U+W>
0.015

> <U+W>
3.025

> <U>
5.843

> <W>
-2.819

> <W(PB)>
-4.568

> <W(SA)>
1.750

> <Valence>
13.789

> <Coulomb>
-8.574

> <VdW>
0.628

> <VdW6>
-3.284

> <VdW12>
3.913

> <Bond>
0.054

> <Angle>
4.033

> <Pdih>
9.702

> <Idih>
0.000

> <Tether>
0.000

$$$$
VeraChem MOL file


 16 16  0  0  0  0  0  0  0  0999 V2000     
   18.9425   19.7174   22.8658 C   0  0  0  0  0  0  0  0  0  0  0  0
   17.8911   19.9618   22.6607 H   0  0  0  0  0  0  0  0  0  0  0  0
   19.3341   20.4802   23.5526 H   0  0  0  0  0  0  0  0  0  0  0  0
   19.7405   19.6799   21.5441 C   0  0  0  0  0  0  0  0  0  0  0  0
   19.0755   19.9072   20.6995 H   0  0  0  0  0  0  0  0  0  0  0  0
   20.5502   20.4224   21.5400 H   0  0  0  0  0  0  0  0  0  0  0  0
   20.3005   18.2477   21.4115 C   0  0  0  0  0  0  0  0  0  0  0  0
   21.3402   18.2262   21.7638 H   0  0  0  0  0  0  0  0  0  0  0  0
   20.2924   17.8922   20.3724 H   0  0  0  0  0  0  0  0  0  0  0  0
   19.4438   17.3692   22.3330 C   0  0  0  0  0  0  0  0  0  0  0  0
   20.0050   16.4963   22.6964 H   0  0  0  0  0  0  0  0  0  0  0  0
   19.0513   18.3068   23.4828 C   0  0  0  0  0  0  0  0  0  0  0  0
   18.1204   17.9947   23.9747 H   0  0  0  0  0  0  0  0  0  0  0  0
   19.8479   18.2973   24.2384 H   0  0  0  0  0  0  0  0  0  0  0  0
   18.2728   16.9654   21.6384 O   0  0  0  0  0  0  0  0  0  0  0  0
   17.8438   17.7992   21.3559 H   0  0  0  0  0  0  0  0  0  0  0  0
  1  2  1  0  0  0  0
  1  3  1  0  0  0  0
  1  4  1  0  0  0  0
  4  5  1  0  0  0  0
  4  6  1  0  0  0  0
  4  7  1  0  0  0  0
  7  8  1  0  0  0  0
  7  9  1  0  0  0  0
  7 10  1  0  0  0  0
 10 11  1  0  0  0  0
  1 12  1  0  0  0  0
 10 12  1  0  0  0  0
 12 13  1  0  0  0  0
 12 14  1  0  0  0  0
 10 15  1  0  0  0  0
 15 16  1  0  0  0  0
M  END
> <VConfSearch Rank>
786

> <Conf_Id>
20

> <Delta U+W>
-0.483

> <U+W>
2.527

> <U>
4.508

> <W>
-1.981

> <W(PB)>
-3.712

> <W(SA)>
1.732

> <Valence>
14.705

> <Coulomb>
-10.687

> <VdW>
0.490

> <VdW6>
-3.745

> <VdW12>
4.235

> <Bond>
0.068

> <Angle>
3.901

> <Pdih>
10.737

> <Idih>
0.000

> <Tether>
0.000

$$$$
VeraChem MOL file


 16 16  0  0  0  0  0  0  0  0999 V2000     
   18.6395   19.1371   23.4355 C   0  0  0  0  0  0  0  0  0  0  0  0
   17.6237   19.3201   23.0580 H   0  0  0  0  0  0  0  0  0  0  0  0
   18.6667   19.4141   24.4981 H   0  0  0  0  0  0  0  0  0  0  0  0
   19.6506   19.9308   22.5968 C   0  0  0  0  0  0  0  0  0  0  0  0
   19.2817   20.9316   22.3342 H   0  0  0  0  0  0  0  0  0  0  0  0
   20.5875   20.0466   23.1593 H   0  0  0  0  0  0  0  0  0  0  0  0
   19.8932   19.0516   21.3562 C   0  0  0  0  0  0  0  0  0  0  0  0
   20.9018   19.2010   20.9498 H   0  0  0  0  0  0  0  0  0  0  0  0
   19.1707   19.3205   20.5736 H   0  0  0  0  0  0  0  0  0  0  0  0
   19.6739   17.5923   21.8078 C   0  0  0  0  0  0  0  0  0  0  0  0
   20.6404   17.0734   21.8865 H   0  0  0  0  0  0  0  0  0  0  0  0
   19.0184   17.6629   23.2025 C   0  0  0  0  0  0  0  0  0  0  0  0
   18.1447   17.0028   23.2864 H   0  0  0  0  0  0  0  0  0  0  0  0
   19.7493   17.3466   23.9580 H   0  0  0  0  0  0  0  0  0  0  0  0
   18.8143   16.9199   20.8952 O   0  0  0  0  0  0  0  0  0  0  0  0
   19.2733   16.9142   20.0287 H   0  0  0  0  0  0  0  0  0  0  0  0
  1  2  1  0  0  0  0
  1  3  1  0  0  0  0
  1  4  1  0  0  0  0
  4  5  1  0  0  0  0
  4  6  1  0  0  0  0
  4  7  1  0  0  0  0
  7  8  1  0  0  0  0
  7  9  1  0  0  0  0
  7 10  1  0  0  0  0
 10 11  1  0  0  0  0
  1 12  1  0  0  0  0
 10 12  1  0  0  0  0
 12 13  1  0  0  0  0
 12 14  1  0  0  0  0
 10 15  1  0  0  0  0
 15 16  1  0  0  0  0
M  END
> <VConfSearch Rank>
787

> <Conf_Id>
59

> <Delta U+W>
0.000

> <U+W>
3.010

> <U>
5.843

> <W>
-2.833

> <W(PB)>
-4.568

> <W(SA)>
1.735

> <Valence>
13.789

> <Coulomb>
-8.574

> <VdW>
0.628

> <VdW6>
-3.284

> <VdW12>
3.912

> <Bond>
0.054

> <Angle>
4.034

> <Pdih>
9.702

> <Idih>
0.000

> <Tether>
0.000

$$$$
VeraChem MOL file


 16 16  0  0  0  0  0  0  0  0999 V2000     
   19.8193   19.6909   23.1654 C   0  0  0  0  0  0  0  0  0  0  0  0
   20.5125   19.8932   23.9932 H   0  0  0  0  0  0  0  0  0  0  0  0
   19.3558   20.6411   22.8655 H   0  0  0  0  0  0  0  0  0  0  0  0
   18.7277   18.6831   23.5509 C   0  0  0  0  0  0  0  0  0  0  0  0
   19.1628   17.8893   24.1740 H   0  0  0  0  0  0  0  0  0  0  0  0
   17.9056   19.1488   24.1112 H   0  0  0  0  0  0  0  0  0  0  0  0
   18.2615   18.0883   22.2093 C   0  0  0  0  0  0  0  0  0  0  0  0
   17.4341   18.6879   21.8081 H   0  0  0  0  0  0  0  0  0  0  0  0
   17.9004   17.0579   22.3275 H   0  0  0  0  0  0  0  0  0  0  0  0
   19.4629   18.1807   21.2460 C   0  0  0  0  0  0  0  0  0  0  0  0
   19.1431   18.6649   20.3118 H   0  0  0  0  0  0  0  0  0  0  0  0
   20.5229   19.0496   21.9554 C   0  0  0  0  0  0  0  0  0  0  0  0
   21.3541   18.4239   22.3080 H   0  0  0  0  0  0  0  0  0  0  0  0
   20.9365   19.8113   21.2819 H   0  0  0  0  0  0  0  0  0  0  0  0
   19.9852   16.8829   20.9873 O   0  0  0  0  0  0  0  0  0  0  0  0
   20.7482   17.0022   20.3830 H   0  0  0  0  0  0  0  0  0  0  0  0
  1  2  1  0  0  0  0
  1  3  1  0  0  0  0
  1  4  1  0  0  0  0
  4  5  1  0  0  0  0
  4  6  1  0  0  0  0
  4  7  1  0  0  0  0
  7  8  1  0  0  0  0
  7  9  1  0  0  0  0
  7 10  1  0  0  0  0
 10 11  1  0  0  0  0
  1 12  1  0  0  0  0
 10 12  1  0  0  0  0
 12 13  1  0  0  0  0
 12 14  1  0  0  0  0
 10 15  1  0  0  0  0
 15 16  1  0  0  0  0
M  END
> <VConfSearch Rank>
788

> <Conf_Id>
33

> <Delta U+W>
0.015

> <U+W>
3.025

> <U>
5.843

> <W>
-2.819

> <W(PB)>
-4.568

> <W(SA)>
1.750

> <Valence>
13.789

> <Coulomb>
-8.574

> <VdW>
0.628

> <VdW6>
-3.284

> <VdW12>
3.913

> <Bond>
0.054

> <Angle>
4.033

> <Pdih>
9.702

> <Idih>
0.000

> <Tether>
0.000

$$$$
VeraChem MOL file


 16 16  0  0  0  0  0  0  0  0999 V2000     
   18.4013   19.5105   22.1161 C   0  0  0  0  0  0  0  0  0  0  0  0
   17.3886   19.0846   22.1298 H   0  0  0  0  0  0  0  0  0  0  0  0
   18.3038   20.5988   22.0017 H   0  0  0  0  0  0  0  0  0  0  0  0
   19.2169   18.8889   20.9614 C   0  0  0  0  0  0  0  0  0  0  0  0
   18.5986   18.1630   20.4155 H   0  0  0  0  0  0  0  0  0  0  0  0
   19.5469   19.6522   20.2434 H   0  0  0  0  0  0  0  0  0  0  0  0
   20.4241   18.1793   21.6107 C   0  0  0  0  0  0  0  0  0  0  0  0
   21.3038   18.8347   21.5634 H   0  0  0  0  0  0  0  0  0  0  0  0
   20.6789   17.2407   21.1006 H   0  0  0  0  0  0  0  0  0  0  0  0
   20.0464   17.9577   23.0814 C   0  0  0  0  0  0  0  0  0  0  0  0
   20.9358   17.9247   23.7271 H   0  0  0  0  0  0  0  0  0  0  0  0
   19.1470   19.1542   23.4198 C   0  0  0  0  0  0  0  0  0  0  0  0
   18.4583   18.9361   24.2469 H   0  0  0  0  0  0  0  0  0  0  0  0
   19.7779   19.9996   23.7243 H   0  0  0  0  0  0  0  0  0  0  0  0
   19.2929   16.7593   23.1953 O   0  0  0  0  0  0  0  0  0  0  0  0
   18.5306   16.8793   22.5924 H   0  0  0  0  0  0  0  0  0  0  0  0
  1  2  1  0  0  0  0
  1  3  1  0  0  0  0
  1  4  1  0  0  0  0
  4  5  1  0  0  0  0
  4  6  1  0  0  0  0
  4  7  1  0  0  0  0
  7  8  1  0  0  0  0
  7  9  1  0  0  0  0
  7 10  1  0  0  0  0
 10 11  1  0  0  0  0
  1 12  1  0  0  0  0
 10 12  1  0  0  0  0
 12 13  1  0  0  0  0
 12 14  1  0  0  0  0
 10 15  1  0  0  0  0
 15 16  1  0  0  0  0
M  END
> <VConfSearch Rank>
789

> <Conf_Id>
20

> <Delta U+W>
-0.483

> <U+W>
2.527

> <U>
4.508

> <W>
-1.981

> <W(PB)>
-3.712

> <W(SA)>
1.732

> <Valence>
14.705

> <Coulomb>
-10.687

> <VdW>
0.490

> <VdW6>
-3.745

> <VdW12>
4.235

> <Bond>
0.068

> <Angle>
3.901

> <Pdih>
10.737

> <Idih>
0.000

> <Tether>
0.000

$$$$
VeraChem MOL file


 16 16  0  0  0  0  0  0  0  0999 V2000     
   19.7172   18.6900   20.9119 C   0  0  0  0  0  0  0  0  0  0  0  0
   20.6625   19.2503   20.9135 H   0  0  0  0  0  0  0  0  0  0  0  0
   19.4764   18.4244   19.8736 H   0  0  0  0  0  0  0  0  0  0  0  0
   18.6178   19.5341   21.5711 C   0  0  0  0  0  0  0  0  0  0  0  0
   18.6841   20.5955   21.2957 H   0  0  0  0  0  0  0  0  0  0  0  0
   17.6309   19.1605   21.2643 H   0  0  0  0  0  0  0  0  0  0  0  0
   18.8143   19.3073   23.0812 C   0  0  0  0  0  0  0  0  0  0  0  0
   17.8665   19.3989   23.6273 H   0  0  0  0  0  0  0  0  0  0  0  0
   19.5054   20.0647   23.4754 H   0  0  0  0  0  0  0  0  0  0  0  0
   19.4227   17.8972   23.2337 C   0  0  0  0  0  0  0  0  0  0  0  0
   18.6649   17.2001   23.6202 H   0  0  0  0  0  0  0  0  0  0  0  0
   19.8494   17.4530   21.8193 C   0  0  0  0  0  0  0  0  0  0  0  0
   20.8688   17.0449   21.8004 H   0  0  0  0  0  0  0  0  0  0  0  0
   19.1684   16.6657   21.4707 H   0  0  0  0  0  0  0  0  0  0  0  0
   20.5532   17.9409   24.0962 O   0  0  0  0  0  0  0  0  0  0  0  0
   20.2273   18.2380   24.9720 H   0  0  0  0  0  0  0  0  0  0  0  0
  1  2  1  0  0  0  0
  1  3  1  0  0  0  0
  1  4  1  0  0  0  0
  4  5  1  0  0  0  0
  4  6  1  0  0  0  0
  4  7  1  0  0  0  0
  7  8  1  0  0  0  0
  7  9  1  0  0  0  0
  7 10  1  0  0  0  0
 10 11  1  0  0  0  0
  1 12  1  0  0  0  0
 10 12  1  0  0  0  0
 12 13  1  0  0  0  0
 12 14  1  0  0  0  0
 10 15  1  0  0  0  0
 15 16  1  0  0  0  0
M  END
> <VConfSearch Rank>
790

> <Conf_Id>
59

> <Delta U+W>
0.000

> <U+W>
3.010

> <U>
5.843

> <W>
-2.833

> <W(PB)>
-4.568

> <W(SA)>
1.735

> <Valence>
13.789

> <Coulomb>
-8.574

> <VdW>
0.628

> <VdW6>
-3.284

> <VdW12>
3.912

> <Bond>
0.054

> <Angle>
4.034

> <Pdih>
9.702

> <Idih>
0.000

> <Tether>
0.000

$$$$
VeraChem MOL file


 16 16  0  0  0  0  0  0  0  0999 V2000     
   19.6567   17.2391   22.6573 C   0  0  0  0  0  0  0  0  0  0  0  0
   19.4485   16.5602   23.4955 H   0  0  0  0  0  0  0  0  0  0  0  0
   20.0416   16.6419   21.8189 H   0  0  0  0  0  0  0  0  0  0  0  0
   20.6743   18.3273   23.0261 C   0  0  0  0  0  0  0  0  0  0  0  0
   20.4809   18.6811   24.0484 H   0  0  0  0  0  0  0  0  0  0  0  0
   21.7107   17.9665   22.9771 H   0  0  0  0  0  0  0  0  0  0  0  0
   20.4005   19.4656   22.0259 C   0  0  0  0  0  0  0  0  0  0  0  0
   21.0179   19.3247   21.1293 H   0  0  0  0  0  0  0  0  0  0  0  0
   20.6496   20.4467   22.4519 H   0  0  0  0  0  0  0  0  0  0  0  0
   18.9123   19.3582   21.6340 C   0  0  0  0  0  0  0  0  0  0  0  0
   18.8248   19.3530   20.5377 H   0  0  0  0  0  0  0  0  0  0  0  0
   18.4066   18.0190   22.2106 C   0  0  0  0  0  0  0  0  0  0  0  0
   17.7605   18.1990   23.0807 H   0  0  0  0  0  0  0  0  0  0  0  0
   17.8252   17.4548   21.4700 H   0  0  0  0  0  0  0  0  0  0  0  0
   18.1785   20.4415   22.1925 O   0  0  0  0  0  0  0  0  0  0  0  0
   17.2441   20.3170   21.9226 H   0  0  0  0  0  0  0  0  0  0  0  0
  1  2  1  0  0  0  0
  1  3  1  0  0  0  0
  1  4  1  0  0  0  0
  4  5  1  0  0  0  0
  4  6  1  0  0  0  0
  4  7  1  0  0  0  0
  7  8  1  0  0  0  0
  7  9  1  0  0  0  0
  7 10  1  0  0  0  0
 10 11  1  0  0  0  0
  1 12  1  0  0  0  0
 10 12  1  0  0  0  0
 12 13  1  0  0  0  0
 12 14  1  0  0  0  0
 10 15  1  0  0  0  0
 15 16  1  0  0  0  0
M  END
> <VConfSearch Rank>
791

> <Conf_Id>
33

> <Delta U+W>
0.015

> <U+W>
3.025

> <U>
5.843

> <W>
-2.819

> <W(PB)>
-4.568

> <W(SA)>
1.750

> <Valence>
13.789

> <Coulomb>
-8.574

> <VdW>
0.628

> <VdW6>
-3.284

> <VdW12>
3.913

> <Bond>
0.054

> <Angle>
4.033

> <Pdih>
9.702

> <Idih>
0.000

> <Tether>
0.000

$$$$
VeraChem MOL file


 16 16  0  0  0  0  0  0  0  0999 V2000     
   20.1316   18.0683   21.2970 C   0  0  0  0  0  0  0  0  0  0  0  0
   19.5932   17.8653   20.3610 H   0  0  0  0  0  0  0  0  0  0  0  0
   21.1782   17.7677   21.1515 H   0  0  0  0  0  0  0  0  0  0  0  0
   19.4744   17.2929   22.4597 C   0  0  0  0  0  0  0  0  0  0  0  0
   18.6187   16.7138   22.0862 H   0  0  0  0  0  0  0  0  0  0  0  0
   20.1776   16.5874   22.9231 H   0  0  0  0  0  0  0  0  0  0  0  0
   18.9986   18.3510   23.4777 C   0  0  0  0  0  0  0  0  0  0  0  0
   19.7431   18.4505   24.2786 H   0  0  0  0  0  0  0  0  0  0  0  0
   18.0415   18.0801   23.9431 H   0  0  0  0  0  0  0  0  0  0  0  0
   18.9158   19.6755   22.7070 C   0  0  0  0  0  0  0  0  0  0  0  0
   19.0684   20.5395   23.3697 H   0  0  0  0  0  0  0  0  0  0  0  0
   20.0293   19.5658   21.6567 C   0  0  0  0  0  0  0  0  0  0  0  0
   19.8341   20.1929   20.7765 H   0  0  0  0  0  0  0  0  0  0  0  0
   20.9747   19.9014   22.1030 H   0  0  0  0  0  0  0  0  0  0  0  0
   17.6594   19.7566   22.0500 O   0  0  0  0  0  0  0  0  0  0  0  0
   17.6130   18.9551   21.4891 H   0  0  0  0  0  0  0  0  0  0  0  0
  1  2  1  0  0  0  0
  1  3  1  0  0  0  0
  1  4  1  0  0  0  0
  4  5  1  0  0  0  0
  4  6  1  0  0  0  0
  4  7  1  0  0  0  0
  7  8  1  0  0  0  0
  7  9  1  0  0  0  0
  7 10  1  0  0  0  0
 10 11  1  0  0  0  0
  1 12  1  0  0  0  0
 10 12  1  0  0  0  0
 12 13  1  0  0  0  0
 12 14  1  0  0  0  0
 10 15  1  0  0  0  0
 15 16  1  0  0  0  0
M  END
> <VConfSearch Rank>
792

> <Conf_Id>
20

> <Delta U+W>
-0.483

> <U+W>
2.527

> <U>
4.508

> <W>
-1.981

> <W(PB)>
-3.712

> <W(SA)>
1.732

> <Valence>
14.705

> <Coulomb>
-10.687

> <VdW>
0.490

> <VdW6>
-3.745

> <VdW12>
4.235

> <Bond>
0.068

> <Angle>
3.901

> <Pdih>
10.737

> <Idih>
0.000

> <Tether>
0.000

$$$$
VeraChem MOL file


 16 16  0  0  0  0  0  0  0  0999 V2000     
   20.3300   17.9892   23.2361 C   0  0  0  0  0  0  0  0  0  0  0  0
   20.5059   16.9671   22.8728 H   0  0  0  0  0  0  0  0  0  0  0  0
   20.9933   18.1687   24.0932 H   0  0  0  0  0  0  0  0  0  0  0  0
   18.8477   18.1591   23.5964 C   0  0  0  0  0  0  0  0  0  0  0  0
   18.4329   17.2696   24.0898 H   0  0  0  0  0  0  0  0  0  0  0  0
   18.7279   19.0154   24.2745 H   0  0  0  0  0  0  0  0  0  0  0  0
   18.1587   18.4585   22.2524 C   0  0  0  0  0  0  0  0  0  0  0  0
   17.2655   19.0814   22.3896 H   0  0  0  0  0  0  0  0  0  0  0  0
   17.8435   17.5144   21.7875 H   0  0  0  0  0  0  0  0  0  0  0  0
   19.2118   19.1630   21.3713 C   0  0  0  0  0  0  0  0  0  0  0  0
   18.9776   20.2344   21.2889 H   0  0  0  0  0  0  0  0  0  0  0  0
   20.5655   18.9913   22.0909 C   0  0  0  0  0  0  0  0  0  0  0  0
   21.3582   18.6501   21.4118 H   0  0  0  0  0  0  0  0  0  0  0  0
   20.8755   19.9591   22.5060 H   0  0  0  0  0  0  0  0  0  0  0  0
   19.2598   18.5577   20.0848 O   0  0  0  0  0  0  0  0  0  0  0  0
   18.3759   18.6865   19.6802 H   0  0  0  0  0  0  0  0  0  0  0  0
  1  2  1  0  0  0  0
  1  3  1  0  0  0  0
  1  4  1  0  0  0  0
  4  5  1  0  0  0  0
  4  6  1  0  0  0  0
  4  7  1  0  0  0  0
  7  8  1  0  0  0  0
  7  9  1  0  0  0  0
  7 10  1  0  0  0  0
 10 11  1  0  0  0  0
  1 12  1  0  0  0  0
 10 12  1  0  0  0  0
 12 13  1  0  0  0  0
 12 14  1  0  0  0  0
 10 15  1  0  0  0  0
 15 16  1  0  0  0  0
M  END
> <VConfSearch Rank>
793

> <Conf_Id>
59

> <Delta U+W>
0.000

> <U+W>
3.010

> <U>
5.843

> <W>
-2.833

> <W(PB)>
-4.568

> <W(SA)>
1.735

> <Valence>
13.789

> <Coulomb>
-8.574

> <VdW>
0.628

> <VdW6>
-3.284

> <VdW12>
3.912

> <Bond>
0.054

> <Angle>
4.034

> <Pdih>
9.702

> <Idih>
0.000

> <Tether>
0.000

$$$$
VeraChem MOL file


 16 16  0  0  0  0  0  0  0  0999 V2000     
   20.5667   19.4910   22.5064 C   0  0  0  0  0  0  0  0  0  0  0  0
   21.3183   20.0402   21.9229 H   0  0  0  0  0  0  0  0  0  0  0  0
   20.6470   19.8084   23.5554 H   0  0  0  0  0  0  0  0  0  0  0  0
   20.7509   17.9702   22.4116 C   0  0  0  0  0  0  0  0  0  0  0  0
   21.0275   17.6960   21.3840 H   0  0  0  0  0  0  0  0  0  0  0  0
   21.5321   17.5992   23.0889 H   0  0  0  0  0  0  0  0  0  0  0  0
   19.3626   17.3926   22.7434 C   0  0  0  0  0  0  0  0  0  0  0  0
   19.2838   17.2209   23.8248 H   0  0  0  0  0  0  0  0  0  0  0  0
   19.1935   16.4316   22.2396 H   0  0  0  0  0  0  0  0  0  0  0  0
   18.3307   18.4613   22.3274 C   0  0  0  0  0  0  0  0  0  0  0  0
   17.6486   18.6545   23.1682 H   0  0  0  0  0  0  0  0  0  0  0  0
   19.1349   19.7362   21.9960 C   0  0  0  0  0  0  0  0  0  0  0  0
   19.1593   19.8993   20.9100 H   0  0  0  0  0  0  0  0  0  0  0  0
   18.6904   20.6257   22.4607 H   0  0  0  0  0  0  0  0  0  0  0  0
   17.6077   18.0256   21.1823 O   0  0  0  0  0  0  0  0  0  0  0  0
   16.9787   18.7433   20.9570 H   0  0  0  0  0  0  0  0  0  0  0  0
  1  2  1  0  0  0  0
  1  3  1  0  0  0  0
  1  4  1  0  0  0  0
  4  5  1  0  0  0  0
  4  6  1  0  0  0  0
  4  7  1  0  0  0  0
  7  8  1  0  0  0  0
  7  9  1  0  0  0  0
  7 10  1  0  0  0  0
 10 11  1  0  0  0  0
  1 12  1  0  0  0  0
 10 12  1  0  0  0  0
 12 13  1  0  0  0  0
 12 14  1  0  0  0  0
 10 15  1  0  0  0  0
 15 16  1  0  0  0  0
M  END
> <VConfSearch Rank>
794

> <Conf_Id>
33

> <Delta U+W>
0.015

> <U+W>
3.025

> <U>
5.843

> <W>
-2.819

> <W(PB)>
-4.568

> <W(SA)>
1.750

> <Valence>
13.789

> <Coulomb>
-8.574

> <VdW>
0.628

> <VdW6>
-3.284

> <VdW12>
3.913

> <Bond>
0.054

> <Angle>
4.033

> <Pdih>
9.702

> <Idih>
0.000

> <Tether>
0.000

$$$$
VeraChem MOL file


 16 16  0  0  0  0  0  0  0  0999 V2000     
   19.9978   19.7761   22.4628 C   0  0  0  0  0  0  0  0  0  0  0  0
   20.7558   19.7519   23.2578 H   0  0  0  0  0  0  0  0  0  0  0  0
   19.9867   20.7916   22.0436 H   0  0  0  0  0  0  0  0  0  0  0  0
   18.6195   19.3846   23.0391 C   0  0  0  0  0  0  0  0  0  0  0  0
   18.7103   19.1719   24.1132 H   0  0  0  0  0  0  0  0  0  0  0  0
   17.8872   20.1949   22.9206 H   0  0  0  0  0  0  0  0  0  0  0  0
   18.1720   18.1170   22.2806 C   0  0  0  0  0  0  0  0  0  0  0  0
   17.4881   18.3976   21.4687 H   0  0  0  0  0  0  0  0  0  0  0  0
   17.6445   17.4069   22.9314 H   0  0  0  0  0  0  0  0  0  0  0  0
   19.4454   17.5132   21.6732 C   0  0  0  0  0  0  0  0  0  0  0  0
   19.2262   16.9406   20.7605 H   0  0  0  0  0  0  0  0  0  0  0  0
   20.3308   18.7311   21.3767 C   0  0  0  0  0  0  0  0  0  0  0  0
   21.3985   18.4748   21.3591 H   0  0  0  0  0  0  0  0  0  0  0  0
   20.0670   19.1317   20.3890 H   0  0  0  0  0  0  0  0  0  0  0  0
   20.0840   16.6957   22.6430 O   0  0  0  0  0  0  0  0  0  0  0  0
   20.2381   17.2841   23.4106 H   0  0  0  0  0  0  0  0  0  0  0  0
  1  2  1  0  0  0  0
  1  3  1  0  0  0  0
  1  4  1  0  0  0  0
  4  5  1  0  0  0  0
  4  6  1  0  0  0  0
  4  7  1  0  0  0  0
  7  8  1  0  0  0  0
  7  9  1  0  0  0  0
  7 10  1  0  0  0  0
 10 11  1  0  0  0  0
  1 12  1  0  0  0  0
 10 12  1  0  0  0  0
 12 13  1  0  0  0  0
 12 14  1  0  0  0  0
 10 15  1  0  0  0  0
 15 16  1  0  0  0  0
M  END
> <VConfSearch Rank>
795

> <Conf_Id>
20

> <Delta U+W>
-0.483

> <U+W>
2.527

> <U>
4.508

> <W>
-1.981

> <W(PB)>
-3.712

> <W(SA)>
1.732

> <Valence>
14.705

> <Coulomb>
-10.687

> <VdW>
0.490

> <VdW6>
-3.745

> <VdW12>
4.235

> <Bond>
0.068

> <Angle>
3.901

> <Pdih>
10.737

> <Idih>
0.000

> <Tether>
0.000

$$$$
VeraChem MOL file


 16 16  0  0  0  0  0  0  0  0999 V2000     
   18.8394   17.2368   22.6450 C   0  0  0  0  0  0  0  0  0  0  0  0
   17.8751   17.4263   23.1369 H   0  0  0  0  0  0  0  0  0  0  0  0
   18.9753   16.1500   22.5612 H   0  0  0  0  0  0  0  0  0  0  0  0
   19.9649   17.9085   23.4436 C   0  0  0  0  0  0  0  0  0  0  0  0
   19.8193   17.8176   24.5286 H   0  0  0  0  0  0  0  0  0  0  0  0
   20.9278   17.4456   23.1862 H   0  0  0  0  0  0  0  0  0  0  0  0
   19.9484   19.3737   22.9709 C   0  0  0  0  0  0  0  0  0  0  0  0
   20.9457   19.8275   23.0359 H   0  0  0  0  0  0  0  0  0  0  0  0
   19.2710   19.9545   23.6117 H   0  0  0  0  0  0  0  0  0  0  0  0
   19.4267   19.3562   21.5185 C   0  0  0  0  0  0  0  0  0  0  0  0
   20.2543   19.5446   20.8191 H   0  0  0  0  0  0  0  0  0  0  0  0
   18.8664   17.9397   21.2752 C   0  0  0  0  0  0  0  0  0  0  0  0
   17.8713   17.9591   20.8111 H   0  0  0  0  0  0  0  0  0  0  0  0
   19.5402   17.3998   20.5972 H   0  0  0  0  0  0  0  0  0  0  0  0
   18.3984   20.3255   21.3546 O   0  0  0  0  0  0  0  0  0  0  0  0
   18.8055   21.2000   21.5308 H   0  0  0  0  0  0  0  0  0  0  0  0
  1  2  1  0  0  0  0
  1  3  1  0  0  0  0
  1  4  1  0  0  0  0
  4  5  1  0  0  0  0
  4  6  1  0  0  0  0
  4  7  1  0  0  0  0
  7  8  1  0  0  0  0
  7  9  1  0  0  0  0
  7 10  1  0  0  0  0
 10 11  1  0  0  0  0
  1 12  1  0  0  0  0
 10 12  1  0  0  0  0
 12 13  1  0  0  0  0
 12 14  1  0  0  0  0
 10 15  1  0  0  0  0
 15 16  1  0  0  0  0
M  END
> <VConfSearch Rank>
796

> <Conf_Id>
59

> <Delta U+W>
0.000

> <U+W>
3.010

> <U>
5.843

> <W>
-2.833

> <W(PB)>
-4.568

> <W(SA)>
1.735

> <Valence>
13.789

> <Coulomb>
-8.574

> <VdW>
0.628

> <VdW6>
-3.284

> <VdW12>
3.912

> <Bond>
0.054

> <Angle>
4.034

> <Pdih>
9.702

> <Idih>
0.000

> <Tether>
0.000

$$$$
VeraChem MOL file


 16 16  0  0  0  0  0  0  0  0999 V2000     
   19.0756   19.0216   23.6158 C   0  0  0  0  0  0  0  0  0  0  0  0
   19.5402   19.2078   24.5937 H   0  0  0  0  0  0  0  0  0  0  0  0
   18.0301   19.3568   23.6627 H   0  0  0  0  0  0  0  0  0  0  0  0
   19.1255   17.5400   23.2182 C   0  0  0  0  0  0  0  0  0  0  0  0
   20.0946   17.1125   23.5109 H   0  0  0  0  0  0  0  0  0  0  0  0
   18.3310   16.9505   23.6957 H   0  0  0  0  0  0  0  0  0  0  0  0
   19.0084   17.5490   21.6828 C   0  0  0  0  0  0  0  0  0  0  0  0
   17.9509   17.4937   21.3936 H   0  0  0  0  0  0  0  0  0  0  0  0
   19.5229   16.6893   21.2331 H   0  0  0  0  0  0  0  0  0  0  0  0
   19.5908   18.8953   21.2052 C   0  0  0  0  0  0  0  0  0  0  0  0
   18.8686   19.3871   20.5373 H   0  0  0  0  0  0  0  0  0  0  0  0
   19.8053   19.7500   22.4722 C   0  0  0  0  0  0  0  0  0  0  0  0
   20.8759   19.8174   22.7092 H   0  0  0  0  0  0  0  0  0  0  0  0
   19.4245   20.7709   22.3395 H   0  0  0  0  0  0  0  0  0  0  0  0
   20.8302   18.6851   20.5393 O   0  0  0  0  0  0  0  0  0  0  0  0
   21.1579   19.5689   20.2693 H   0  0  0  0  0  0  0  0  0  0  0  0
  1  2  1  0  0  0  0
  1  3  1  0  0  0  0
  1  4  1  0  0  0  0
  4  5  1  0  0  0  0
  4  6  1  0  0  0  0
  4  7  1  0  0  0  0
  7  8  1  0  0  0  0
  7  9  1  0  0  0  0
  7 10  1  0  0  0  0
 10 11  1  0  0  0  0
  1 12  1  0  0  0  0
 10 12  1  0  0  0  0
 12 13  1  0  0  0  0
 12 14  1  0  0  0  0
 10 15  1  0  0  0  0
 15 16  1  0  0  0  0
M  END
> <VConfSearch Rank>
797

> <Conf_Id>
33

> <Delta U+W>
0.015

> <U+W>
3.025

> <U>
5.843

> <W>
-2.819

> <W(PB)>
-4.568

> <W(SA)>
1.750

> <Valence>
13.789

> <Coulomb>
-8.574

> <VdW>
0.628

> <VdW6>
-3.284

> <VdW12>
3.913

> <Bond>
0.054

> <Angle>
4.033

> <Pdih>
9.702

> <Idih>
0.000

> <Tether>
0.000

$$$$
VeraChem MOL file


 16 16  0  0  0  0  0  0  0  0999 V2000     
   20.4525   17.9094   22.6319 C   0  0  0  0  0  0  0  0  0  0  0  0
   21.2752   17.9202   21.9036 H   0  0  0  0  0  0  0  0  0  0  0  0
   20.7794   17.3136   23.4951 H   0  0  0  0  0  0  0  0  0  0  0  0
   19.1830   17.3178   21.9814 C   0  0  0  0  0  0  0  0  0  0  0  0
   19.3915   17.0412   20.9386 H   0  0  0  0  0  0  0  0  0  0  0  0
   18.8451   16.4130   22.5049 H   0  0  0  0  0  0  0  0  0  0  0  0
   18.1077   18.4238   22.0348 C   0  0  0  0  0  0  0  0  0  0  0  0
   17.4538   18.2582   22.9011 H   0  0  0  0  0  0  0  0  0  0  0  0
   17.4761   18.4341   21.1365 H   0  0  0  0  0  0  0  0  0  0  0  0
   18.8654   19.7443   22.2277 C   0  0  0  0  0  0  0  0  0  0  0  0
   18.2498   20.4916   22.7490 H   0  0  0  0  0  0  0  0  0  0  0  0
   20.0964   19.3504   23.0551 C   0  0  0  0  0  0  0  0  0  0  0  0
   20.9342   20.0456   22.9111 H   0  0  0  0  0  0  0  0  0  0  0  0
   19.8297   19.3647   24.1201 H   0  0  0  0  0  0  0  0  0  0  0  0
   19.2884   20.2301   20.9621 O   0  0  0  0  0  0  0  0  0  0  0  0
   19.8235   19.5058   20.5770 H   0  0  0  0  0  0  0  0  0  0  0  0
  1  2  1  0  0  0  0
  1  3  1  0  0  0  0
  1  4  1  0  0  0  0
  4  5  1  0  0  0  0
  4  6  1  0  0  0  0
  4  7  1  0  0  0  0
  7  8  1  0  0  0  0
  7  9  1  0  0  0  0
  7 10  1  0  0  0  0
 10 11  1  0  0  0  0
  1 12  1  0  0  0  0
 10 12  1  0  0  0  0
 12 13  1  0  0  0  0
 12 14  1  0  0  0  0
 10 15  1  0  0  0  0
 15 16  1  0  0  0  0
M  END
> <VConfSearch Rank>
798

> <Conf_Id>
20

> <Delta U+W>
-0.483

> <U+W>
2.527

> <U>
4.508

> <W>
-1.981

> <W(PB)>
-3.712

> <W(SA)>
1.732

> <Valence>
14.705

> <Coulomb>
-10.687

> <VdW>
0.490

> <VdW6>
-3.745

> <VdW12>
4.235

> <Bond>
0.068

> <Angle>
3.901

> <Pdih>
10.737

> <Idih>
0.000

> <Tether>
0.000

$$$$
VeraChem MOL file


 16 16  0  0  0  0  0  0  0  0999 V2000     
   20.0120   17.8171   23.3833 C   0  0  0  0  0  0  0  0  0  0  0  0
   19.3205   16.9991   23.6289 H   0  0  0  0  0  0  0  0  0  0  0  0
   20.9145   17.7013   23.9987 H   0  0  0  0  0  0  0  0  0  0  0  0
   19.3155   19.1656   23.6122 C   0  0  0  0  0  0  0  0  0  0  0  0
   18.6875   19.1640   24.5135 H   0  0  0  0  0  0  0  0  0  0  0  0
   20.0697   19.9575   23.7203 H   0  0  0  0  0  0  0  0  0  0  0  0
   18.4974   19.3970   22.3286 C   0  0  0  0  0  0  0  0  0  0  0  0
   18.3764   20.4674   22.1175 H   0  0  0  0  0  0  0  0  0  0  0  0
   17.4963   18.9622   22.4525 H   0  0  0  0  0  0  0  0  0  0  0  0
   19.2562   18.6773   21.1936 C   0  0  0  0  0  0  0  0  0  0  0  0
   19.7542   19.4147   20.5472 H   0  0  0  0  0  0  0  0  0  0  0  0
   20.3222   17.7948   21.8752 C   0  0  0  0  0  0  0  0  0  0  0  0
   20.3305   16.7705   21.4793 H   0  0  0  0  0  0  0  0  0  0  0  0
   21.3143   18.2295   21.6966 H   0  0  0  0  0  0  0  0  0  0  0  0
   18.3602   17.8700   20.4390 O   0  0  0  0  0  0  0  0  0  0  0  0
   17.7023   18.4777   20.0399 H   0  0  0  0  0  0  0  0  0  0  0  0
  1  2  1  0  0  0  0
  1  3  1  0  0  0  0
  1  4  1  0  0  0  0
  4  5  1  0  0  0  0
  4  6  1  0  0  0  0
  4  7  1  0  0  0  0
  7  8  1  0  0  0  0
  7  9  1  0  0  0  0
  7 10  1  0  0  0  0
 10 11  1  0  0  0  0
  1 12  1  0  0  0  0
 10 12  1  0  0  0  0
 12 13  1  0  0  0  0
 12 14  1  0  0  0  0
 10 15  1  0  0  0  0
 15 16  1  0  0  0  0
M  END
> <VConfSearch Rank>
799

> <Conf_Id>
59

> <Delta U+W>
0.000

> <U+W>
3.010

> <U>
5.843

> <W>
-2.833

> <W(PB)>
-4.568

> <W(SA)>
1.735

> <Valence>
13.789

> <Coulomb>
-8.574

> <VdW>
0.628

> <VdW6>
-3.284

> <VdW12>
3.912

> <Bond>
0.054

> <Angle>
4.034

> <Pdih>
9.702

> <Idih>
0.000

> <Tether>
0.000

$$$$
VeraChem MOL file


 16 16  0  0  0  0  0  0  0  0999 V2000     
   20.1329   18.8894   21.0595 C   0  0  0  0  0  0  0  0  0  0  0  0
   20.5778   19.7410   20.5270 H   0  0  0  0  0  0  0  0  0  0  0  0
   20.3922   17.9706   20.5153 H   0  0  0  0  0  0  0  0  0  0  0  0
   18.6071   19.0067   21.1771 C   0  0  0  0  0  0  0  0  0  0  0  0
   18.3328   20.0505   21.3839 H   0  0  0  0  0  0  0  0  0  0  0  0
   18.0902   18.6900   20.2610 H   0  0  0  0  0  0  0  0  0  0  0  0
   18.2456   18.1287   22.3893 C   0  0  0  0  0  0  0  0  0  0  0  0
   18.0463   17.1024   22.0545 H   0  0  0  0  0  0  0  0  0  0  0  0
   17.3442   18.4944   22.8989 H   0  0  0  0  0  0  0  0  0  0  0  0
   19.4804   18.1254   23.3139 C   0  0  0  0  0  0  0  0  0  0  0  0
   19.7467   17.0873   23.5608 H   0  0  0  0  0  0  0  0  0  0  0  0
   20.6229   18.7882   22.5156 C   0  0  0  0  0  0  0  0  0  0  0  0
   20.8224   19.7967   22.9027 H   0  0  0  0  0  0  0  0  0  0  0  0
   21.5530   18.2097   22.5865 H   0  0  0  0  0  0  0  0  0  0  0  0
   19.2106   18.8705   24.4954 O   0  0  0  0  0  0  0  0  0  0  0  0
   20.0276   18.8445   25.0370 H   0  0  0  0  0  0  0  0  0  0  0  0
  1  2  1  0  0  0  0
  1  3  1  0  0  0  0
  1  4  1  0  0  0  0
  4  5  1  0  0  0  0
  4  6  1  0  0  0  0
  4  7  1  0  0  0  0
  7  8  1  0  0  0  0
  7  9  1  0  0  0  0
  7 10  1  0  0  0  0
 10 11  1  0  0  0  0
  1 12  1  0  0  0  0
 10 12  1  0  0  0  0
 12 13  1  0  0  0  0
 12 14  1  0  0  0  0
 10 15  1  0  0  0  0
 15 16  1  0  0  0  0
M  END
> <VConfSearch Rank>
800

> <Conf_Id>
33

> <Delta U+W>
0.015

> <U+W>
3.025

> <U>
5.843

> <W>
-2.819

> <W(PB)>
-4.568

> <W(SA)>
1.750

> <Valence>
13.789

> <Coulomb>
-8.574

> <VdW>
0.628

> <VdW6>
-3.284

> <VdW12>
3.913

> <Bond>
0.054

> <Angle>
4.033

> <Pdih>
9.702

> <Idih>
0.000

> <Tether>
0.000

$$$$
VeraChem MOL file


 16 16  0  0  0  0  0  0  0  0999 V2000     
   18.7792   18.3513   21.0923 C   0  0  0  0  0  0  0  0  0  0  0  0
   17.7260   18.0514   21.1820 H   0  0  0  0  0  0  0  0  0  0  0  0
   19.0318   18.3657   20.0232 H   0  0  0  0  0  0  0  0  0  0  0  0
   19.6744   17.3652   21.8741 C   0  0  0  0  0  0  0  0  0  0  0  0
   19.0546   16.5875   22.3413 H   0  0  0  0  0  0  0  0  0  0  0  0
   20.3961   16.8646   21.2141 H   0  0  0  0  0  0  0  0  0  0  0  0
   20.3961   18.1942   22.9578 C   0  0  0  0  0  0  0  0  0  0  0  0
   21.4022   18.4597   22.6072 H   0  0  0  0  0  0  0  0  0  0  0  0
   20.5059   17.6415   23.9004 H   0  0  0  0  0  0  0  0  0  0  0  0
   19.5732   19.4781   23.1292 C   0  0  0  0  0  0  0  0  0  0  0  0
   20.1973   20.3160   23.4718 H   0  0  0  0  0  0  0  0  0  0  0  0
   18.9944   19.7393   21.7322 C   0  0  0  0  0  0  0  0  0  0  0  0
   18.0686   20.3288   21.7690 H   0  0  0  0  0  0  0  0  0  0  0  0
   19.7277   20.3053   21.1426 H   0  0  0  0  0  0  0  0  0  0  0  0
   18.5095   19.2340   24.0380 O   0  0  0  0  0  0  0  0  0  0  0  0
   18.0146   18.4809   23.6546 H   0  0  0  0  0  0  0  0  0  0  0  0
  1  2  1  0  0  0  0
  1  3  1  0  0  0  0
  1  4  1  0  0  0  0
  4  5  1  0  0  0  0
  4  6  1  0  0  0  0
  4  7  1  0  0  0  0
  7  8  1  0  0  0  0
  7  9  1  0  0  0  0
  7 10  1  0  0  0  0
 10 11  1  0  0  0  0
  1 12  1  0  0  0  0
 10 12  1  0  0  0  0
 12 13  1  0  0  0  0
 12 14  1  0  0  0  0
 10 15  1  0  0  0  0
 15 16  1  0  0  0  0
M  END
> <VConfSearch Rank>
801

> <Conf_Id>
20

> <Delta U+W>
-0.483

> <U+W>
2.527

> <U>
4.508

> <W>
-1.981

> <W(PB)>
-3.712

> <W(SA)>
1.732

> <Valence>
14.705

> <Coulomb>
-10.687

> <VdW>
0.490

> <VdW6>
-3.745

> <VdW12>
4.235

> <Bond>
0.068

> <Angle>
3.901

> <Pdih>
10.737

> <Idih>
0.000

> <Tether>
0.000

$$$$
VeraChem MOL file


 16 16  0  0  0  0  0  0  0  0999 V2000     
   17.9842   18.0968   22.4449 C   0  0  0  0  0  0  0  0  0  0  0  0
   18.0106   17.0342   22.1659 H   0  0  0  0  0  0  0  0  0  0  0  0
   16.9601   18.3461   22.7541 H   0  0  0  0  0  0  0  0  0  0  0  0
   18.4641   18.9509   21.2634 C   0  0  0  0  0  0  0  0  0  0  0  0
   18.0936   18.5766   20.2994 H   0  0  0  0  0  0  0  0  0  0  0  0
   18.1136   19.9849   21.3883 H   0  0  0  0  0  0  0  0  0  0  0  0
   20.0003   18.9066   21.3577 C   0  0  0  0  0  0  0  0  0  0  0  0
   20.4537   19.8191   20.9494 H   0  0  0  0  0  0  0  0  0  0  0  0
   20.3755   18.0538   20.7757 H   0  0  0  0  0  0  0  0  0  0  0  0
   20.3392   18.7246   22.8523 C   0  0  0  0  0  0  0  0  0  0  0  0
   20.7268   19.6663   23.2677 H   0  0  0  0  0  0  0  0  0  0  0  0
   19.0153   18.3635   23.5571 C   0  0  0  0  0  0  0  0  0  0  0  0
   19.1214   17.4989   24.2258 H   0  0  0  0  0  0  0  0  0  0  0  0
   18.6889   19.2174   24.1650 H   0  0  0  0  0  0  0  0  0  0  0  0
   21.2849   17.6747   23.0169 O   0  0  0  0  0  0  0  0  0  0  0  0
   22.0975   17.9512   22.5428 H   0  0  0  0  0  0  0  0  0  0  0  0
  1  2  1  0  0  0  0
  1  3  1  0  0  0  0
  1  4  1  0  0  0  0
  4  5  1  0  0  0  0
  4  6  1  0  0  0  0
  4  7  1  0  0  0  0
  7  8  1  0  0  0  0
  7  9  1  0  0  0  0
  7 10  1  0  0  0  0
 10 11  1  0  0  0  0
  1 12  1  0  0  0  0
 10 12  1  0  0  0  0
 12 13  1  0  0  0  0
 12 14  1  0  0  0  0
 10 15  1  0  0  0  0
 15 16  1  0  0  0  0
M  END
> <VConfSearch Rank>
802

> <Conf_Id>
59

> <Delta U+W>
0.000

> <U+W>
3.010

> <U>
5.843

> <W>
-2.833

> <W(PB)>
-4.568

> <W(SA)>
1.735

> <Valence>
13.789

> <Coulomb>
-8.574

> <VdW>
0.628

> <VdW6>
-3.284

> <VdW12>
3.912

> <Bond>
0.054

> <Angle>
4.034

> <Pdih>
9.702

> <Idih>
0.000

> <Tether>
0.000

$$$$
VeraChem MOL file


 16 16  0  0  0  0  0  0  0  0999 V2000     
   18.9447   17.5419   21.4815 C   0  0  0  0  0  0  0  0  0  0  0  0
   18.1874   17.3731   20.7039 H   0  0  0  0  0  0  0  0  0  0  0  0
   19.5524   16.6308   21.5729 H   0  0  0  0  0  0  0  0  0  0  0  0
   18.3197   17.8840   22.8409 C   0  0  0  0  0  0  0  0  0  0  0  0
   17.4565   18.5478   22.6928 H   0  0  0  0  0  0  0  0  0  0  0  0
   17.9784   16.9913   23.3824 H   0  0  0  0  0  0  0  0  0  0  0  0
   19.4285   18.6407   23.5953 C   0  0  0  0  0  0  0  0  0  0  0  0
   20.0409   17.9277   24.1624 H   0  0  0  0  0  0  0  0  0  0  0  0
   19.0112   19.3637   24.3088 H   0  0  0  0  0  0  0  0  0  0  0  0
   20.3074   19.3169   22.5228 C   0  0  0  0  0  0  0  0  0  0  0  0
   21.3620   19.0632   22.7045 H   0  0  0  0  0  0  0  0  0  0  0  0
   19.8528   18.7440   21.1639 C   0  0  0  0  0  0  0  0  0  0  0  0
   19.2780   19.4963   20.6067 H   0  0  0  0  0  0  0  0  0  0  0  0
   20.7090   18.4472   20.5444 H   0  0  0  0  0  0  0  0  0  0  0  0
   20.1168   20.7265   22.5498 O   0  0  0  0  0  0  0  0  0  0  0  0
   20.6869   21.1009   21.8453 H   0  0  0  0  0  0  0  0  0  0  0  0
  1  2  1  0  0  0  0
  1  3  1  0  0  0  0
  1  4  1  0  0  0  0
  4  5  1  0  0  0  0
  4  6  1  0  0  0  0
  4  7  1  0  0  0  0
  7  8  1  0  0  0  0
  7  9  1  0  0  0  0
  7 10  1  0  0  0  0
 10 11  1  0  0  0  0
  1 12  1  0  0  0  0
 10 12  1  0  0  0  0
 12 13  1  0  0  0  0
 12 14  1  0  0  0  0
 10 15  1  0  0  0  0
 15 16  1  0  0  0  0
M  END
> <VConfSearch Rank>
803

> <Conf_Id>
33

> <Delta U+W>
0.015

> <U+W>
3.025

> <U>
5.843

> <W>
-2.819

> <W(PB)>
-4.568

> <W(SA)>
1.750

> <Valence>
13.789

> <Coulomb>
-8.574

> <VdW>
0.628

> <VdW6>
-3.284

> <VdW12>
3.913

> <Bond>
0.054

> <Angle>
4.033

> <Pdih>
9.702

> <Idih>
0.000

> <Tether>
0.000

$$$$
VeraChem MOL file


 16 16  0  0  0  0  0  0  0  0999 V2000     
   18.6665   17.9676   21.3278 C   0  0  0  0  0  0  0  0  0  0  0  0
   18.0632   17.1351   21.7152 H   0  0  0  0  0  0  0  0  0  0  0  0
   18.4836   18.0370   20.2468 H   0  0  0  0  0  0  0  0  0  0  0  0
   20.1597   17.7224   21.6366 C   0  0  0  0  0  0  0  0  0  0  0  0
   20.2791   16.7706   22.1724 H   0  0  0  0  0  0  0  0  0  0  0  0
   20.7580   17.6645   20.7170 H   0  0  0  0  0  0  0  0  0  0  0  0
   20.6213   18.8965   22.5259 C   0  0  0  0  0  0  0  0  0  0  0  0
   21.1183   19.6536   21.9050 H   0  0  0  0  0  0  0  0  0  0  0  0
   21.3335   18.5782   23.2988 H   0  0  0  0  0  0  0  0  0  0  0  0
   19.3454   19.5030   23.1253 C   0  0  0  0  0  0  0  0  0  0  0  0
   19.4737   20.5708   23.3539 H   0  0  0  0  0  0  0  0  0  0  0  0
   18.2822   19.2814   22.0411 C   0  0  0  0  0  0  0  0  0  0  0  0
   17.2659   19.2480   22.4558 H   0  0  0  0  0  0  0  0  0  0  0  0
   18.3240   20.1131   21.3255 H   0  0  0  0  0  0  0  0  0  0  0  0
   18.9843   18.7753   24.2902 O   0  0  0  0  0  0  0  0  0  0  0  0
   18.8932   17.8467   23.9925 H   0  0  0  0  0  0  0  0  0  0  0  0
  1  2  1  0  0  0  0
  1  3  1  0  0  0  0
  1  4  1  0  0  0  0
  4  5  1  0  0  0  0
  4  6  1  0  0  0  0
  4  7  1  0  0  0  0
  7  8  1  0  0  0  0
  7  9  1  0  0  0  0
  7 10  1  0  0  0  0
 10 11  1  0  0  0  0
  1 12  1  0  0  0  0
 10 12  1  0  0  0  0
 12 13  1  0  0  0  0
 12 14  1  0  0  0  0
 10 15  1  0  0  0  0
 15 16  1  0  0  0  0
M  END
> <VConfSearch Rank>
804

> <Conf_Id>
20

> <Delta U+W>
-0.483

> <U+W>
2.527

> <U>
4.508

> <W>
-1.981

> <W(PB)>
-3.712

> <W(SA)>
1.732

> <Valence>
14.705

> <Coulomb>
-10.687

> <VdW>
0.490

> <VdW6>
-3.745

> <VdW12>
4.235

> <Bond>
0.068

> <Angle>
3.901

> <Pdih>
10.737

> <Idih>
0.000

> <Tether>
0.000

$$$$
VeraChem MOL file


 16 16  0  0  0  0  0  0  0  0999 V2000     
   18.9990   17.1841   21.9858 C   0  0  0  0  0  0  0  0  0  0  0  0
   18.1812   17.2714   21.2570 H   0  0  0  0  0  0  0  0  0  0  0  0
   19.2341   16.1186   22.1133 H   0  0  0  0  0  0  0  0  0  0  0  0
   18.5876   17.8552   23.3034 C   0  0  0  0  0  0  0  0  0  0  0  0
   17.5363   17.6650   23.5589 H   0  0  0  0  0  0  0  0  0  0  0  0
   19.2144   17.4764   24.1227 H   0  0  0  0  0  0  0  0  0  0  0  0
   18.8742   19.3510   23.0772 C   0  0  0  0  0  0  0  0  0  0  0  0
   19.1213   19.8589   24.0184 H   0  0  0  0  0  0  0  0  0  0  0  0
   17.9803   19.8329   22.6584 H   0  0  0  0  0  0  0  0  0  0  0  0
   20.0417   19.4227   22.0704 C   0  0  0  0  0  0  0  0  0  0  0  0
   20.9661   19.7201   22.5867 H   0  0  0  0  0  0  0  0  0  0  0  0
   20.2117   17.9994   21.5003 C   0  0  0  0  0  0  0  0  0  0  0  0
   20.2889   17.9957   20.4048 H   0  0  0  0  0  0  0  0  0  0  0  0
   21.1348   17.5611   21.9013 H   0  0  0  0  0  0  0  0  0  0  0  0
   19.7327   20.3365   21.0247 O   0  0  0  0  0  0  0  0  0  0  0  0
   19.6252   21.2168   21.4431 H   0  0  0  0  0  0  0  0  0  0  0  0
  1  2  1  0  0  0  0
  1  3  1  0  0  0  0
  1  4  1  0  0  0  0
  4  5  1  0  0  0  0
  4  6  1  0  0  0  0
  4  7  1  0  0  0  0
  7  8  1  0  0  0  0
  7  9  1  0  0  0  0
  7 10  1  0  0  0  0
 10 11  1  0  0  0  0
  1 12  1  0  0  0  0
 10 12  1  0  0  0  0
 12 13  1  0  0  0  0
 12 14  1  0  0  0  0
 10 15  1  0  0  0  0
 15 16  1  0  0  0  0
M  END
> <VConfSearch Rank>
805

> <Conf_Id>
59

> <Delta U+W>
0.000

> <U+W>
3.010

> <U>
5.843

> <W>
-2.833

> <W(PB)>
-4.568

> <W(SA)>
1.735

> <Valence>
13.789

> <Coulomb>
-8.574

> <VdW>
0.628

> <VdW6>
-3.284

> <VdW12>
3.912

> <Bond>
0.054

> <Angle>
4.034

> <Pdih>
9.702

> <Idih>
0.000

> <Tether>
0.000

$$$$
VeraChem MOL file


 16 16  0  0  0  0  0  0  0  0999 V2000     
   19.5894   19.1974   20.9888 C   0  0  0  0  0  0  0  0  0  0  0  0
   19.8254   18.8930   19.9600 H   0  0  0  0  0  0  0  0  0  0  0  0
   19.2617   20.2461   20.9703 H   0  0  0  0  0  0  0  0  0  0  0  0
   20.7911   19.0486   21.9320 C   0  0  0  0  0  0  0  0  0  0  0  0
   21.3357   18.1249   21.6917 H   0  0  0  0  0  0  0  0  0  0  0  0
   21.4917   19.8911   21.8550 H   0  0  0  0  0  0  0  0  0  0  0  0
   20.1674   18.9294   23.3348 C   0  0  0  0  0  0  0  0  0  0  0  0
   20.0633   19.9283   23.7779 H   0  0  0  0  0  0  0  0  0  0  0  0
   20.7956   18.3299   24.0070 H   0  0  0  0  0  0  0  0  0  0  0  0
   18.7650   18.3161   23.1419 C   0  0  0  0  0  0  0  0  0  0  0  0
   18.0214   18.9401   23.6587 H   0  0  0  0  0  0  0  0  0  0  0  0
   18.4940   18.3205   21.6226 C   0  0  0  0  0  0  0  0  0  0  0  0
   18.5666   17.3009   21.2200 H   0  0  0  0  0  0  0  0  0  0  0  0
   17.4911   18.7030   21.3928 H   0  0  0  0  0  0  0  0  0  0  0  0
   18.7391   16.9843   23.6413 O   0  0  0  0  0  0  0  0  0  0  0  0
   17.8338   16.6423   23.4835 H   0  0  0  0  0  0  0  0  0  0  0  0
  1  2  1  0  0  0  0
  1  3  1  0  0  0  0
  1  4  1  0  0  0  0
  4  5  1  0  0  0  0
  4  6  1  0  0  0  0
  4  7  1  0  0  0  0
  7  8  1  0  0  0  0
  7  9  1  0  0  0  0
  7 10  1  0  0  0  0
 10 11  1  0  0  0  0
  1 12  1  0  0  0  0
 10 12  1  0  0  0  0
 12 13  1  0  0  0  0
 12 14  1  0  0  0  0
 10 15  1  0  0  0  0
 15 16  1  0  0  0  0
M  END
> <VConfSearch Rank>
806

> <Conf_Id>
33

> <Delta U+W>
0.015

> <U+W>
3.025

> <U>
5.843

> <W>
-2.819

> <W(PB)>
-4.568

> <W(SA)>
1.750

> <Valence>
13.789

> <Coulomb>
-8.574

> <VdW>
0.628

> <VdW6>
-3.284

> <VdW12>
3.913

> <Bond>
0.054

> <Angle>
4.033

> <Pdih>
9.702

> <Idih>
0.000

> <Tether>
0.000

$$$$
VeraChem MOL file


 16 16  0  0  0  0  0  0  0  0999 V2000     
   18.5899   18.2871   23.2873 C   0  0  0  0  0  0  0  0  0  0  0  0
   19.0655   18.3936   24.2720 H   0  0  0  0  0  0  0  0  0  0  0  0
   17.5578   17.9480   23.4506 H   0  0  0  0  0  0  0  0  0  0  0  0
   19.3873   17.2846   22.4246 C   0  0  0  0  0  0  0  0  0  0  0  0
   20.2482   16.9051   22.9922 H   0  0  0  0  0  0  0  0  0  0  0  0
   18.7719   16.4215   22.1358 H   0  0  0  0  0  0  0  0  0  0  0  0
   19.8692   18.0630   21.1819 C   0  0  0  0  0  0  0  0  0  0  0  0
   19.1849   17.8760   20.3438 H   0  0  0  0  0  0  0  0  0  0  0  0
   20.8760   17.7595   20.8653 H   0  0  0  0  0  0  0  0  0  0  0  0
   19.8015   19.5491   21.5585 C   0  0  0  0  0  0  0  0  0  0  0  0
   19.6436   20.1837   20.6746 H   0  0  0  0  0  0  0  0  0  0  0  0
   18.6189   19.6333   22.5328 C   0  0  0  0  0  0  0  0  0  0  0  0
   18.7015   20.4906   23.2142 H   0  0  0  0  0  0  0  0  0  0  0  0
   17.6910   19.7517   21.9579 H   0  0  0  0  0  0  0  0  0  0  0  0
   20.9941   19.9142   22.2378 O   0  0  0  0  0  0  0  0  0  0  0  0
   21.0502   19.3026   23.0007 H   0  0  0  0  0  0  0  0  0  0  0  0
  1  2  1  0  0  0  0
  1  3  1  0  0  0  0
  1  4  1  0  0  0  0
  4  5  1  0  0  0  0
  4  6  1  0  0  0  0
  4  7  1  0  0  0  0
  7  8  1  0  0  0  0
  7  9  1  0  0  0  0
  7 10  1  0  0  0  0
 10 11  1  0  0  0  0
  1 12  1  0  0  0  0
 10 12  1  0  0  0  0
 12 13  1  0  0  0  0
 12 14  1  0  0  0  0
 10 15  1  0  0  0  0
 15 16  1  0  0  0  0
M  END
> <VConfSearch Rank>
807

> <Conf_Id>
20

> <Delta U+W>
-0.483

> <U+W>
2.527

> <U>
4.508

> <W>
-1.981

> <W(PB)>
-3.712

> <W(SA)>
1.732

> <Valence>
14.705

> <Coulomb>
-10.687

> <VdW>
0.490

> <VdW6>
-3.745

> <VdW12>
4.235

> <Bond>
0.068

> <Angle>
3.901

> <Pdih>
10.737

> <Idih>
0.000

> <Tether>
0.000

$$$$
VeraChem MOL file


 16 16  0  0  0  0  0  0  0  0999 V2000     
   19.7140   17.7151   21.1814 C   0  0  0  0  0  0  0  0  0  0  0  0
   19.5155   18.3344   20.2955 H   0  0  0  0  0  0  0  0  0  0  0  0
   20.1435   16.7615   20.8455 H   0  0  0  0  0  0  0  0  0  0  0  0
   18.4156   17.5251   21.9775 C   0  0  0  0  0  0  0  0  0  0  0  0
   17.5440   17.3745   21.3259 H   0  0  0  0  0  0  0  0  0  0  0  0
   18.5093   16.6487   22.6339 H   0  0  0  0  0  0  0  0  0  0  0  0
   18.2973   18.8029   22.8282 C   0  0  0  0  0  0  0  0  0  0  0  0
   17.7615   18.6116   23.7669 H   0  0  0  0  0  0  0  0  0  0  0  0
   17.7351   19.5619   22.2674 H   0  0  0  0  0  0  0  0  0  0  0  0
   19.7393   19.2882   23.0868 C   0  0  0  0  0  0  0  0  0  0  0  0
   20.0237   19.0843   24.1294 H   0  0  0  0  0  0  0  0  0  0  0  0
   20.6476   18.4740   22.1424 C   0  0  0  0  0  0  0  0  0  0  0  0
   21.3586   19.1094   21.5976 H   0  0  0  0  0  0  0  0  0  0  0  0
   21.2285   17.7558   22.7356 H   0  0  0  0  0  0  0  0  0  0  0  0
   19.8494   20.6766   22.7971 O   0  0  0  0  0  0  0  0  0  0  0  0
   19.2467   21.1415   23.4153 H   0  0  0  0  0  0  0  0  0  0  0  0
  1  2  1  0  0  0  0
  1  3  1  0  0  0  0
  1  4  1  0  0  0  0
  4  5  1  0  0  0  0
  4  6  1  0  0  0  0
  4  7  1  0  0  0  0
  7  8  1  0  0  0  0
  7  9  1  0  0  0  0
  7 10  1  0  0  0  0
 10 11  1  0  0  0  0
  1 12  1  0  0  0  0
 10 12  1  0  0  0  0
 12 13  1  0  0  0  0
 12 14  1  0  0  0  0
 10 15  1  0  0  0  0
 15 16  1  0  0  0  0
M  END
> <VConfSearch Rank>
808

> <Conf_Id>
59

> <Delta U+W>
0.000

> <U+W>
3.010

> <U>
5.843

> <W>
-2.833

> <W(PB)>
-4.568

> <W(SA)>
1.735

> <Valence>
13.789

> <Coulomb>
-8.574

> <VdW>
0.628

> <VdW6>
-3.284

> <VdW12>
3.912

> <Bond>
0.054

> <Angle>
4.034

> <Pdih>
9.702

> <Idih>
0.000

> <Tether>
0.000

$$$$
VeraChem MOL file


 16 16  0  0  0  0  0  0  0  0999 V2000     
   20.6182   18.2469   23.0454 C   0  0  0  0  0  0  0  0  0  0  0  0
   21.0230   18.3590   24.0605 H   0  0  0  0  0  0  0  0  0  0  0  0
   21.2685   17.5564   22.4906 H   0  0  0  0  0  0  0  0  0  0  0  0
   20.5316   19.5858   22.3001 C   0  0  0  0  0  0  0  0  0  0  0  0
   20.2001   20.3720   22.9926 H   0  0  0  0  0  0  0  0  0  0  0  0
   21.4957   19.8899   21.8704 H   0  0  0  0  0  0  0  0  0  0  0  0
   19.4541   19.3586   21.2239 C   0  0  0  0  0  0  0  0  0  0  0  0
   19.9242   18.9852   20.3048 H   0  0  0  0  0  0  0  0  0  0  0  0
   18.9283   20.2901   20.9751 H   0  0  0  0  0  0  0  0  0  0  0  0
   18.5015   18.2783   21.7764 C   0  0  0  0  0  0  0  0  0  0  0  0
   18.3829   17.4813   21.0279 H   0  0  0  0  0  0  0  0  0  0  0  0
   19.1735   17.7146   23.0462 C   0  0  0  0  0  0  0  0  0  0  0  0
   18.6538   18.0758   23.9442 H   0  0  0  0  0  0  0  0  0  0  0  0
   19.1503   16.6173   23.0617 H   0  0  0  0  0  0  0  0  0  0  0  0
   17.2423   18.8546   22.1020 O   0  0  0  0  0  0  0  0  0  0  0  0
   16.6846   18.1301   22.4565 H   0  0  0  0  0  0  0  0  0  0  0  0
  1  2  1  0  0  0  0
  1  3  1  0  0  0  0
  1  4  1  0  0  0  0
  4  5  1  0  0  0  0
  4  6  1  0  0  0  0
  4  7  1  0  0  0  0
  7  8  1  0  0  0  0
  7  9  1  0  0  0  0
  7 10  1  0  0  0  0
 10 11  1  0  0  0  0
  1 12  1  0  0  0  0
 10 12  1  0  0  0  0
 12 13  1  0  0  0  0
 12 14  1  0  0  0  0
 10 15  1  0  0  0  0
 15 16  1  0  0  0  0
M  END
> <VConfSearch Rank>
809

> <Conf_Id>
33

> <Delta U+W>
0.015

> <U+W>
3.025

> <U>
5.843

> <W>
-2.819

> <W(PB)>
-4.568

> <W(SA)>
1.750

> <Valence>
13.789

> <Coulomb>
-8.574

> <VdW>
0.628

> <VdW6>
-3.284

> <VdW12>
3.913

> <Bond>
0.054

> <Angle>
4.033

> <Pdih>
9.702

> <Idih>
0.000

> <Tether>
0.000

$$$$
VeraChem MOL file


 16 16  0  0  0  0  0  0  0  0999 V2000     
   20.0331   18.1313   21.1966 C   0  0  0  0  0  0  0  0  0  0  0  0
   19.3904   17.6418   20.4519 H   0  0  0  0  0  0  0  0  0  0  0  0
   21.0652   18.0941   20.8221 H   0  0  0  0  0  0  0  0  0  0  0  0
   19.8972   17.4163   22.5587 C   0  0  0  0  0  0  0  0  0  0  0  0
   19.1895   16.5801   22.4730 H   0  0  0  0  0  0  0  0  0  0  0  0
   20.8584   17.0059   22.8972 H   0  0  0  0  0  0  0  0  0  0  0  0
   19.3618   18.4680   23.5536 C   0  0  0  0  0  0  0  0  0  0  0  0
   20.1980   18.8901   24.1265 H   0  0  0  0  0  0  0  0  0  0  0  0
   18.6491   18.0382   24.2702 H   0  0  0  0  0  0  0  0  0  0  0  0
   18.7314   19.5774   22.7011 C   0  0  0  0  0  0  0  0  0  0  0  0
   18.7623   20.5492   23.2146 H   0  0  0  0  0  0  0  0  0  0  0  0
   19.5759   19.5885   21.4199 C   0  0  0  0  0  0  0  0  0  0  0  0
   19.0217   19.9873   20.5597 H   0  0  0  0  0  0  0  0  0  0  0  0
   20.4541   20.2285   21.5772 H   0  0  0  0  0  0  0  0  0  0  0  0
   17.3961   19.2174   22.3780 O   0  0  0  0  0  0  0  0  0  0  0  0
   17.4676   18.3497   21.9295 H   0  0  0  0  0  0  0  0  0  0  0  0
  1  2  1  0  0  0  0
  1  3  1  0  0  0  0
  1  4  1  0  0  0  0
  4  5  1  0  0  0  0
  4  6  1  0  0  0  0
  4  7  1  0  0  0  0
  7  8  1  0  0  0  0
  7  9  1  0  0  0  0
  7 10  1  0  0  0  0
 10 11  1  0  0  0  0
  1 12  1  0  0  0  0
 10 12  1  0  0  0  0
 12 13  1  0  0  0  0
 12 14  1  0  0  0  0
 10 15  1  0  0  0  0
 15 16  1  0  0  0  0
M  END
> <VConfSearch Rank>
810

> <Conf_Id>
20

> <Delta U+W>
-0.483

> <U+W>
2.527

> <U>
4.508

> <W>
-1.981

> <W(PB)>
-3.712

> <W(SA)>
1.732

> <Valence>
14.705

> <Coulomb>
-10.687

> <VdW>
0.490

> <VdW6>
-3.745

> <VdW12>
4.235

> <Bond>
0.068

> <Angle>
3.901

> <Pdih>
10.737

> <Idih>
0.000

> <Tether>
0.000

$$$$
VeraChem MOL file


 16 16  0  0  0  0  0  0  0  0999 V2000     
   18.7133   18.7903   21.0327 C   0  0  0  0  0  0  0  0  0  0  0  0
   19.5310   18.7887   20.2984 H   0  0  0  0  0  0  0  0  0  0  0  0
   17.7650   18.9106   20.4914 H   0  0  0  0  0  0  0  0  0  0  0  0
   18.9472   19.9059   22.0605 C   0  0  0  0  0  0  0  0  0  0  0  0
   19.3390   20.8231   21.5999 H   0  0  0  0  0  0  0  0  0  0  0  0
   18.0007   20.1507   22.5623 H   0  0  0  0  0  0  0  0  0  0  0  0
   19.9309   19.2930   23.0740 C   0  0  0  0  0  0  0  0  0  0  0  0
   19.7979   19.7256   24.0741 H   0  0  0  0  0  0  0  0  0  0  0  0
   20.9605   19.4993   22.7514 H   0  0  0  0  0  0  0  0  0  0  0  0
   19.6648   17.7728   23.0736 C   0  0  0  0  0  0  0  0  0  0  0  0
   19.1380   17.4827   23.9943 H   0  0  0  0  0  0  0  0  0  0  0  0
   18.7584   17.4908   21.8575 C   0  0  0  0  0  0  0  0  0  0  0  0
   19.1171   16.6436   21.2579 H   0  0  0  0  0  0  0  0  0  0  0  0
   17.7492   17.2447   22.2127 H   0  0  0  0  0  0  0  0  0  0  0  0
   20.8896   17.0601   22.9483 O   0  0  0  0  0  0  0  0  0  0  0  0
   21.4271   17.2839   23.7373 H   0  0  0  0  0  0  0  0  0  0  0  0
  1  2  1  0  0  0  0
  1  3  1  0  0  0  0
  1  4  1  0  0  0  0
  4  5  1  0  0  0  0
  4  6  1  0  0  0  0
  4  7  1  0  0  0  0
  7  8  1  0  0  0  0
  7  9  1  0  0  0  0
  7 10  1  0  0  0  0
 10 11  1  0  0  0  0
  1 12  1  0  0  0  0
 10 12  1  0  0  0  0
 12 13  1  0  0  0  0
 12 14  1  0  0  0  0
 10 15  1  0  0  0  0
 15 16  1  0  0  0  0
M  END
> <VConfSearch Rank>
811

> <Conf_Id>
59

> <Delta U+W>
0.000

> <U+W>
3.010

> <U>
5.843

> <W>
-2.833

> <W(PB)>
-4.568

> <W(SA)>
1.735

> <Valence>
13.789

> <Coulomb>
-8.574

> <VdW>
0.628

> <VdW6>
-3.284

> <VdW12>
3.912

> <Bond>
0.054

> <Angle>
4.034

> <Pdih>
9.702

> <Idih>
0.000

> <Tether>
0.000

$$$$
VeraChem MOL file


 16 16  0  0  0  0  0  0  0  0999 V2000     
   19.9724   17.3009   22.5573 C   0  0  0  0  0  0  0  0  0  0  0  0
   20.2178   16.3772   22.0157 H   0  0  0  0  0  0  0  0  0  0  0  0
   20.3424   17.2038   23.5875 H   0  0  0  0  0  0  0  0  0  0  0  0
   18.4640   17.5841   22.5752 C   0  0  0  0  0  0  0  0  0  0  0  0
   18.0301   17.3307   21.5979 H   0  0  0  0  0  0  0  0  0  0  0  0
   17.9375   17.0050   23.3460 H   0  0  0  0  0  0  0  0  0  0  0  0
   18.3598   19.1027   22.8075 C   0  0  0  0  0  0  0  0  0  0  0  0
   18.3156   19.3084   23.8849 H   0  0  0  0  0  0  0  0  0  0  0  0
   17.4528   19.5204   22.3504 H   0  0  0  0  0  0  0  0  0  0  0  0
   19.6472   19.7254   22.2290 C   0  0  0  0  0  0  0  0  0  0  0  0
   20.1089   20.3750   22.9869 H   0  0  0  0  0  0  0  0  0  0  0  0
   20.5886   18.5482   21.8978 C   0  0  0  0  0  0  0  0  0  0  0  0
   20.6405   18.3964   20.8111 H   0  0  0  0  0  0  0  0  0  0  0  0
   21.6078   18.7321   22.2616 H   0  0  0  0  0  0  0  0  0  0  0  0
   19.3485   20.4620   21.0491 O   0  0  0  0  0  0  0  0  0  0  0  0
   20.1987   20.8235   20.7204 H   0  0  0  0  0  0  0  0  0  0  0  0
  1  2  1  0  0  0  0
  1  3  1  0  0  0  0
  1  4  1  0  0  0  0
  4  5  1  0  0  0  0
  4  6  1  0  0  0  0
  4  7  1  0  0  0  0
  7  8  1  0  0  0  0
  7  9  1  0  0  0  0
  7 10  1  0  0  0  0
 10 11  1  0  0  0  0
  1 12  1  0  0  0  0
 10 12  1  0  0  0  0
 12 13  1  0  0  0  0
 12 14  1  0  0  0  0
 10 15  1  0  0  0  0
 15 16  1  0  0  0  0
M  END
> <VConfSearch Rank>
812

> <Conf_Id>
33

> <Delta U+W>
0.015

> <U+W>
3.025

> <U>
5.843

> <W>
-2.819

> <W(PB)>
-4.568

> <W(SA)>
1.750

> <Valence>
13.789

> <Coulomb>
-8.574

> <VdW>
0.628

> <VdW6>
-3.284

> <VdW12>
3.913

> <Bond>
0.054

> <Angle>
4.033

> <Pdih>
9.702

> <Idih>
0.000

> <Tether>
0.000

$$$$
VeraChem MOL file


 16 16  0  0  0  0  0  0  0  0999 V2000     
   19.6634   17.3057   22.2992 C   0  0  0  0  0  0  0  0  0  0  0  0
   19.7056   16.8837   23.3128 H   0  0  0  0  0  0  0  0  0  0  0  0
   19.8603   16.4899   21.5902 H   0  0  0  0  0  0  0  0  0  0  0  0
   20.7000   18.4419   22.1597 C   0  0  0  0  0  0  0  0  0  0  0  0
   21.2446   18.5691   23.1054 H   0  0  0  0  0  0  0  0  0  0  0  0
   21.4386   18.2209   21.3769 H   0  0  0  0  0  0  0  0  0  0  0  0
   19.9043   19.7217   21.8262 C   0  0  0  0  0  0  0  0  0  0  0  0
   19.9226   19.8930   20.7418 H   0  0  0  0  0  0  0  0  0  0  0  0
   20.3253   20.6121   22.3122 H   0  0  0  0  0  0  0  0  0  0  0  0
   18.4587   19.4496   22.2634 C   0  0  0  0  0  0  0  0  0  0  0  0
   17.7399   20.0328   21.6700 H   0  0  0  0  0  0  0  0  0  0  0  0
   18.2804   17.9414   22.0436 C   0  0  0  0  0  0  0  0  0  0  0  0
   17.5009   17.5161   22.6898 H   0  0  0  0  0  0  0  0  0  0  0  0
   17.9828   17.7657   21.0014 H   0  0  0  0  0  0  0  0  0  0  0  0
   18.3263   19.7394   23.6474 O   0  0  0  0  0  0  0  0  0  0  0  0
   18.9979   19.1808   24.0901 H   0  0  0  0  0  0  0  0  0  0  0  0
  1  2  1  0  0  0  0
  1  3  1  0  0  0  0
  1  4  1  0  0  0  0
  4  5  1  0  0  0  0
  4  6  1  0  0  0  0
  4  7  1  0  0  0  0
  7  8  1  0  0  0  0
  7  9  1  0  0  0  0
  7 10  1  0  0  0  0
 10 11  1  0  0  0  0
  1 12  1  0  0  0  0
 10 12  1  0  0  0  0
 12 13  1  0  0  0  0
 12 14  1  0  0  0  0
 10 15  1  0  0  0  0
 15 16  1  0  0  0  0
M  END
> <VConfSearch Rank>
813

> <Conf_Id>
20

> <Delta U+W>
-0.483

> <U+W>
2.527

> <U>
4.508

> <W>
-1.981

> <W(PB)>
-3.712

> <W(SA)>
1.732

> <Valence>
14.705

> <Coulomb>
-10.687

> <VdW>
0.490

> <VdW6>
-3.745

> <VdW12>
4.235

> <Bond>
0.068

> <Angle>
3.901

> <Pdih>
10.737

> <Idih>
0.000

> <Tether>
0.000

$$$$
VeraChem MOL file


 16 16  0  0  0  0  0  0  0  0999 V2000     
   20.4164   18.1446   23.2231 C   0  0  0  0  0  0  0  0  0  0  0  0
   19.9146   17.5344   23.9870 H   0  0  0  0  0  0  0  0  0  0  0  0
   21.4946   18.1405   23.4329 H   0  0  0  0  0  0  0  0  0  0  0  0
   19.8241   19.5606   23.2254 C   0  0  0  0  0  0  0  0  0  0  0  0
   19.6170   19.9254   24.2407 H   0  0  0  0  0  0  0  0  0  0  0  0
   20.5277   20.2563   22.7472 H   0  0  0  0  0  0  0  0  0  0  0  0
   18.5473   19.4432   22.3731 C   0  0  0  0  0  0  0  0  0  0  0  0
   18.3120   20.3903   21.8706 H   0  0  0  0  0  0  0  0  0  0  0  0
   17.6994   19.1860   23.0225 H   0  0  0  0  0  0  0  0  0  0  0  0
   18.8054   18.3108   21.3568 C   0  0  0  0  0  0  0  0  0  0  0  0
   18.9706   18.7343   20.3554 H   0  0  0  0  0  0  0  0  0  0  0  0
   20.0878   17.5918   21.8239 C   0  0  0  0  0  0  0  0  0  0  0  0
   19.9720   16.4998   21.8377 H   0  0  0  0  0  0  0  0  0  0  0  0
   20.9052   17.8320   21.1316 H   0  0  0  0  0  0  0  0  0  0  0  0
   17.7103   17.4027   21.3452 O   0  0  0  0  0  0  0  0  0  0  0  0
   16.9252   17.9126   21.0534 H   0  0  0  0  0  0  0  0  0  0  0  0
  1  2  1  0  0  0  0
  1  3  1  0  0  0  0
  1  4  1  0  0  0  0
  4  5  1  0  0  0  0
  4  6  1  0  0  0  0
  4  7  1  0  0  0  0
  7  8  1  0  0  0  0
  7  9  1  0  0  0  0
  7 10  1  0  0  0  0
 10 11  1  0  0  0  0
  1 12  1  0  0  0  0
 10 12  1  0  0  0  0
 12 13  1  0  0  0  0
 12 14  1  0  0  0  0
 10 15  1  0  0  0  0
 15 16  1  0  0  0  0
M  END
> <VConfSearch Rank>
814

> <Conf_Id>
59

> <Delta U+W>
0.000

> <U+W>
3.010

> <U>
5.843

> <W>
-2.833

> <W(PB)>
-4.568

> <W(SA)>
1.735

> <Valence>
13.789

> <Coulomb>
-8.574

> <VdW>
0.628

> <VdW6>
-3.284

> <VdW12>
3.912

> <Bond>
0.054

> <Angle>
4.034

> <Pdih>
9.702

> <Idih>
0.000

> <Tether>
0.000

$$$$
VeraChem MOL file


 16 16  0  0  0  0  0  0  0  0999 V2000     
   18.4818   17.6657   21.8200 C   0  0  0  0  0  0  0  0  0  0  0  0
   17.8079   17.5204   20.9647 H   0  0  0  0  0  0  0  0  0  0  0  0
   18.4680   16.7502   22.4276 H   0  0  0  0  0  0  0  0  0  0  0  0
   18.0758   18.8662   22.6859 C   0  0  0  0  0  0  0  0  0  0  0  0
   17.7432   19.6906   22.0397 H   0  0  0  0  0  0  0  0  0  0  0  0
   17.2614   18.6248   23.3823 H   0  0  0  0  0  0  0  0  0  0  0  0
   19.3707   19.2717   23.4137 C   0  0  0  0  0  0  0  0  0  0  0  0
   19.4434   18.7298   24.3657 H   0  0  0  0  0  0  0  0  0  0  0  0
   19.3883   20.3463   23.6392 H   0  0  0  0  0  0  0  0  0  0  0  0
   20.5397   18.8455   22.5018 C   0  0  0  0  0  0  0  0  0  0  0  0
   21.2581   18.2516   23.0857 H   0  0  0  0  0  0  0  0  0  0  0  0
   19.9244   17.9791   21.3827 C   0  0  0  0  0  0  0  0  0  0  0  0
   19.9041   18.5373   20.4368 H   0  0  0  0  0  0  0  0  0  0  0  0
   20.5026   17.0604   21.2197 H   0  0  0  0  0  0  0  0  0  0  0  0
   21.1702   19.9924   21.9442 O   0  0  0  0  0  0  0  0  0  0  0  0
   21.8931   19.6641   21.3687 H   0  0  0  0  0  0  0  0  0  0  0  0
  1  2  1  0  0  0  0
  1  3  1  0  0  0  0
  1  4  1  0  0  0  0
  4  5  1  0  0  0  0
  4  6  1  0  0  0  0
  4  7  1  0  0  0  0
  7  8  1  0  0  0  0
  7  9  1  0  0  0  0
  7 10  1  0  0  0  0
 10 11  1  0  0  0  0
  1 12  1  0  0  0  0
 10 12  1  0  0  0  0
 12 13  1  0  0  0  0
 12 14  1  0  0  0  0
 10 15  1  0  0  0  0
 15 16  1  0  0  0  0
M  END
> <VConfSearch Rank>
815

> <Conf_Id>
33

> <Delta U+W>
0.015

> <U+W>
3.025

> <U>
5.843

> <W>
-2.819

> <W(PB)>
-4.568

> <W(SA)>
1.750

> <Valence>
13.789

> <Coulomb>
-8.574

> <VdW>
0.628

> <VdW6>
-3.284

> <VdW12>
3.913

> <Bond>
0.054

> <Angle>
4.033

> <Pdih>
9.702

> <Idih>
0.000

> <Tether>
0.000

$$$$
VeraChem MOL file


 16 16  0  0  0  0  0  0  0  0999 V2000     
   19.8406   18.9278   21.0456 C   0  0  0  0  0  0  0  0  0  0  0  0
   20.8865   19.2643   21.0343 H   0  0  0  0  0  0  0  0  0  0  0  0
   19.4763   18.9373   20.0091 H   0  0  0  0  0  0  0  0  0  0  0  0
   19.0004   19.8546   21.9513 C   0  0  0  0  0  0  0  0  0  0  0  0
   19.6395   20.6401   22.3775 H   0  0  0  0  0  0  0  0  0  0  0  0
   18.1960   20.3480   21.3888 H   0  0  0  0  0  0  0  0  0  0  0  0
   18.4270   18.9655   23.0752 C   0  0  0  0  0  0  0  0  0  0  0  0
   17.3989   18.6733   22.8233 H   0  0  0  0  0  0  0  0  0  0  0  0
   18.3994   19.4840   24.0429 H   0  0  0  0  0  0  0  0  0  0  0  0
   19.3069   17.7089   23.1140 C   0  0  0  0  0  0  0  0  0  0  0  0
   18.7518   16.8377   23.4908 H   0  0  0  0  0  0  0  0  0  0  0  0
   19.7422   17.5134   21.6555 C   0  0  0  0  0  0  0  0  0  0  0  0
   20.6863   16.9583   21.5740 H   0  0  0  0  0  0  0  0  0  0  0  0
   18.9702   16.9388   21.1269 H   0  0  0  0  0  0  0  0  0  0  0  0
   20.4522   17.9644   23.9137 O   0  0  0  0  0  0  0  0  0  0  0  0
   20.8775   18.7472   23.5070 H   0  0  0  0  0  0  0  0  0  0  0  0
  1  2  1  0  0  0  0
  1  3  1  0  0  0  0
  1  4  1  0  0  0  0
  4  5  1  0  0  0  0
  4  6  1  0  0  0  0
  4  7  1  0  0  0  0
  7  8  1  0  0  0  0
  7  9  1  0  0  0  0
  7 10  1  0  0  0  0
 10 11  1  0  0  0  0
  1 12  1  0  0  0  0
 10 12  1  0  0  0  0
 12 13  1  0  0  0  0
 12 14  1  0  0  0  0
 10 15  1  0  0  0  0
 15 16  1  0  0  0  0
M  END
> <VConfSearch Rank>
816

> <Conf_Id>
20

> <Delta U+W>
-0.483

> <U+W>
2.527

> <U>
4.508

> <W>
-1.981

> <W(PB)>
-3.712

> <W(SA)>
1.732

> <Valence>
14.705

> <Coulomb>
-10.687

> <VdW>
0.490

> <VdW6>
-3.745

> <VdW12>
4.235

> <Bond>
0.068

> <Angle>
3.901

> <Pdih>
10.737

> <Idih>
0.000

> <Tether>
0.000

$$$$
VeraChem MOL file


 16 16  0  0  0  0  0  0  0  0999 V2000     
   20.3444   17.4880   22.2485 C   0  0  0  0  0  0  0  0  0  0  0  0
   20.0291   16.8607   21.4030 H   0  0  0  0  0  0  0  0  0  0  0  0
   21.2862   17.0842   22.6442 H   0  0  0  0  0  0  0  0  0  0  0  0
   19.2320   17.5235   23.3054 C   0  0  0  0  0  0  0  0  0  0  0  0
   18.7464   16.5466   23.4342 H   0  0  0  0  0  0  0  0  0  0  0  0
   19.6519   17.8288   24.2740 H   0  0  0  0  0  0  0  0  0  0  0  0
   18.2558   18.6006   22.7981 C   0  0  0  0  0  0  0  0  0  0  0  0
   17.7309   19.0896   23.6289 H   0  0  0  0  0  0  0  0  0  0  0  0
   17.5014   18.1317   22.1517 H   0  0  0  0  0  0  0  0  0  0  0  0
   19.1010   19.6076   21.9898 C   0  0  0  0  0  0  0  0  0  0  0  0
   19.2246   20.5392   22.5611 H   0  0  0  0  0  0  0  0  0  0  0  0
   20.4810   18.9495   21.7835 C   0  0  0  0  0  0  0  0  0  0  0  0
   20.8209   19.0121   20.7411 H   0  0  0  0  0  0  0  0  0  0  0  0
   21.2212   19.4671   22.4075 H   0  0  0  0  0  0  0  0  0  0  0  0
   18.4876   19.8657   20.7324 O   0  0  0  0  0  0  0  0  0  0  0  0
   17.6151   20.2707   20.9230 H   0  0  0  0  0  0  0  0  0  0  0  0
  1  2  1  0  0  0  0
  1  3  1  0  0  0  0
  1  4  1  0  0  0  0
  4  5  1  0  0  0  0
  4  6  1  0  0  0  0
  4  7  1  0  0  0  0
  7  8  1  0  0  0  0
  7  9  1  0  0  0  0
  7 10  1  0  0  0  0
 10 11  1  0  0  0  0
  1 12  1  0  0  0  0
 10 12  1  0  0  0  0
 12 13  1  0  0  0  0
 12 14  1  0  0  0  0
 10 15  1  0  0  0  0
 15 16  1  0  0  0  0
M  END
> <VConfSearch Rank>
817

> <Conf_Id>
59

> <Delta U+W>
0.000

> <U+W>
3.010

> <U>
5.843

> <W>
-2.833

> <W(PB)>
-4.568

> <W(SA)>
1.735

> <Valence>
13.789

> <Coulomb>
-8.574

> <VdW>
0.628

> <VdW6>
-3.284

> <VdW12>
3.912

> <Bond>
0.054

> <Angle>
4.034

> <Pdih>
9.702

> <Idih>
0.000

> <Tether>
0.000

$$$$
VeraChem MOL file


 16 16  0  0  0  0  0  0  0  0999 V2000     
   20.3411   17.5268   21.9892 C   0  0  0  0  0  0  0  0  0  0  0  0
   20.3701   16.4306   22.0555 H   0  0  0  0  0  0  0  0  0  0  0  0
   21.2214   17.8601   21.4221 H   0  0  0  0  0  0  0  0  0  0  0  0
   20.3335   18.1954   23.3707 C   0  0  0  0  0  0  0  0  0  0  0  0
   19.6935   17.6206   24.0545 H   0  0  0  0  0  0  0  0  0  0  0  0
   21.3377   18.2595   23.8113 H   0  0  0  0  0  0  0  0  0  0  0  0
   19.7104   19.5818   23.1242 C   0  0  0  0  0  0  0  0  0  0  0  0
   20.5015   20.3038   22.8836 H   0  0  0  0  0  0  0  0  0  0  0  0
   19.1808   19.9508   24.0127 H   0  0  0  0  0  0  0  0  0  0  0  0
   18.7766   19.4339   21.9053 C   0  0  0  0  0  0  0  0  0  0  0  0
   19.0155   20.2141   21.1678 H   0  0  0  0  0  0  0  0  0  0  0  0
   19.0585   18.0389   21.3086 C   0  0  0  0  0  0  0  0  0  0  0  0
   18.2295   17.3540   21.5336 H   0  0  0  0  0  0  0  0  0  0  0  0
   19.1732   18.0823   20.2178 H   0  0  0  0  0  0  0  0  0  0  0  0
   17.4173   19.5273   22.3145 O   0  0  0  0  0  0  0  0  0  0  0  0
   16.8722   19.4158   21.5070 H   0  0  0  0  0  0  0  0  0  0  0  0
  1  2  1  0  0  0  0
  1  3  1  0  0  0  0
  1  4  1  0  0  0  0
  4  5  1  0  0  0  0
  4  6  1  0  0  0  0
  4  7  1  0  0  0  0
  7  8  1  0  0  0  0
  7  9  1  0  0  0  0
  7 10  1  0  0  0  0
 10 11  1  0  0  0  0
  1 12  1  0  0  0  0
 10 12  1  0  0  0  0
 12 13  1  0  0  0  0
 12 14  1  0  0  0  0
 10 15  1  0  0  0  0
 15 16  1  0  0  0  0
M  END
> <VConfSearch Rank>
818

> <Conf_Id>
33

> <Delta U+W>
0.015

> <U+W>
3.025

> <U>
5.843

> <W>
-2.819

> <W(PB)>
-4.568

> <W(SA)>
1.750

> <Valence>
13.789

> <Coulomb>
-8.574

> <VdW>
0.628

> <VdW6>
-3.284

> <VdW12>
3.913

> <Bond>
0.054

> <Angle>
4.033

> <Pdih>
9.702

> <Idih>
0.000

> <Tether>
0.000

$$$$
VeraChem MOL file


 16 16  0  0  0  0  0  0  0  0999 V2000     
   20.2023   19.4011   21.5649 C   0  0  0  0  0  0  0  0  0  0  0  0
   21.2659   19.1445   21.6652 H   0  0  0  0  0  0  0  0  0  0  0  0
   20.1291   20.2581   20.8814 H   0  0  0  0  0  0  0  0  0  0  0  0
   19.6079   19.7286   22.9521 C   0  0  0  0  0  0  0  0  0  0  0  0
   20.3841   19.6317   23.7237 H   0  0  0  0  0  0  0  0  0  0  0  0
   19.2229   20.7568   22.9940 H   0  0  0  0  0  0  0  0  0  0  0  0
   18.4804   18.7036   23.1984 C   0  0  0  0  0  0  0  0  0  0  0  0
   17.5127   19.1537   22.9404 H   0  0  0  0  0  0  0  0  0  0  0  0
   18.4309   18.3833   24.2476 H   0  0  0  0  0  0  0  0  0  0  0  0
   18.7551   17.5324   22.2455 C   0  0  0  0  0  0  0  0  0  0  0  0
   17.8287   17.0067   21.9729 H   0  0  0  0  0  0  0  0  0  0  0  0
   19.4108   18.1911   21.0244 C   0  0  0  0  0  0  0  0  0  0  0  0
   20.0484   17.4921   20.4669 H   0  0  0  0  0  0  0  0  0  0  0  0
   18.6243   18.5419   20.3432 H   0  0  0  0  0  0  0  0  0  0  0  0
   19.6823   16.6438   22.8518 O   0  0  0  0  0  0  0  0  0  0  0  0
   20.4658   17.1943   23.0573 H   0  0  0  0  0  0  0  0  0  0  0  0
  1  2  1  0  0  0  0
  1  3  1  0  0  0  0
  1  4  1  0  0  0  0
  4  5  1  0  0  0  0
  4  6  1  0  0  0  0
  4  7  1  0  0  0  0
  7  8  1  0  0  0  0
  7  9  1  0  0  0  0
  7 10  1  0  0  0  0
 10 11  1  0  0  0  0
  1 12  1  0  0  0  0
 10 12  1  0  0  0  0
 12 13  1  0  0  0  0
 12 14  1  0  0  0  0
 10 15  1  0  0  0  0
 15 16  1  0  0  0  0
M  END
> <VConfSearch Rank>
819

> <Conf_Id>
20

> <Delta U+W>
-0.483

> <U+W>
2.527

> <U>
4.508

> <W>
-1.981

> <W(PB)>
-3.712

> <W(SA)>
1.732

> <Valence>
14.705

> <Coulomb>
-10.687

> <VdW>
0.490

> <VdW6>
-3.745

> <VdW12>
4.235

> <Bond>
0.068

> <Angle>
3.901

> <Pdih>
10.737

> <Idih>
0.000

> <Tether>
0.000

$$$$
VeraChem MOL file


 16 16  0  0  0  0  0  0  0  0999 V2000     
   18.2938   17.9541   21.5262 C   0  0  0  0  0  0  0  0  0  0  0  0
   17.7258   17.3385   22.2376 H   0  0  0  0  0  0  0  0  0  0  0  0
   17.7929   17.9023   20.5499 H   0  0  0  0  0  0  0  0  0  0  0  0
   19.7466   17.4627   21.4664 C   0  0  0  0  0  0  0  0  0  0  0  0
   19.8190   16.3671   21.4996 H   0  0  0  0  0  0  0  0  0  0  0  0
   20.2163   17.8101   20.5356 H   0  0  0  0  0  0  0  0  0  0  0  0
   20.4273   18.1317   22.6746 C   0  0  0  0  0  0  0  0  0  0  0  0
   21.4956   18.3025   22.4893 H   0  0  0  0  0  0  0  0  0  0  0  0
   20.3375   17.4759   23.5513 H   0  0  0  0  0  0  0  0  0  0  0  0
   19.6750   19.4569   22.9189 C   0  0  0  0  0  0  0  0  0  0  0  0
   20.2925   20.3061   22.5915 H   0  0  0  0  0  0  0  0  0  0  0  0
   18.3960   19.3954   22.0585 C   0  0  0  0  0  0  0  0  0  0  0  0
   17.4992   19.6821   22.6237 H   0  0  0  0  0  0  0  0  0  0  0  0
   18.4970   20.0927   21.2167 H   0  0  0  0  0  0  0  0  0  0  0  0
   19.3353   19.5822   24.2946 O   0  0  0  0  0  0  0  0  0  0  0  0
   20.1800   19.6051   24.7920 H   0  0  0  0  0  0  0  0  0  0  0  0
  1  2  1  0  0  0  0
  1  3  1  0  0  0  0
  1  4  1  0  0  0  0
  4  5  1  0  0  0  0
  4  6  1  0  0  0  0
  4  7  1  0  0  0  0
  7  8  1  0  0  0  0
  7  9  1  0  0  0  0
  7 10  1  0  0  0  0
 10 11  1  0  0  0  0
  1 12  1  0  0  0  0
 10 12  1  0  0  0  0
 12 13  1  0  0  0  0
 12 14  1  0  0  0  0
 10 15  1  0  0  0  0
 15 16  1  0  0  0  0
M  END
> <VConfSearch Rank>
820

> <Conf_Id>
59

> <Delta U+W>
0.000

> <U+W>
3.010

> <U>
5.843

> <W>
-2.833

> <W(PB)>
-4.568

> <W(SA)>
1.735

> <Valence>
13.789

> <Coulomb>
-8.574

> <VdW>
0.628

> <VdW6>
-3.284

> <VdW12>
3.912

> <Bond>
0.054

> <Angle>
4.034

> <Pdih>
9.702

> <Idih>
0.000

> <Tether>
0.000

$$$$
VeraChem MOL file


 16 16  0  0  0  0  0  0  0  0999 V2000     
   18.7455   18.6076   21.0429 C   0  0  0  0  0  0  0  0  0  0  0  0
   18.2864   17.8909   20.3484 H   0  0  0  0  0  0  0  0  0  0  0  0
   18.4794   19.6222   20.7151 H   0  0  0  0  0  0  0  0  0  0  0  0
   20.2728   18.4678   21.1012 C   0  0  0  0  0  0  0  0  0  0  0  0
   20.5466   17.4039   21.0723 H   0  0  0  0  0  0  0  0  0  0  0  0
   20.7728   18.9747   20.2647 H   0  0  0  0  0  0  0  0  0  0  0  0
   20.6623   19.0636   22.4667 C   0  0  0  0  0  0  0  0  0  0  0  0
   20.8593   20.1380   22.3572 H   0  0  0  0  0  0  0  0  0  0  0  0
   21.5721   18.5965   22.8669 H   0  0  0  0  0  0  0  0  0  0  0  0
   19.4462   18.8672   23.3952 C   0  0  0  0  0  0  0  0  0  0  0  0
   19.1894   19.8276   23.8656 H   0  0  0  0  0  0  0  0  0  0  0  0
   18.2852   18.3922   22.4963 C   0  0  0  0  0  0  0  0  0  0  0  0
   18.0890   17.3239   22.6606 H   0  0  0  0  0  0  0  0  0  0  0  0
   17.3591   18.9417   22.7093 H   0  0  0  0  0  0  0  0  0  0  0  0
   19.7363   17.8847   24.3824 O   0  0  0  0  0  0  0  0  0  0  0  0
   18.9304   17.7932   24.9335 H   0  0  0  0  0  0  0  0  0  0  0  0
  1  2  1  0  0  0  0
  1  3  1  0  0  0  0
  1  4  1  0  0  0  0
  4  5  1  0  0  0  0
  4  6  1  0  0  0  0
  4  7  1  0  0  0  0
  7  8  1  0  0  0  0
  7  9  1  0  0  0  0
  7 10  1  0  0  0  0
 10 11  1  0  0  0  0
  1 12  1  0  0  0  0
 10 12  1  0  0  0  0
 12 13  1  0  0  0  0
 12 14  1  0  0  0  0
 10 15  1  0  0  0  0
 15 16  1  0  0  0  0
M  END
> <VConfSearch Rank>
821

> <Conf_Id>
33

> <Delta U+W>
0.015

> <U+W>
3.025

> <U>
5.843

> <W>
-2.819

> <W(PB)>
-4.568

> <W(SA)>
1.750

> <Valence>
13.789

> <Coulomb>
-8.574

> <VdW>
0.628

> <VdW6>
-3.284

> <VdW12>
3.913

> <Bond>
0.054

> <Angle>
4.033

> <Pdih>
9.702

> <Idih>
0.000

> <Tether>
0.000

$$$$
VeraChem MOL file


 16 16  0  0  0  0  0  0  0  0999 V2000     
   20.2130   19.1201   23.1681 C   0  0  0  0  0  0  0  0  0  0  0  0
   21.0337   19.7159   22.7452 H   0  0  0  0  0  0  0  0  0  0  0  0
   20.3186   19.1361   24.2615 H   0  0  0  0  0  0  0  0  0  0  0  0
   20.2693   17.6801   22.6131 C   0  0  0  0  0  0  0  0  0  0  0  0
   21.1178   17.5785   21.9225 H   0  0  0  0  0  0  0  0  0  0  0  0
   20.4033   16.9426   23.4164 H   0  0  0  0  0  0  0  0  0  0  0  0
   18.9405   17.4479   21.8629 C   0  0  0  0  0  0  0  0  0  0  0  0
   18.2380   16.9150   22.5173 H   0  0  0  0  0  0  0  0  0  0  0  0
   19.0748   16.8446   20.9552 H   0  0  0  0  0  0  0  0  0  0  0  0
   18.3763   18.8417   21.5562 C   0  0  0  0  0  0  0  0  0  0  0  0
   17.2793   18.8270   21.4827 H   0  0  0  0  0  0  0  0  0  0  0  0
   18.8518   19.7037   22.7334 C   0  0  0  0  0  0  0  0  0  0  0  0
   18.9202   20.7674   22.4692 H   0  0  0  0  0  0  0  0  0  0  0  0
   18.1324   19.6098   23.5576 H   0  0  0  0  0  0  0  0  0  0  0  0
   18.9582   19.3280   20.3555 O   0  0  0  0  0  0  0  0  0  0  0  0
   19.9245   19.3051   20.5131 H   0  0  0  0  0  0  0  0  0  0  0  0
  1  2  1  0  0  0  0
  1  3  1  0  0  0  0
  1  4  1  0  0  0  0
  4  5  1  0  0  0  0
  4  6  1  0  0  0  0
  4  7  1  0  0  0  0
  7  8  1  0  0  0  0
  7  9  1  0  0  0  0
  7 10  1  0  0  0  0
 10 11  1  0  0  0  0
  1 12  1  0  0  0  0
 10 12  1  0  0  0  0
 12 13  1  0  0  0  0
 12 14  1  0  0  0  0
 10 15  1  0  0  0  0
 15 16  1  0  0  0  0
M  END
> <VConfSearch Rank>
822

> <Conf_Id>
20

> <Delta U+W>
-0.483

> <U+W>
2.527

> <U>
4.508

> <W>
-1.981

> <W(PB)>
-3.712

> <W(SA)>
1.732

> <Valence>
14.705

> <Coulomb>
-10.687

> <VdW>
0.490

> <VdW6>
-3.745

> <VdW12>
4.235

> <Bond>
0.068

> <Angle>
3.901

> <Pdih>
10.737

> <Idih>
0.000

> <Tether>
0.000

$$$$
VeraChem MOL file


 16 16  0  0  0  0  0  0  0  0999 V2000     
   19.8093   19.1234   23.5735 C   0  0  0  0  0  0  0  0  0  0  0  0
   19.2731   20.0786   23.6620 H   0  0  0  0  0  0  0  0  0  0  0  0
   20.4056   18.9779   24.4845 H   0  0  0  0  0  0  0  0  0  0  0  0
   20.6715   19.1332   22.3038 C   0  0  0  0  0  0  0  0  0  0  0  0
   21.1515   20.1063   22.1321 H   0  0  0  0  0  0  0  0  0  0  0  0
   21.4592   18.3714   22.3860 H   0  0  0  0  0  0  0  0  0  0  0  0
   19.6956   18.7539   21.1750 C   0  0  0  0  0  0  0  0  0  0  0  0
   20.2112   18.2359   20.3561 H   0  0  0  0  0  0  0  0  0  0  0  0
   19.2425   19.6666   20.7646 H   0  0  0  0  0  0  0  0  0  0  0  0
   18.6127   17.8618   21.8179 C   0  0  0  0  0  0  0  0  0  0  0  0
   18.7605   16.8144   21.5168 H   0  0  0  0  0  0  0  0  0  0  0  0
   18.7989   17.9842   23.3444 C   0  0  0  0  0  0  0  0  0  0  0  0
   17.8512   18.1734   23.8660 H   0  0  0  0  0  0  0  0  0  0  0  0
   19.2107   17.0431   23.7314 H   0  0  0  0  0  0  0  0  0  0  0  0
   17.3173   18.3153   21.4436 O   0  0  0  0  0  0  0  0  0  0  0  0
   17.2588   18.2260   20.4689 H   0  0  0  0  0  0  0  0  0  0  0  0
  1  2  1  0  0  0  0
  1  3  1  0  0  0  0
  1  4  1  0  0  0  0
  4  5  1  0  0  0  0
  4  6  1  0  0  0  0
  4  7  1  0  0  0  0
  7  8  1  0  0  0  0
  7  9  1  0  0  0  0
  7 10  1  0  0  0  0
 10 11  1  0  0  0  0
  1 12  1  0  0  0  0
 10 12  1  0  0  0  0
 12 13  1  0  0  0  0
 12 14  1  0  0  0  0
 10 15  1  0  0  0  0
 15 16  1  0  0  0  0
M  END
> <VConfSearch Rank>
823

> <Conf_Id>
59

> <Delta U+W>
0.000

> <U+W>
3.010

> <U>
5.843

> <W>
-2.833

> <W(PB)>
-4.568

> <W(SA)>
1.735

> <Valence>
13.789

> <Coulomb>
-8.574

> <VdW>
0.628

> <VdW6>
-3.284

> <VdW12>
3.912

> <Bond>
0.054

> <Angle>
4.034

> <Pdih>
9.702

> <Idih>
0.000

> <Tether>
0.000

$$$$
VeraChem MOL file


 16 16  0  0  0  0  0  0  0  0999 V2000     
   18.1464   19.0030   21.8415 C   0  0  0  0  0  0  0  0  0  0  0  0
   17.3096   19.6377   22.1633 H   0  0  0  0  0  0  0  0  0  0  0  0
   17.9433   18.6597   20.8175 H   0  0  0  0  0  0  0  0  0  0  0  0
   18.3479   17.7912   22.7617 C   0  0  0  0  0  0  0  0  0  0  0  0
   18.1940   18.0931   23.8071 H   0  0  0  0  0  0  0  0  0  0  0  0
   17.6529   16.9715   22.5343 H   0  0  0  0  0  0  0  0  0  0  0  0
   19.8195   17.3891   22.5526 C   0  0  0  0  0  0  0  0  0  0  0  0
   19.8896   16.6604   21.7345 H   0  0  0  0  0  0  0  0  0  0  0  0
   20.2430   16.9228   23.4521 H   0  0  0  0  0  0  0  0  0  0  0  0
   20.5731   18.6730   22.1484 C   0  0  0  0  0  0  0  0  0  0  0  0
   21.1480   18.4831   21.2303 H   0  0  0  0  0  0  0  0  0  0  0  0
   19.4948   19.7450   21.8843 C   0  0  0  0  0  0  0  0  0  0  0  0
   19.4797   20.4792   22.7013 H   0  0  0  0  0  0  0  0  0  0  0  0
   19.6847   20.2861   20.9483 H   0  0  0  0  0  0  0  0  0  0  0  0
   21.4320   19.0902   23.2030 O   0  0  0  0  0  0  0  0  0  0  0  0
   21.8739   19.9107   22.8980 H   0  0  0  0  0  0  0  0  0  0  0  0
  1  2  1  0  0  0  0
  1  3  1  0  0  0  0
  1  4  1  0  0  0  0
  4  5  1  0  0  0  0
  4  6  1  0  0  0  0
  4  7  1  0  0  0  0
  7  8  1  0  0  0  0
  7  9  1  0  0  0  0
  7 10  1  0  0  0  0
 10 11  1  0  0  0  0
  1 12  1  0  0  0  0
 10 12  1  0  0  0  0
 12 13  1  0  0  0  0
 12 14  1  0  0  0  0
 10 15  1  0  0  0  0
 15 16  1  0  0  0  0
M  END
> <VConfSearch Rank>
824

> <Conf_Id>
33

> <Delta U+W>
0.015

> <U+W>
3.025

> <U>
5.843

> <W>
-2.819

> <W(PB)>
-4.568

> <W(SA)>
1.750

> <Valence>
13.789

> <Coulomb>
-8.574

> <VdW>
0.628

> <VdW6>
-3.284

> <VdW12>
3.913

> <Bond>
0.054

> <Angle>
4.033

> <Pdih>
9.702

> <Idih>
0.000

> <Tether>
0.000

$$$$
VeraChem MOL file


 16 16  0  0  0  0  0  0  0  0999 V2000     
   18.2233   18.1286   21.7899 C   0  0  0  0  0  0  0  0  0  0  0  0
   18.3094   17.1541   21.2899 H   0  0  0  0  0  0  0  0  0  0  0  0
   17.1646   18.4213   21.7697 H   0  0  0  0  0  0  0  0  0  0  0  0
   19.1133   19.1673   21.0729 C   0  0  0  0  0  0  0  0  0  0  0  0
   19.6293   18.6957   20.2252 H   0  0  0  0  0  0  0  0  0  0  0  0
   18.5202   20.0038   20.6785 H   0  0  0  0  0  0  0  0  0  0  0  0
   20.1400   19.6582   22.1157 C   0  0  0  0  0  0  0  0  0  0  0  0
   19.7957   20.6054   22.5517 H   0  0  0  0  0  0  0  0  0  0  0  0
   21.1301   19.8339   21.6744 H   0  0  0  0  0  0  0  0  0  0  0  0
   20.1750   18.5875   23.2145 C   0  0  0  0  0  0  0  0  0  0  0  0
   20.4602   19.0147   24.1867 H   0  0  0  0  0  0  0  0  0  0  0  0
   18.7448   18.0319   23.2394 C   0  0  0  0  0  0  0  0  0  0  0  0
   18.7038   17.0059   23.6289 H   0  0  0  0  0  0  0  0  0  0  0  0
   18.1286   18.6625   23.8938 H   0  0  0  0  0  0  0  0  0  0  0  0
   21.0715   17.5545   22.8325 O   0  0  0  0  0  0  0  0  0  0  0  0
   20.7419   17.2386   21.9660 H   0  0  0  0  0  0  0  0  0  0  0  0
  1  2  1  0  0  0  0
  1  3  1  0  0  0  0
  1  4  1  0  0  0  0
  4  5  1  0  0  0  0
  4  6  1  0  0  0  0
  4  7  1  0  0  0  0
  7  8  1  0  0  0  0
  7  9  1  0  0  0  0
  7 10  1  0  0  0  0
 10 11  1  0  0  0  0
  1 12  1  0  0  0  0
 10 12  1  0  0  0  0
 12 13  1  0  0  0  0
 12 14  1  0  0  0  0
 10 15  1  0  0  0  0
 15 16  1  0  0  0  0
M  END
> <VConfSearch Rank>
825

> <Conf_Id>
20

> <Delta U+W>
-0.483

> <U+W>
2.527

> <U>
4.508

> <W>
-1.981

> <W(PB)>
-3.712

> <W(SA)>
1.732

> <Valence>
14.705

> <Coulomb>
-10.687

> <VdW>
0.490

> <VdW6>
-3.745

> <VdW12>
4.235

> <Bond>
0.068

> <Angle>
3.901

> <Pdih>
10.737

> <Idih>
0.000

> <Tether>
0.000

$$$$
VeraChem MOL file


 16 16  0  0  0  0  0  0  0  0999 V2000     
   18.4758   19.5830   22.8400 C   0  0  0  0  0  0  0  0  0  0  0  0
   17.8289   19.0622   23.5597 H   0  0  0  0  0  0  0  0  0  0  0  0
   18.2253   20.6523   22.8632 H   0  0  0  0  0  0  0  0  0  0  0  0
   18.2930   18.9684   21.4455 C   0  0  0  0  0  0  0  0  0  0  0  0
   17.2449   18.7164   21.2340 H   0  0  0  0  0  0  0  0  0  0  0  0
   18.6368   19.6785   20.6806 H   0  0  0  0  0  0  0  0  0  0  0  0
   19.2043   17.7274   21.4514 C   0  0  0  0  0  0  0  0  0  0  0  0
   19.5738   17.4963   20.4440 H   0  0  0  0  0  0  0  0  0  0  0  0
   18.6337   16.8594   21.8089 H   0  0  0  0  0  0  0  0  0  0  0  0
   20.3621   18.0426   22.4219 C   0  0  0  0  0  0  0  0  0  0  0  0
   21.2844   18.2394   21.8560 H   0  0  0  0  0  0  0  0  0  0  0  0
   19.9522   19.3176   23.1876 C   0  0  0  0  0  0  0  0  0  0  0  0
   20.1010   19.2190   24.2711 H   0  0  0  0  0  0  0  0  0  0  0  0
   20.5690   20.1571   22.8411 H   0  0  0  0  0  0  0  0  0  0  0  0
   20.5491   16.9637   23.3300 O   0  0  0  0  0  0  0  0  0  0  0  0
   20.7956   16.1823   22.7914 H   0  0  0  0  0  0  0  0  0  0  0  0
  1  2  1  0  0  0  0
  1  3  1  0  0  0  0
  1  4  1  0  0  0  0
  4  5  1  0  0  0  0
  4  6  1  0  0  0  0
  4  7  1  0  0  0  0
  7  8  1  0  0  0  0
  7  9  1  0  0  0  0
  7 10  1  0  0  0  0
 10 11  1  0  0  0  0
  1 12  1  0  0  0  0
 10 12  1  0  0  0  0
 12 13  1  0  0  0  0
 12 14  1  0  0  0  0
 10 15  1  0  0  0  0
 15 16  1  0  0  0  0
M  END
> <VConfSearch Rank>
826

> <Conf_Id>
59

> <Delta U+W>
0.000

> <U+W>
3.010

> <U>
5.843

> <W>
-2.833

> <W(PB)>
-4.568

> <W(SA)>
1.735

> <Valence>
13.789

> <Coulomb>
-8.574

> <VdW>
0.628

> <VdW6>
-3.284

> <VdW12>
3.912

> <Bond>
0.054

> <Angle>
4.034

> <Pdih>
9.702

> <Idih>
0.000

> <Tether>
0.000

$$$$
VeraChem MOL file


 16 16  0  0  0  0  0  0  0  0999 V2000     
   18.9898   18.8731   23.6261 C   0  0  0  0  0  0  0  0  0  0  0  0
   18.0730   18.7767   24.2236 H   0  0  0  0  0  0  0  0  0  0  0  0
   19.8106   19.1566   24.2996 H   0  0  0  0  0  0  0  0  0  0  0  0
   18.8528   19.9186   22.5108 C   0  0  0  0  0  0  0  0  0  0  0  0
   17.8516   19.8502   22.0629 H   0  0  0  0  0  0  0  0  0  0  0  0
   18.9965   20.9442   22.8771 H   0  0  0  0  0  0  0  0  0  0  0  0
   19.9122   19.5125   21.4698 C   0  0  0  0  0  0  0  0  0  0  0  0
   20.8617   20.0152   21.6951 H   0  0  0  0  0  0  0  0  0  0  0  0
   19.6132   19.8034   20.4539 H   0  0  0  0  0  0  0  0  0  0  0  0
   20.1045   17.9882   21.6096 C   0  0  0  0  0  0  0  0  0  0  0  0
   21.1762   17.7656   21.7166 H   0  0  0  0  0  0  0  0  0  0  0  0
   19.3479   17.5702   22.8881 C   0  0  0  0  0  0  0  0  0  0  0  0
   18.4247   17.0354   22.6264 H   0  0  0  0  0  0  0  0  0  0  0  0
   19.9550   16.9067   23.5174 H   0  0  0  0  0  0  0  0  0  0  0  0
   19.5620   17.3194   20.4773 O   0  0  0  0  0  0  0  0  0  0  0  0
   19.7009   16.3599   20.6241 H   0  0  0  0  0  0  0  0  0  0  0  0
  1  2  1  0  0  0  0
  1  3  1  0  0  0  0
  1  4  1  0  0  0  0
  4  5  1  0  0  0  0
  4  6  1  0  0  0  0
  4  7  1  0  0  0  0
  7  8  1  0  0  0  0
  7  9  1  0  0  0  0
  7 10  1  0  0  0  0
 10 11  1  0  0  0  0
  1 12  1  0  0  0  0
 10 12  1  0  0  0  0
 12 13  1  0  0  0  0
 12 14  1  0  0  0  0
 10 15  1  0  0  0  0
 15 16  1  0  0  0  0
M  END
> <VConfSearch Rank>
827

> <Conf_Id>
33

> <Delta U+W>
0.015

> <U+W>
3.025

> <U>
5.843

> <W>
-2.819

> <W(PB)>
-4.568

> <W(SA)>
1.750

> <Valence>
13.789

> <Coulomb>
-8.574

> <VdW>
0.628

> <VdW6>
-3.284

> <VdW12>
3.913

> <Bond>
0.054

> <Angle>
4.033

> <Pdih>
9.702

> <Idih>
0.000

> <Tether>
0.000

$$$$
VeraChem MOL file


 16 16  0  0  0  0  0  0  0  0999 V2000     
   20.1128   19.6485   22.6672 C   0  0  0  0  0  0  0  0  0  0  0  0
   19.8138   20.0577   23.6421 H   0  0  0  0  0  0  0  0  0  0  0  0
   20.9747   20.2298   22.3119 H   0  0  0  0  0  0  0  0  0  0  0  0
   18.9285   19.7272   21.6791 C   0  0  0  0  0  0  0  0  0  0  0  0
   18.0568   20.1755   22.1755 H   0  0  0  0  0  0  0  0  0  0  0  0
   19.1713   20.3489   20.8064 H   0  0  0  0  0  0  0  0  0  0  0  0
   18.6139   18.2764   21.2565 C   0  0  0  0  0  0  0  0  0  0  0  0
   19.0954   18.0623   20.2932 H   0  0  0  0  0  0  0  0  0  0  0  0
   17.5363   18.1019   21.1375 H   0  0  0  0  0  0  0  0  0  0  0  0
   19.2330   17.3761   22.3341 C   0  0  0  0  0  0  0  0  0  0  0  0
   19.5038   16.3897   21.9306 H   0  0  0  0  0  0  0  0  0  0  0  0
   20.4701   18.1532   22.8037 C   0  0  0  0  0  0  0  0  0  0  0  0
   20.7644   17.8873   23.8277 H   0  0  0  0  0  0  0  0  0  0  0  0
   21.3131   17.9155   22.1414 H   0  0  0  0  0  0  0  0  0  0  0  0
   18.3224   17.2481   23.4163 O   0  0  0  0  0  0  0  0  0  0  0  0
   18.1413   18.1657   23.7068 H   0  0  0  0  0  0  0  0  0  0  0  0
  1  2  1  0  0  0  0
  1  3  1  0  0  0  0
  1  4  1  0  0  0  0
  4  5  1  0  0  0  0
  4  6  1  0  0  0  0
  4  7  1  0  0  0  0
  7  8  1  0  0  0  0
  7  9  1  0  0  0  0
  7 10  1  0  0  0  0
 10 11  1  0  0  0  0
  1 12  1  0  0  0  0
 10 12  1  0  0  0  0
 12 13  1  0  0  0  0
 12 14  1  0  0  0  0
 10 15  1  0  0  0  0
 15 16  1  0  0  0  0
M  END
> <VConfSearch Rank>
828

> <Conf_Id>
20

> <Delta U+W>
-0.483

> <U+W>
2.527

> <U>
4.508

> <W>
-1.981

> <W(PB)>
-3.712

> <W(SA)>
1.732

> <Valence>
14.705

> <Coulomb>
-10.687

> <VdW>
0.490

> <VdW6>
-3.745

> <VdW12>
4.235

> <Bond>
0.068

> <Angle>
3.901

> <Pdih>
10.737

> <Idih>
0.000

> <Tether>
0.000

$$$$
VeraChem MOL file


 16 16  0  0  0  0  0  0  0  0999 V2000     
   18.1655   18.9232   21.5691 C   0  0  0  0  0  0  0  0  0  0  0  0
   17.3393   18.4138   22.0845 H   0  0  0  0  0  0  0  0  0  0  0  0
   17.7423   19.5308   20.7577 H   0  0  0  0  0  0  0  0  0  0  0  0
   19.1724   17.8832   21.0587 C   0  0  0  0  0  0  0  0  0  0  0  0
   18.6803   16.9864   20.6583 H   0  0  0  0  0  0  0  0  0  0  0  0
   19.7862   18.3236   20.2607 H   0  0  0  0  0  0  0  0  0  0  0  0
   20.0539   17.5711   22.2818 C   0  0  0  0  0  0  0  0  0  0  0  0
   21.0681   17.2782   21.9811 H   0  0  0  0  0  0  0  0  0  0  0  0
   19.6138   16.7356   22.8431 H   0  0  0  0  0  0  0  0  0  0  0  0
   20.0656   18.8491   23.1469 C   0  0  0  0  0  0  0  0  0  0  0  0
   21.0387   19.3540   23.0592 H   0  0  0  0  0  0  0  0  0  0  0  0
   18.9624   19.7670   22.5810 C   0  0  0  0  0  0  0  0  0  0  0  0
   18.3136   20.1732   23.3684 H   0  0  0  0  0  0  0  0  0  0  0  0
   19.4319   20.6146   22.0651 H   0  0  0  0  0  0  0  0  0  0  0  0
   19.7866   18.5259   24.5040 O   0  0  0  0  0  0  0  0  0  0  0  0
   20.5089   17.9358   24.8068 H   0  0  0  0  0  0  0  0  0  0  0  0
  1  2  1  0  0  0  0
  1  3  1  0  0  0  0
  1  4  1  0  0  0  0
  4  5  1  0  0  0  0
  4  6  1  0  0  0  0
  4  7  1  0  0  0  0
  7  8  1  0  0  0  0
  7  9  1  0  0  0  0
  7 10  1  0  0  0  0
 10 11  1  0  0  0  0
  1 12  1  0  0  0  0
 10 12  1  0  0  0  0
 12 13  1  0  0  0  0
 12 14  1  0  0  0  0
 10 15  1  0  0  0  0
 15 16  1  0  0  0  0
M  END
> <VConfSearch Rank>
829

> <Conf_Id>
59

> <Delta U+W>
0.000

> <U+W>
3.010

> <U>
5.843

> <W>
-2.833

> <W(PB)>
-4.568

> <W(SA)>
1.735

> <Valence>
13.789

> <Coulomb>
-8.574

> <VdW>
0.628

> <VdW6>
-3.284

> <VdW12>
3.912

> <Bond>
0.054

> <Angle>
4.034

> <Pdih>
9.702

> <Idih>
0.000

> <Tether>
0.000

$$$$
VeraChem MOL file


 16 16  0  0  0  0  0  0  0  0999 V2000     
   18.4569   18.0172   21.4462 C   0  0  0  0  0  0  0  0  0  0  0  0
   17.5648   18.3107   20.8762 H   0  0  0  0  0  0  0  0  0  0  0  0
   18.6997   16.9760   21.1922 H   0  0  0  0  0  0  0  0  0  0  0  0
   18.2494   18.1440   22.9616 C   0  0  0  0  0  0  0  0  0  0  0  0
   17.6732   19.0540   23.1796 H   0  0  0  0  0  0  0  0  0  0  0  0
   17.7101   17.2855   23.3846 H   0  0  0  0  0  0  0  0  0  0  0  0
   19.6717   18.2847   23.5347 C   0  0  0  0  0  0  0  0  0  0  0  0
   20.0749   17.2907   23.7682 H   0  0  0  0  0  0  0  0  0  0  0  0
   19.6777   18.8736   24.4616 H   0  0  0  0  0  0  0  0  0  0  0  0
   20.5307   18.9283   22.4266 C   0  0  0  0  0  0  0  0  0  0  0  0
   21.4364   18.3239   22.2719 H   0  0  0  0  0  0  0  0  0  0  0  0
   19.6665   18.9219   21.1480 C   0  0  0  0  0  0  0  0  0  0  0  0
   19.3137   19.9373   20.9219 H   0  0  0  0  0  0  0  0  0  0  0  0
   20.2331   18.5607   20.2800 H   0  0  0  0  0  0  0  0  0  0  0  0
   20.8708   20.2630   22.7825 O   0  0  0  0  0  0  0  0  0  0  0  0
   21.4032   20.6244   22.0426 H   0  0  0  0  0  0  0  0  0  0  0  0
  1  2  1  0  0  0  0
  1  3  1  0  0  0  0
  1  4  1  0  0  0  0
  4  5  1  0  0  0  0
  4  6  1  0  0  0  0
  4  7  1  0  0  0  0
  7  8  1  0  0  0  0
  7  9  1  0  0  0  0
  7 10  1  0  0  0  0
 10 11  1  0  0  0  0
  1 12  1  0  0  0  0
 10 12  1  0  0  0  0
 12 13  1  0  0  0  0
 12 14  1  0  0  0  0
 10 15  1  0  0  0  0
 15 16  1  0  0  0  0
M  END
> <VConfSearch Rank>
830

> <Conf_Id>
33

> <Delta U+W>
0.015

> <U+W>
3.025

> <U>
5.843

> <W>
-2.819

> <W(PB)>
-4.568

> <W(SA)>
1.750

> <Valence>
13.789

> <Coulomb>
-8.574

> <VdW>
0.628

> <VdW6>
-3.284

> <VdW12>
3.913

> <Bond>
0.054

> <Angle>
4.033

> <Pdih>
9.702

> <Idih>
0.000

> <Tether>
0.000

$$$$
VeraChem MOL file


 16 16  0  0  0  0  0  0  0  0999 V2000     
   18.5202   18.1228   21.3575 C   0  0  0  0  0  0  0  0  0  0  0  0
   18.7403   18.4119   20.3206 H   0  0  0  0  0  0  0  0  0  0  0  0
   17.6313   17.4773   21.3421 H   0  0  0  0  0  0  0  0  0  0  0  0
   18.2904   19.3850   22.2172 C   0  0  0  0  0  0  0  0  0  0  0  0
   18.3983   20.2849   21.5961 H   0  0  0  0  0  0  0  0  0  0  0  0
   17.2817   19.3993   22.6523 H   0  0  0  0  0  0  0  0  0  0  0  0
   19.3701   19.3658   23.3201 C   0  0  0  0  0  0  0  0  0  0  0  0
   18.9448   18.9491   24.2426 H   0  0  0  0  0  0  0  0  0  0  0  0
   19.7476   20.3710   23.5506 H   0  0  0  0  0  0  0  0  0  0  0  0
   20.4772   18.4308   22.8151 C   0  0  0  0  0  0  0  0  0  0  0  0
   21.0231   17.9635   23.6473 H   0  0  0  0  0  0  0  0  0  0  0  0
   19.7293   17.3876   21.9740 C   0  0  0  0  0  0  0  0  0  0  0  0
   20.3723   16.9306   21.2100 H   0  0  0  0  0  0  0  0  0  0  0  0
   19.3734   16.5858   22.6344 H   0  0  0  0  0  0  0  0  0  0  0  0
   21.3603   19.1616   21.9767 O   0  0  0  0  0  0  0  0  0  0  0  0
   20.7916   19.5370   21.2733 H   0  0  0  0  0  0  0  0  0  0  0  0
  1  2  1  0  0  0  0
  1  3  1  0  0  0  0
  1  4  1  0  0  0  0
  4  5  1  0  0  0  0
  4  6  1  0  0  0  0
  4  7  1  0  0  0  0
  7  8  1  0  0  0  0
  7  9  1  0  0  0  0
  7 10  1  0  0  0  0
 10 11  1  0  0  0  0
  1 12  1  0  0  0  0
 10 12  1  0  0  0  0
 12 13  1  0  0  0  0
 12 14  1  0  0  0  0
 10 15  1  0  0  0  0
 15 16  1  0  0  0  0
M  END
> <VConfSearch Rank>
831

> <Conf_Id>
20

> <Delta U+W>
-0.483

> <U+W>
2.527

> <U>
4.508

> <W>
-1.981

> <W(PB)>
-3.712

> <W(SA)>
1.732

> <Valence>
14.705

> <Coulomb>
-10.687

> <VdW>
0.490

> <VdW6>
-3.745

> <VdW12>
4.235

> <Bond>
0.068

> <Angle>
3.901

> <Pdih>
10.737

> <Idih>
0.000

> <Tether>
0.000

$$$$
VeraChem MOL file


 16 16  0  0  0  0  0  0  0  0999 V2000     
   18.3606   19.3755   21.6479 C   0  0  0  0  0  0  0  0  0  0  0  0
   17.6465   18.6608   21.2156 H   0  0  0  0  0  0  0  0  0  0  0  0
   17.9950   20.3917   21.4466 H   0  0  0  0  0  0  0  0  0  0  0  0
   19.7564   19.1275   21.0599 C   0  0  0  0  0  0  0  0  0  0  0  0
   19.7223   18.8911   19.9876 H   0  0  0  0  0  0  0  0  0  0  0  0
   20.3788   20.0231   21.1946 H   0  0  0  0  0  0  0  0  0  0  0  0
   20.3245   17.9675   21.8978 C   0  0  0  0  0  0  0  0  0  0  0  0
   21.4193   18.0163   21.9603 H   0  0  0  0  0  0  0  0  0  0  0  0
   20.0558   17.0127   21.4257 H   0  0  0  0  0  0  0  0  0  0  0  0
   19.6713   18.0773   23.2917 C   0  0  0  0  0  0  0  0  0  0  0  0
   20.4034   18.4521   24.0219 H   0  0  0  0  0  0  0  0  0  0  0  0
   18.5216   19.0965   23.1537 C   0  0  0  0  0  0  0  0  0  0  0  0
   17.5863   18.7328   23.5998 H   0  0  0  0  0  0  0  0  0  0  0  0
   18.8005   20.0230   23.6723 H   0  0  0  0  0  0  0  0  0  0  0  0
   19.1600   16.8125   23.6953 O   0  0  0  0  0  0  0  0  0  0  0  0
   19.9274   16.2052   23.7558 H   0  0  0  0  0  0  0  0  0  0  0  0
  1  2  1  0  0  0  0
  1  3  1  0  0  0  0
  1  4  1  0  0  0  0
  4  5  1  0  0  0  0
  4  6  1  0  0  0  0
  4  7  1  0  0  0  0
  7  8  1  0  0  0  0
  7  9  1  0  0  0  0
  7 10  1  0  0  0  0
 10 11  1  0  0  0  0
  1 12  1  0  0  0  0
 10 12  1  0  0  0  0
 12 13  1  0  0  0  0
 12 14  1  0  0  0  0
 10 15  1  0  0  0  0
 15 16  1  0  0  0  0
M  END
> <VConfSearch Rank>
832

> <Conf_Id>
59

> <Delta U+W>
0.000

> <U+W>
3.010

> <U>
5.843

> <W>
-2.833

> <W(PB)>
-4.568

> <W(SA)>
1.735

> <Valence>
13.789

> <Coulomb>
-8.574

> <VdW>
0.628

> <VdW6>
-3.284

> <VdW12>
3.912

> <Bond>
0.054

> <Angle>
4.034

> <Pdih>
9.702

> <Idih>
0.000

> <Tether>
0.000

$$$$
VeraChem MOL file


 16 16  0  0  0  0  0  0  0  0999 V2000     
   19.9506   19.8097   21.6776 C   0  0  0  0  0  0  0  0  0  0  0  0
   19.5916   20.6324   21.0443 H   0  0  0  0  0  0  0  0  0  0  0  0
   20.9680   20.0538   22.0138 H   0  0  0  0  0  0  0  0  0  0  0  0
   19.9600   18.4648   20.9383 C   0  0  0  0  0  0  0  0  0  0  0  0
   19.0645   18.3858   20.3061 H   0  0  0  0  0  0  0  0  0  0  0  0
   20.8447   18.3438   20.2985 H   0  0  0  0  0  0  0  0  0  0  0  0
   19.8956   17.4094   22.0577 C   0  0  0  0  0  0  0  0  0  0  0  0
   20.9133   17.1387   22.3678 H   0  0  0  0  0  0  0  0  0  0  0  0
   19.3945   16.4923   21.7204 H   0  0  0  0  0  0  0  0  0  0  0  0
   19.1673   18.0718   23.2453 C   0  0  0  0  0  0  0  0  0  0  0  0
   19.7697   17.9459   24.1568 H   0  0  0  0  0  0  0  0  0  0  0  0
   19.0423   19.5701   22.8975 C   0  0  0  0  0  0  0  0  0  0  0  0
   18.0048   19.8139   22.6313 H   0  0  0  0  0  0  0  0  0  0  0  0
   19.3315   20.2063   23.7440 H   0  0  0  0  0  0  0  0  0  0  0  0
   17.8766   17.4970   23.4115 O   0  0  0  0  0  0  0  0  0  0  0  0
   17.4576   17.9604   24.1673 H   0  0  0  0  0  0  0  0  0  0  0  0
  1  2  1  0  0  0  0
  1  3  1  0  0  0  0
  1  4  1  0  0  0  0
  4  5  1  0  0  0  0
  4  6  1  0  0  0  0
  4  7  1  0  0  0  0
  7  8  1  0  0  0  0
  7  9  1  0  0  0  0
  7 10  1  0  0  0  0
 10 11  1  0  0  0  0
  1 12  1  0  0  0  0
 10 12  1  0  0  0  0
 12 13  1  0  0  0  0
 12 14  1  0  0  0  0
 10 15  1  0  0  0  0
 15 16  1  0  0  0  0
M  END
> <VConfSearch Rank>
833

> <Conf_Id>
33

> <Delta U+W>
0.015

> <U+W>
3.025

> <U>
5.843

> <W>
-2.819

> <W(PB)>
-4.568

> <W(SA)>
1.750

> <Valence>
13.789

> <Coulomb>
-8.574

> <VdW>
0.628

> <VdW6>
-3.284

> <VdW12>
3.913

> <Bond>
0.054

> <Angle>
4.033

> <Pdih>
9.702

> <Idih>
0.000

> <Tether>
0.000

$$$$
VeraChem MOL file


 16 16  0  0  0  0  0  0  0  0999 V2000     
   18.6606   17.5810   22.7169 C   0  0  0  0  0  0  0  0  0  0  0  0
   17.6028   17.5994   22.4202 H   0  0  0  0  0  0  0  0  0  0  0  0
   18.8234   16.6734   23.3143 H   0  0  0  0  0  0  0  0  0  0  0  0
   19.0039   18.8566   23.5169 C   0  0  0  0  0  0  0  0  0  0  0  0
   18.1121   19.4918   23.6082 H   0  0  0  0  0  0  0  0  0  0  0  0
   19.3474   18.6163   24.5324 H   0  0  0  0  0  0  0  0  0  0  0  0
   20.1023   19.5911   22.7190 C   0  0  0  0  0  0  0  0  0  0  0  0
   21.0866   19.3478   23.1404 H   0  0  0  0  0  0  0  0  0  0  0  0
   19.9838   20.6823   22.7552 H   0  0  0  0  0  0  0  0  0  0  0  0
   20.0246   19.0451   21.2869 C   0  0  0  0  0  0  0  0  0  0  0  0
   20.9980   19.1019   20.7789 H   0  0  0  0  0  0  0  0  0  0  0  0
   19.5652   17.5919   21.4664 C   0  0  0  0  0  0  0  0  0  0  0  0
   19.0502   17.2056   20.5767 H   0  0  0  0  0  0  0  0  0  0  0  0
   20.4448   16.9593   21.6443 H   0  0  0  0  0  0  0  0  0  0  0  0
   19.0340   19.7631   20.5658 O   0  0  0  0  0  0  0  0  0  0  0  0
   18.2120   19.6571   21.0875 H   0  0  0  0  0  0  0  0  0  0  0  0
  1  2  1  0  0  0  0
  1  3  1  0  0  0  0
  1  4  1  0  0  0  0
  4  5  1  0  0  0  0
  4  6  1  0  0  0  0
  4  7  1  0  0  0  0
  7  8  1  0  0  0  0
  7  9  1  0  0  0  0
  7 10  1  0  0  0  0
 10 11  1  0  0  0  0
  1 12  1  0  0  0  0
 10 12  1  0  0  0  0
 12 13  1  0  0  0  0
 12 14  1  0  0  0  0
 10 15  1  0  0  0  0
 15 16  1  0  0  0  0
M  END
> <VConfSearch Rank>
834

> <Conf_Id>
20

> <Delta U+W>
-0.483

> <U+W>
2.527

> <U>
4.508

> <W>
-1.981

> <W(PB)>
-3.712

> <W(SA)>
1.732

> <Valence>
14.705

> <Coulomb>
-10.687

> <VdW>
0.490

> <VdW6>
-3.745

> <VdW12>
4.235

> <Bond>
0.068

> <Angle>
3.901

> <Pdih>
10.737

> <Idih>
0.000

> <Tether>
0.000

$$$$
VeraChem MOL file


 16 16  0  0  0  0  0  0  0  0999 V2000     
   19.4821   19.1484   23.6352 C   0  0  0  0  0  0  0  0  0  0  0  0
   18.4561   19.4155   23.9242 H   0  0  0  0  0  0  0  0  0  0  0  0
   20.1492   19.3867   24.4748 H   0  0  0  0  0  0  0  0  0  0  0  0
   19.8660   19.8962   22.3510 C   0  0  0  0  0  0  0  0  0  0  0  0
   19.4918   20.9290   22.3410 H   0  0  0  0  0  0  0  0  0  0  0  0
   20.9602   19.9262   22.2537 H   0  0  0  0  0  0  0  0  0  0  0  0
   19.2654   19.0445   21.2176 C   0  0  0  0  0  0  0  0  0  0  0  0
   19.8512   19.1356   20.2939 H   0  0  0  0  0  0  0  0  0  0  0  0
   18.2446   19.3902   21.0053 H   0  0  0  0  0  0  0  0  0  0  0  0
   19.2411   17.5900   21.7328 C   0  0  0  0  0  0  0  0  0  0  0  0
   20.0262   17.0015   21.2359 H   0  0  0  0  0  0  0  0  0  0  0  0
   19.5370   17.6598   23.2452 C   0  0  0  0  0  0  0  0  0  0  0  0
   18.8312   17.0608   23.8361 H   0  0  0  0  0  0  0  0  0  0  0  0
   20.5451   17.2670   23.4313 H   0  0  0  0  0  0  0  0  0  0  0  0
   17.9608   17.0114   21.5095 O   0  0  0  0  0  0  0  0  0  0  0  0
   17.8216   17.0025   20.5389 H   0  0  0  0  0  0  0  0  0  0  0  0
  1  2  1  0  0  0  0
  1  3  1  0  0  0  0
  1  4  1  0  0  0  0
  4  5  1  0  0  0  0
  4  6  1  0  0  0  0
  4  7  1  0  0  0  0
  7  8  1  0  0  0  0
  7  9  1  0  0  0  0
  7 10  1  0  0  0  0
 10 11  1  0  0  0  0
  1 12  1  0  0  0  0
 10 12  1  0  0  0  0
 12 13  1  0  0  0  0
 12 14  1  0  0  0  0
 10 15  1  0  0  0  0
 15 16  1  0  0  0  0
M  END
> <VConfSearch Rank>
835

> <Conf_Id>
59

> <Delta U+W>
0.000

> <U+W>
3.010

> <U>
5.843

> <W>
-2.833

> <W(PB)>
-4.568

> <W(SA)>
1.735

> <Valence>
13.789

> <Coulomb>
-8.574

> <VdW>
0.628

> <VdW6>
-3.284

> <VdW12>
3.912

> <Bond>
0.054

> <Angle>
4.034

> <Pdih>
9.702

> <Idih>
0.000

> <Tether>
0.000

$$$$
VeraChem MOL file


 16 16  0  0  0  0  0  0  0  0999 V2000     
   20.1428   17.3886   22.5857 C   0  0  0  0  0  0  0  0  0  0  0  0
   21.0943   17.0529   23.0200 H   0  0  0  0  0  0  0  0  0  0  0  0
   19.5033   16.5074   22.4367 H   0  0  0  0  0  0  0  0  0  0  0  0
   20.3359   18.1182   21.2493 C   0  0  0  0  0  0  0  0  0  0  0  0
   21.2269   18.7591   21.3050 H   0  0  0  0  0  0  0  0  0  0  0  0
   20.4631   17.4245   20.4071 H   0  0  0  0  0  0  0  0  0  0  0  0
   19.0785   18.9949   21.1038 C   0  0  0  0  0  0  0  0  0  0  0  0
   18.2967   18.4332   20.5761 H   0  0  0  0  0  0  0  0  0  0  0  0
   19.2847   19.9046   20.5242 H   0  0  0  0  0  0  0  0  0  0  0  0
   18.5935   19.3093   22.5341 C   0  0  0  0  0  0  0  0  0  0  0  0
   17.5252   19.0620   22.6181 H   0  0  0  0  0  0  0  0  0  0  0  0
   19.4193   18.4120   23.4800 C   0  0  0  0  0  0  0  0  0  0  0  0
   20.1637   19.0123   24.0206 H   0  0  0  0  0  0  0  0  0  0  0  0
   18.7823   17.9156   24.2234 H   0  0  0  0  0  0  0  0  0  0  0  0
   18.8183   20.6808   22.8379 O   0  0  0  0  0  0  0  0  0  0  0  0
   18.5041   20.8206   23.7562 H   0  0  0  0  0  0  0  0  0  0  0  0
  1  2  1  0  0  0  0
  1  3  1  0  0  0  0
  1  4  1  0  0  0  0
  4  5  1  0  0  0  0
  4  6  1  0  0  0  0
  4  7  1  0  0  0  0
  7  8  1  0  0  0  0
  7  9  1  0  0  0  0
  7 10  1  0  0  0  0
 10 11  1  0  0  0  0
  1 12  1  0  0  0  0
 10 12  1  0  0  0  0
 12 13  1  0  0  0  0
 12 14  1  0  0  0  0
 10 15  1  0  0  0  0
 15 16  1  0  0  0  0
M  END
> <VConfSearch Rank>
836

> <Conf_Id>
33

> <Delta U+W>
0.015

> <U+W>
3.025

> <U>
5.843

> <W>
-2.819

> <W(PB)>
-4.568

> <W(SA)>
1.750

> <Valence>
13.789

> <Coulomb>
-8.574

> <VdW>
0.628

> <VdW6>
-3.284

> <VdW12>
3.913

> <Bond>
0.054

> <Angle>
4.033

> <Pdih>
9.702

> <Idih>
0.000

> <Tether>
0.000

$$$$
VeraChem MOL file


 16 16  0  0  0  0  0  0  0  0999 V2000     
   19.5232   19.2959   21.1206 C   0  0  0  0  0  0  0  0  0  0  0  0
   19.4780   18.6794   20.2122 H   0  0  0  0  0  0  0  0  0  0  0  0
   19.6634   20.3398   20.8084 H   0  0  0  0  0  0  0  0  0  0  0  0
   20.6781   18.8138   22.0256 C   0  0  0  0  0  0  0  0  0  0  0  0
   21.1925   17.9648   21.5546 H   0  0  0  0  0  0  0  0  0  0  0  0
   21.4219   19.6060   22.1875 H   0  0  0  0  0  0  0  0  0  0  0  0
   20.0357   18.3752   23.3587 C   0  0  0  0  0  0  0  0  0  0  0  0
   20.1177   19.1893   24.0909 H   0  0  0  0  0  0  0  0  0  0  0  0
   20.5266   17.4907   23.7862 H   0  0  0  0  0  0  0  0  0  0  0  0
   18.5523   18.1263   23.0542 C   0  0  0  0  0  0  0  0  0  0  0  0
   17.9243   18.2880   23.9422 H   0  0  0  0  0  0  0  0  0  0  0  0
   18.2264   19.1315   21.9414 C   0  0  0  0  0  0  0  0  0  0  0  0
   17.3800   18.8063   21.3218 H   0  0  0  0  0  0  0  0  0  0  0  0
   17.9565   20.0932   22.3974 H   0  0  0  0  0  0  0  0  0  0  0  0
   18.3925   16.8068   22.5541 O   0  0  0  0  0  0  0  0  0  0  0  0
   18.9826   16.7567   21.7741 H   0  0  0  0  0  0  0  0  0  0  0  0
  1  2  1  0  0  0  0
  1  3  1  0  0  0  0
  1  4  1  0  0  0  0
  4  5  1  0  0  0  0
  4  6  1  0  0  0  0
  4  7  1  0  0  0  0
  7  8  1  0  0  0  0
  7  9  1  0  0  0  0
  7 10  1  0  0  0  0
 10 11  1  0  0  0  0
  1 12  1  0  0  0  0
 10 12  1  0  0  0  0
 12 13  1  0  0  0  0
 12 14  1  0  0  0  0
 10 15  1  0  0  0  0
 15 16  1  0  0  0  0
M  END
> <VConfSearch Rank>
837

> <Conf_Id>
20

> <Delta U+W>
-0.483

> <U+W>
2.527

> <U>
4.508

> <W>
-1.981

> <W(PB)>
-3.712

> <W(SA)>
1.732

> <Valence>
14.705

> <Coulomb>
-10.687

> <VdW>
0.490

> <VdW6>
-3.745

> <VdW12>
4.235

> <Bond>
0.068

> <Angle>
3.901

> <Pdih>
10.737

> <Idih>
0.000

> <Tether>
0.000

$$$$
VeraChem MOL file


 16 16  0  0  0  0  0  0  0  0999 V2000     
   20.3985   19.3204   22.9805 C   0  0  0  0  0  0  0  0  0  0  0  0
   20.9476   18.5867   23.5871 H   0  0  0  0  0  0  0  0  0  0  0  0
   20.8939   20.2950   23.0874 H   0  0  0  0  0  0  0  0  0  0  0  0
   18.9295   19.3578   23.4236 C   0  0  0  0  0  0  0  0  0  0  0  0
   18.8198   19.2819   24.5140 H   0  0  0  0  0  0  0  0  0  0  0  0
   18.4687   20.3004   23.0968 H   0  0  0  0  0  0  0  0  0  0  0  0
   18.2764   18.1752   22.6852 C   0  0  0  0  0  0  0  0  0  0  0  0
   17.2139   18.3646   22.4852 H   0  0  0  0  0  0  0  0  0  0  0  0
   18.3468   17.2738   23.3092 H   0  0  0  0  0  0  0  0  0  0  0  0
   19.0744   17.9843   21.3782 C   0  0  0  0  0  0  0  0  0  0  0  0
   18.4852   18.3432   20.5217 H   0  0  0  0  0  0  0  0  0  0  0  0
   20.3475   18.8444   21.5170 C   0  0  0  0  0  0  0  0  0  0  0  0
   21.2556   18.2927   21.2394 H   0  0  0  0  0  0  0  0  0  0  0  0
   20.2675   19.7125   20.8498 H   0  0  0  0  0  0  0  0  0  0  0  0
   19.4231   16.6152   21.2113 O   0  0  0  0  0  0  0  0  0  0  0  0
   18.5813   16.1173   21.1400 H   0  0  0  0  0  0  0  0  0  0  0  0
  1  2  1  0  0  0  0
  1  3  1  0  0  0  0
  1  4  1  0  0  0  0
  4  5  1  0  0  0  0
  4  6  1  0  0  0  0
  4  7  1  0  0  0  0
  7  8  1  0  0  0  0
  7  9  1  0  0  0  0
  7 10  1  0  0  0  0
 10 11  1  0  0  0  0
  1 12  1  0  0  0  0
 10 12  1  0  0  0  0
 12 13  1  0  0  0  0
 12 14  1  0  0  0  0
 10 15  1  0  0  0  0
 15 16  1  0  0  0  0
M  END
> <VConfSearch Rank>
838

> <Conf_Id>
59

> <Delta U+W>
0.000

> <U+W>
3.010

> <U>
5.843

> <W>
-2.833

> <W(PB)>
-4.568

> <W(SA)>
1.735

> <Valence>
13.789

> <Coulomb>
-8.574

> <VdW>
0.628

> <VdW6>
-3.284

> <VdW12>
3.912

> <Bond>
0.054

> <Angle>
4.034

> <Pdih>
9.702

> <Idih>
0.000

> <Tether>
0.000

$$$$
VeraChem MOL file


 16 16  0  0  0  0  0  0  0  0999 V2000     
   19.0424   18.4561   23.6593 C   0  0  0  0  0  0  0  0  0  0  0  0
   18.1516   18.6068   24.2841 H   0  0  0  0  0  0  0  0  0  0  0  0
   19.7979   17.9298   24.2593 H   0  0  0  0  0  0  0  0  0  0  0  0
   19.6238   19.7791   23.1423 C   0  0  0  0  0  0  0  0  0  0  0  0
   18.8051   20.4569   22.8628 H   0  0  0  0  0  0  0  0  0  0  0  0
   20.2482   20.2843   23.8916 H   0  0  0  0  0  0  0  0  0  0  0  0
   20.4190   19.3849   21.8840 C   0  0  0  0  0  0  0  0  0  0  0  0
   21.4542   19.1476   22.1617 H   0  0  0  0  0  0  0  0  0  0  0  0
   20.4490   20.2029   21.1519 H   0  0  0  0  0  0  0  0  0  0  0  0
   19.7468   18.1169   21.3182 C   0  0  0  0  0  0  0  0  0  0  0  0
   20.5102   17.3417   21.1579 H   0  0  0  0  0  0  0  0  0  0  0  0
   18.7344   17.6489   22.3849 C   0  0  0  0  0  0  0  0  0  0  0  0
   17.7085   17.8651   22.0569 H   0  0  0  0  0  0  0  0  0  0  0  0
   18.8098   16.5689   22.5662 H   0  0  0  0  0  0  0  0  0  0  0  0
   19.0736   18.4198   20.1020 O   0  0  0  0  0  0  0  0  0  0  0  0
   18.6581   17.5861   19.7954 H   0  0  0  0  0  0  0  0  0  0  0  0
  1  2  1  0  0  0  0
  1  3  1  0  0  0  0
  1  4  1  0  0  0  0
  4  5  1  0  0  0  0
  4  6  1  0  0  0  0
  4  7  1  0  0  0  0
  7  8  1  0  0  0  0
  7  9  1  0  0  0  0
  7 10  1  0  0  0  0
 10 11  1  0  0  0  0
  1 12  1  0  0  0  0
 10 12  1  0  0  0  0
 12 13  1  0  0  0  0
 12 14  1  0  0  0  0
 10 15  1  0  0  0  0
 15 16  1  0  0  0  0
M  END
> <VConfSearch Rank>
839

> <Conf_Id>
33

> <Delta U+W>
0.015

> <U+W>
3.025

> <U>
5.843

> <W>
-2.819

> <W(PB)>
-4.568

> <W(SA)>
1.750

> <Valence>
13.789

> <Coulomb>
-8.574

> <VdW>
0.628

> <VdW6>
-3.284

> <VdW12>
3.913

> <Bond>
0.054

> <Angle>
4.033

> <Pdih>
9.702

> <Idih>
0.000

> <Tether>
0.000

$$$$
VeraChem MOL file


 16 16  0  0  0  0  0  0  0  0999 V2000     
   19.1742   17.3371   21.9080 C   0  0  0  0  0  0  0  0  0  0  0  0
   18.5998   16.7533   22.6404 H   0  0  0  0  0  0  0  0  0  0  0  0
   19.4051   16.6757   21.0617 H   0  0  0  0  0  0  0  0  0  0  0  0
   20.4587   17.8870   22.5659 C   0  0  0  0  0  0  0  0  0  0  0  0
   20.5064   17.5684   23.6163 H   0  0  0  0  0  0  0  0  0  0  0  0
   21.3615   17.5139   22.0631 H   0  0  0  0  0  0  0  0  0  0  0  0
   20.3709   19.4255   22.4789 C   0  0  0  0  0  0  0  0  0  0  0  0
   20.9475   19.7775   21.6133 H   0  0  0  0  0  0  0  0  0  0  0  0
   20.7770   19.9169   23.3731 H   0  0  0  0  0  0  0  0  0  0  0  0
   18.8885   19.7549   22.2573 C   0  0  0  0  0  0  0  0  0  0  0  0
   18.7613   20.7024   21.7142 H   0  0  0  0  0  0  0  0  0  0  0  0
   18.3590   18.5641   21.4471 C   0  0  0  0  0  0  0  0  0  0  0  0
   17.2784   18.4191   21.5784 H   0  0  0  0  0  0  0  0  0  0  0  0
   18.5443   18.7480   20.3805 H   0  0  0  0  0  0  0  0  0  0  0  0
   18.2262   19.7977   23.5129 O   0  0  0  0  0  0  0  0  0  0  0  0
   18.3929   18.9222   23.9189 H   0  0  0  0  0  0  0  0  0  0  0  0
  1  2  1  0  0  0  0
  1  3  1  0  0  0  0
  1  4  1  0  0  0  0
  4  5  1  0  0  0  0
  4  6  1  0  0  0  0
  4  7  1  0  0  0  0
  7  8  1  0  0  0  0
  7  9  1  0  0  0  0
  7 10  1  0  0  0  0
 10 11  1  0  0  0  0
  1 12  1  0  0  0  0
 10 12  1  0  0  0  0
 12 13  1  0  0  0  0
 12 14  1  0  0  0  0
 10 15  1  0  0  0  0
 15 16  1  0  0  0  0
M  END
> <VConfSearch Rank>
840

> <Conf_Id>
20

> <Delta U+W>
-0.483

> <U+W>
2.527

> <U>
4.508

> <W>
-1.981

> <W(PB)>
-3.712

> <W(SA)>
1.732

> <Valence>
14.705

> <Coulomb>
-10.687

> <VdW>
0.490

> <VdW6>
-3.745

> <VdW12>
4.235

> <Bond>
0.068

> <Angle>
3.901

> <Pdih>
10.737

> <Idih>
0.000

> <Tether>
0.000

$$$$
VeraChem MOL file


 16 16  0  0  0  0  0  0  0  0999 V2000     
   20.3894   19.5027   22.7018 C   0  0  0  0  0  0  0  0  0  0  0  0
   19.9223   20.1312   23.4728 H   0  0  0  0  0  0  0  0  0  0  0  0
   21.4371   19.8142   22.5922 H   0  0  0  0  0  0  0  0  0  0  0  0
   19.6010   19.6259   21.3906 C   0  0  0  0  0  0  0  0  0  0  0  0
   19.2641   20.6541   21.2005 H   0  0  0  0  0  0  0  0  0  0  0  0
   20.2324   19.3100   20.5486 H   0  0  0  0  0  0  0  0  0  0  0  0
   18.4256   18.6455   21.5569 C   0  0  0  0  0  0  0  0  0  0  0  0
   18.0965   18.2460   20.5889 H   0  0  0  0  0  0  0  0  0  0  0  0
   17.5751   19.1717   22.0114 H   0  0  0  0  0  0  0  0  0  0  0  0
   18.9233   17.5246   22.4936 C   0  0  0  0  0  0  0  0  0  0  0  0
   19.1042   16.6053   21.9176 H   0  0  0  0  0  0  0  0  0  0  0  0
   20.2552   18.0198   23.0942 C   0  0  0  0  0  0  0  0  0  0  0  0
   20.2972   17.8844   24.1832 H   0  0  0  0  0  0  0  0  0  0  0  0
   21.0814   17.4461   22.6546 H   0  0  0  0  0  0  0  0  0  0  0  0
   17.9749   17.2921   23.5282 O   0  0  0  0  0  0  0  0  0  0  0  0
   17.1500   16.9920   23.0912 H   0  0  0  0  0  0  0  0  0  0  0  0
  1  2  1  0  0  0  0
  1  3  1  0  0  0  0
  1  4  1  0  0  0  0
  4  5  1  0  0  0  0
  4  6  1  0  0  0  0
  4  7  1  0  0  0  0
  7  8  1  0  0  0  0
  7  9  1  0  0  0  0
  7 10  1  0  0  0  0
 10 11  1  0  0  0  0
  1 12  1  0  0  0  0
 10 12  1  0  0  0  0
 12 13  1  0  0  0  0
 12 14  1  0  0  0  0
 10 15  1  0  0  0  0
 15 16  1  0  0  0  0
M  END
> <VConfSearch Rank>
841

> <Conf_Id>
59

> <Delta U+W>
0.000

> <U+W>
3.010

> <U>
5.843

> <W>
-2.833

> <W(PB)>
-4.568

> <W(SA)>
1.735

> <Valence>
13.789

> <Coulomb>
-8.574

> <VdW>
0.628

> <VdW6>
-3.284

> <VdW12>
3.912

> <Bond>
0.054

> <Angle>
4.034

> <Pdih>
9.702

> <Idih>
0.000

> <Tether>
0.000

$$$$
VeraChem MOL file


 16 16  0  0  0  0  0  0  0  0999 V2000     
   18.8903   17.9405   21.1550 C   0  0  0  0  0  0  0  0  0  0  0  0
   19.2235   17.3961   20.2609 H   0  0  0  0  0  0  0  0  0  0  0  0
   17.7995   17.8342   21.2353 H   0  0  0  0  0  0  0  0  0  0  0  0
   19.2617   19.4288   21.1048 C   0  0  0  0  0  0  0  0  0  0  0  0
   20.2666   19.5433   20.6749 H   0  0  0  0  0  0  0  0  0  0  0  0
   18.5591   20.0164   20.4985 H   0  0  0  0  0  0  0  0  0  0  0  0
   19.2783   19.8717   22.5795 C   0  0  0  0  0  0  0  0  0  0  0  0
   18.2807   20.2273   22.8685 H   0  0  0  0  0  0  0  0  0  0  0  0
   19.9871   20.6936   22.7469 H   0  0  0  0  0  0  0  0  0  0  0  0
   19.6264   18.6197   23.4108 C   0  0  0  0  0  0  0  0  0  0  0  0
   18.8827   18.4971   24.2117 H   0  0  0  0  0  0  0  0  0  0  0  0
   19.5602   17.4215   22.4405 C   0  0  0  0  0  0  0  0  0  0  0  0
   20.5726   17.0663   22.2046 H   0  0  0  0  0  0  0  0  0  0  0  0
   19.0008   16.5821   22.8735 H   0  0  0  0  0  0  0  0  0  0  0  0
   20.9358   18.7399   23.9538 O   0  0  0  0  0  0  0  0  0  0  0  0
   21.1073   17.9174   24.4593 H   0  0  0  0  0  0  0  0  0  0  0  0
  1  2  1  0  0  0  0
  1  3  1  0  0  0  0
  1  4  1  0  0  0  0
  4  5  1  0  0  0  0
  4  6  1  0  0  0  0
  4  7  1  0  0  0  0
  7  8  1  0  0  0  0
  7  9  1  0  0  0  0
  7 10  1  0  0  0  0
 10 11  1  0  0  0  0
  1 12  1  0  0  0  0
 10 12  1  0  0  0  0
 12 13  1  0  0  0  0
 12 14  1  0  0  0  0
 10 15  1  0  0  0  0
 15 16  1  0  0  0  0
M  END
> <VConfSearch Rank>
842

> <Conf_Id>
33

> <Delta U+W>
0.015

> <U+W>
3.025

> <U>
5.843

> <W>
-2.819

> <W(PB)>
-4.568

> <W(SA)>
1.750

> <Valence>
13.789

> <Coulomb>
-8.574

> <VdW>
0.628

> <VdW6>
-3.284

> <VdW12>
3.913

> <Bond>
0.054

> <Angle>
4.033

> <Pdih>
9.702

> <Idih>
0.000

> <Tether>
0.000

$$$$
VeraChem MOL file


 16 16  0  0  0  0  0  0  0  0999 V2000     
   19.6080   19.6638   21.4693 C   0  0  0  0  0  0  0  0  0  0  0  0
   20.1039   20.5055   21.9721 H   0  0  0  0  0  0  0  0  0  0  0  0
   19.4576   19.9453   20.4181 H   0  0  0  0  0  0  0  0  0  0  0  0
   18.2683   19.3488   22.1701 C   0  0  0  0  0  0  0  0  0  0  0  0
   18.1153   20.0388   23.0114 H   0  0  0  0  0  0  0  0  0  0  0  0
   17.4172   19.4646   21.4851 H   0  0  0  0  0  0  0  0  0  0  0  0
   18.3737   17.8970   22.6835 C   0  0  0  0  0  0  0  0  0  0  0  0
   17.8873   17.2192   21.9696 H   0  0  0  0  0  0  0  0  0  0  0  0
   17.8844   17.7634   23.6576 H   0  0  0  0  0  0  0  0  0  0  0  0
   19.8727   17.5726   22.7367 C   0  0  0  0  0  0  0  0  0  0  0  0
   20.0586   16.4965   22.6088 H   0  0  0  0  0  0  0  0  0  0  0  0
   20.4721   18.3901   21.5845 C   0  0  0  0  0  0  0  0  0  0  0  0
   21.5336   18.6204   21.7462 H   0  0  0  0  0  0  0  0  0  0  0  0
   20.3940   17.8086   20.6564 H   0  0  0  0  0  0  0  0  0  0  0  0
   20.4082   18.0366   23.9674 O   0  0  0  0  0  0  0  0  0  0  0  0
   20.1970   18.9926   23.9930 H   0  0  0  0  0  0  0  0  0  0  0  0
  1  2  1  0  0  0  0
  1  3  1  0  0  0  0
  1  4  1  0  0  0  0
  4  5  1  0  0  0  0
  4  6  1  0  0  0  0
  4  7  1  0  0  0  0
  7  8  1  0  0  0  0
  7  9  1  0  0  0  0
  7 10  1  0  0  0  0
 10 11  1  0  0  0  0
  1 12  1  0  0  0  0
 10 12  1  0  0  0  0
 12 13  1  0  0  0  0
 12 14  1  0  0  0  0
 10 15  1  0  0  0  0
 15 16  1  0  0  0  0
M  END
> <VConfSearch Rank>
843

> <Conf_Id>
20

> <Delta U+W>
-0.483

> <U+W>
2.527

> <U>
4.508

> <W>
-1.981

> <W(PB)>
-3.712

> <W(SA)>
1.732

> <Valence>
14.705

> <Coulomb>
-10.687

> <VdW>
0.490

> <VdW6>
-3.745

> <VdW12>
4.235

> <Bond>
0.068

> <Angle>
3.901

> <Pdih>
10.737

> <Idih>
0.000

> <Tether>
0.000

$$$$
VeraChem MOL file


 16 16  0  0  0  0  0  0  0  0999 V2000     
   19.5513   19.6679   23.2284 C   0  0  0  0  0  0  0  0  0  0  0  0
   19.2855   20.5620   22.6474 H   0  0  0  0  0  0  0  0  0  0  0  0
   19.7915   19.9822   24.2532 H   0  0  0  0  0  0  0  0  0  0  0  0
   20.7202   18.9416   22.5488 C   0  0  0  0  0  0  0  0  0  0  0  0
   21.4689   19.6384   22.1480 H   0  0  0  0  0  0  0  0  0  0  0  0
   21.2177   18.2826   23.2740 H   0  0  0  0  0  0  0  0  0  0  0  0
   20.0569   18.0962   21.4462 C   0  0  0  0  0  0  0  0  0  0  0  0
   20.6351   17.1873   21.2351 H   0  0  0  0  0  0  0  0  0  0  0  0
   20.0033   18.6847   20.5201 H   0  0  0  0  0  0  0  0  0  0  0  0
   18.6371   17.7613   21.9498 C   0  0  0  0  0  0  0  0  0  0  0  0
   18.5847   16.7054   22.2530 H   0  0  0  0  0  0  0  0  0  0  0  0
   18.3900   18.6578   23.1806 C   0  0  0  0  0  0  0  0  0  0  0  0
   17.4159   19.1633   23.1392 H   0  0  0  0  0  0  0  0  0  0  0  0
   18.4050   18.0360   24.0852 H   0  0  0  0  0  0  0  0  0  0  0  0
   17.6780   18.0425   20.9374 O   0  0  0  0  0  0  0  0  0  0  0  0
   17.8883   17.4562   20.1801 H   0  0  0  0  0  0  0  0  0  0  0  0
  1  2  1  0  0  0  0
  1  3  1  0  0  0  0
  1  4  1  0  0  0  0
  4  5  1  0  0  0  0
  4  6  1  0  0  0  0
  4  7  1  0  0  0  0
  7  8  1  0  0  0  0
  7  9  1  0  0  0  0
  7 10  1  0  0  0  0
 10 11  1  0  0  0  0
  1 12  1  0  0  0  0
 10 12  1  0  0  0  0
 12 13  1  0  0  0  0
 12 14  1  0  0  0  0
 10 15  1  0  0  0  0
 15 16  1  0  0  0  0
M  END
> <VConfSearch Rank>
844

> <Conf_Id>
59

> <Delta U+W>
0.000

> <U+W>
3.010

> <U>
5.843

> <W>
-2.833

> <W(PB)>
-4.568

> <W(SA)>
1.735

> <Valence>
13.789

> <Coulomb>
-8.574

> <VdW>
0.628

> <VdW6>
-3.284

> <VdW12>
3.912

> <Bond>
0.054

> <Angle>
4.034

> <Pdih>
9.702

> <Idih>
0.000

> <Tether>
0.000

$$$$
VeraChem MOL file


 16 16  0  0  0  0  0  0  0  0999 V2000     
   20.1431   18.2984   23.5108 C   0  0  0  0  0  0  0  0  0  0  0  0
   20.7821   17.5070   23.9257 H   0  0  0  0  0  0  0  0  0  0  0  0
   20.1304   19.1372   24.2206 H   0  0  0  0  0  0  0  0  0  0  0  0
   18.7084   17.8166   23.2553 C   0  0  0  0  0  0  0  0  0  0  0  0
   18.7293   16.7934   22.8548 H   0  0  0  0  0  0  0  0  0  0  0  0
   18.0971   17.8164   24.1680 H   0  0  0  0  0  0  0  0  0  0  0  0
   18.1639   18.7788   22.1836 C   0  0  0  0  0  0  0  0  0  0  0  0
   17.6875   19.6402   22.6696 H   0  0  0  0  0  0  0  0  0  0  0  0
   17.4094   18.2935   21.5502 H   0  0  0  0  0  0  0  0  0  0  0  0
   19.3816   19.2686   21.3729 C   0  0  0  0  0  0  0  0  0  0  0  0
   19.3687   20.3673   21.3261 H   0  0  0  0  0  0  0  0  0  0  0  0
   20.6338   18.7870   22.1357 C   0  0  0  0  0  0  0  0  0  0  0  0
   21.1074   17.9522   21.6013 H   0  0  0  0  0  0  0  0  0  0  0  0
   21.3775   19.5880   22.2366 H   0  0  0  0  0  0  0  0  0  0  0  0
   19.3577   18.7087   20.0653 O   0  0  0  0  0  0  0  0  0  0  0  0
   20.1548   19.0425   19.6018 H   0  0  0  0  0  0  0  0  0  0  0  0
  1  2  1  0  0  0  0
  1  3  1  0  0  0  0
  1  4  1  0  0  0  0
  4  5  1  0  0  0  0
  4  6  1  0  0  0  0
  4  7  1  0  0  0  0
  7  8  1  0  0  0  0
  7  9  1  0  0  0  0
  7 10  1  0  0  0  0
 10 11  1  0  0  0  0
  1 12  1  0  0  0  0
 10 12  1  0  0  0  0
 12 13  1  0  0  0  0
 12 14  1  0  0  0  0
 10 15  1  0  0  0  0
 15 16  1  0  0  0  0
M  END
> <VConfSearch Rank>
845

> <Conf_Id>
33

> <Delta U+W>
0.015

> <U+W>
3.025

> <U>
5.843

> <W>
-2.819

> <W(PB)>
-4.568

> <W(SA)>
1.750

> <Valence>
13.789

> <Coulomb>
-8.574

> <VdW>
0.628

> <VdW6>
-3.284

> <VdW12>
3.913

> <Bond>
0.054

> <Angle>
4.033

> <Pdih>
9.702

> <Idih>
0.000

> <Tether>
0.000

$$$$
VeraChem MOL file


 16 16  0  0  0  0  0  0  0  0999 V2000     
   19.3956   17.6601   21.3190 C   0  0  0  0  0  0  0  0  0  0  0  0
   20.2617   17.7069   20.6445 H   0  0  0  0  0  0  0  0  0  0  0  0
   18.7845   16.7984   21.0175 H   0  0  0  0  0  0  0  0  0  0  0  0
   18.5961   18.9790   21.2396 C   0  0  0  0  0  0  0  0  0  0  0  0
   19.0745   19.6636   20.5257 H   0  0  0  0  0  0  0  0  0  0  0  0
   17.5663   18.8070   20.8974 H   0  0  0  0  0  0  0  0  0  0  0  0
   18.6150   19.5884   22.6575 C   0  0  0  0  0  0  0  0  0  0  0  0
   17.6838   19.3318   23.1796 H   0  0  0  0  0  0  0  0  0  0  0  0
   18.6969   20.6834   22.6389 H   0  0  0  0  0  0  0  0  0  0  0  0
   19.7933   18.9298   23.3876 C   0  0  0  0  0  0  0  0  0  0  0  0
   19.6277   18.8951   24.4740 H   0  0  0  0  0  0  0  0  0  0  0  0
   19.8667   17.5215   22.7823 C   0  0  0  0  0  0  0  0  0  0  0  0
   20.8734   17.0889   22.8564 H   0  0  0  0  0  0  0  0  0  0  0  0
   19.1788   16.8624   23.3283 H   0  0  0  0  0  0  0  0  0  0  0  0
   20.9872   19.6342   23.0793 O   0  0  0  0  0  0  0  0  0  0  0  0
   21.0503   19.6134   22.1022 H   0  0  0  0  0  0  0  0  0  0  0  0
  1  2  1  0  0  0  0
  1  3  1  0  0  0  0
  1  4  1  0  0  0  0
  4  5  1  0  0  0  0
  4  6  1  0  0  0  0
  4  7  1  0  0  0  0
  7  8  1  0  0  0  0
  7  9  1  0  0  0  0
  7 10  1  0  0  0  0
 10 11  1  0  0  0  0
  1 12  1  0  0  0  0
 10 12  1  0  0  0  0
 12 13  1  0  0  0  0
 12 14  1  0  0  0  0
 10 15  1  0  0  0  0
 15 16  1  0  0  0  0
M  END
> <VConfSearch Rank>
846

> <Conf_Id>
20

> <Delta U+W>
-0.483

> <U+W>
2.527

> <U>
4.508

> <W>
-1.981

> <W(PB)>
-3.712

> <W(SA)>
1.732

> <Valence>
14.705

> <Coulomb>
-10.687

> <VdW>
0.490

> <VdW6>
-3.745

> <VdW12>
4.235

> <Bond>
0.068

> <Angle>
3.901

> <Pdih>
10.737

> <Idih>
0.000

> <Tether>
0.000

$$$$
VeraChem MOL file


 16 16  0  0  0  0  0  0  0  0999 V2000     
   19.1227   19.9115   22.7788 C   0  0  0  0  0  0  0  0  0  0  0  0
   19.2115   19.8569   23.8727 H   0  0  0  0  0  0  0  0  0  0  0  0
   18.9531   20.9601   22.4992 H   0  0  0  0  0  0  0  0  0  0  0  0
   17.9900   18.9888   22.3081 C   0  0  0  0  0  0  0  0  0  0  0  0
   17.1218   19.0164   22.9804 H   0  0  0  0  0  0  0  0  0  0  0  0
   17.6581   19.2928   21.3056 H   0  0  0  0  0  0  0  0  0  0  0  0
   18.6357   17.5927   22.2418 C   0  0  0  0  0  0  0  0  0  0  0  0
   18.1579   16.9655   21.4781 H   0  0  0  0  0  0  0  0  0  0  0  0
   18.5177   17.0915   23.2122 H   0  0  0  0  0  0  0  0  0  0  0  0
   20.1312   17.8192   21.9354 C   0  0  0  0  0  0  0  0  0  0  0  0
   20.3476   17.5441   20.8928 H   0  0  0  0  0  0  0  0  0  0  0  0
   20.3906   19.3276   22.1287 C   0  0  0  0  0  0  0  0  0  0  0  0
   21.2835   19.5223   22.7377 H   0  0  0  0  0  0  0  0  0  0  0  0
   20.5487   19.7923   21.1468 H   0  0  0  0  0  0  0  0  0  0  0  0
   20.9361   17.0640   22.8330 O   0  0  0  0  0  0  0  0  0  0  0  0
   20.7234   16.1199   22.6751 H   0  0  0  0  0  0  0  0  0  0  0  0
  1  2  1  0  0  0  0
  1  3  1  0  0  0  0
  1  4  1  0  0  0  0
  4  5  1  0  0  0  0
  4  6  1  0  0  0  0
  4  7  1  0  0  0  0
  7  8  1  0  0  0  0
  7  9  1  0  0  0  0
  7 10  1  0  0  0  0
 10 11  1  0  0  0  0
  1 12  1  0  0  0  0
 10 12  1  0  0  0  0
 12 13  1  0  0  0  0
 12 14  1  0  0  0  0
 10 15  1  0  0  0  0
 15 16  1  0  0  0  0
M  END
> <VConfSearch Rank>
847

> <Conf_Id>
59

> <Delta U+W>
0.000

> <U+W>
3.010

> <U>
5.843

> <W>
-2.833

> <W(PB)>
-4.568

> <W(SA)>
1.735

> <Valence>
13.789

> <Coulomb>
-8.574

> <VdW>
0.628

> <VdW6>
-3.284

> <VdW12>
3.912

> <Bond>
0.054

> <Angle>
4.034

> <Pdih>
9.702

> <Idih>
0.000

> <Tether>
0.000

$$$$
VeraChem MOL file


 16 16  0  0  0  0  0  0  0  0999 V2000     
   19.2268   20.0246   22.1698 C   0  0  0  0  0  0  0  0  0  0  0  0
   19.7403   20.9204   21.7947 H   0  0  0  0  0  0  0  0  0  0  0  0
   18.1945   20.3019   22.4248 H   0  0  0  0  0  0  0  0  0  0  0  0
   19.9202   19.4269   23.4017 C   0  0  0  0  0  0  0  0  0  0  0  0
   21.0102   19.4817   23.2736 H   0  0  0  0  0  0  0  0  0  0  0  0
   19.6557   19.9535   24.3288 H   0  0  0  0  0  0  0  0  0  0  0  0
   19.4761   17.9525   23.4162 C   0  0  0  0  0  0  0  0  0  0  0  0
   18.5540   17.8512   24.0032 H   0  0  0  0  0  0  0  0  0  0  0  0
   20.2363   17.3058   23.8745 H   0  0  0  0  0  0  0  0  0  0  0  0
   19.1849   17.5665   21.9513 C   0  0  0  0  0  0  0  0  0  0  0  0
   18.1861   17.1108   21.8874 H   0  0  0  0  0  0  0  0  0  0  0  0
   19.2195   18.8793   21.1408 C   0  0  0  0  0  0  0  0  0  0  0  0
   20.1349   18.9290   20.5355 H   0  0  0  0  0  0  0  0  0  0  0  0
   18.3612   18.9564   20.4609 H   0  0  0  0  0  0  0  0  0  0  0  0
   20.1795   16.6684   21.4737 O   0  0  0  0  0  0  0  0  0  0  0  0
   19.9524   16.4671   20.5413 H   0  0  0  0  0  0  0  0  0  0  0  0
  1  2  1  0  0  0  0
  1  3  1  0  0  0  0
  1  4  1  0  0  0  0
  4  5  1  0  0  0  0
  4  6  1  0  0  0  0
  4  7  1  0  0  0  0
  7  8  1  0  0  0  0
  7  9  1  0  0  0  0
  7 10  1  0  0  0  0
 10 11  1  0  0  0  0
  1 12  1  0  0  0  0
 10 12  1  0  0  0  0
 12 13  1  0  0  0  0
 12 14  1  0  0  0  0
 10 15  1  0  0  0  0
 15 16  1  0  0  0  0
M  END
> <VConfSearch Rank>
848

> <Conf_Id>
33

> <Delta U+W>
0.015

> <U+W>
3.025

> <U>
5.843

> <W>
-2.819

> <W(PB)>
-4.568

> <W(SA)>
1.750

> <Valence>
13.789

> <Coulomb>
-8.574

> <VdW>
0.628

> <VdW6>
-3.284

> <VdW12>
3.913

> <Bond>
0.054

> <Angle>
4.033

> <Pdih>
9.702

> <Idih>
0.000

> <Tether>
0.000

$$$$
VeraChem MOL file


 16 16  0  0  0  0  0  0  0  0999 V2000     
   20.5617   18.0633   21.9664 C   0  0  0  0  0  0  0  0  0  0  0  0
   21.3427   18.2484   22.7168 H   0  0  0  0  0  0  0  0  0  0  0  0
   21.0016   17.4425   21.1738 H   0  0  0  0  0  0  0  0  0  0  0  0
   20.0379   19.4059   21.4113 C   0  0  0  0  0  0  0  0  0  0  0  0
   20.5660   20.2407   21.8923 H   0  0  0  0  0  0  0  0  0  0  0  0
   20.2027   19.4870   20.3282 H   0  0  0  0  0  0  0  0  0  0  0  0
   18.5328   19.4617   21.7491 C   0  0  0  0  0  0  0  0  0  0  0  0
   17.9487   19.1442   20.8753 H   0  0  0  0  0  0  0  0  0  0  0  0
   18.2044   20.4738   22.0207 H   0  0  0  0  0  0  0  0  0  0  0  0
   18.3148   18.4550   22.8867 C   0  0  0  0  0  0  0  0  0  0  0  0
   17.2912   18.0535   22.8811 H   0  0  0  0  0  0  0  0  0  0  0  0
   19.3533   17.3577   22.6176 C   0  0  0  0  0  0  0  0  0  0  0  0
   19.6309   16.8147   23.5309 H   0  0  0  0  0  0  0  0  0  0  0  0
   18.9292   16.6306   21.9125 H   0  0  0  0  0  0  0  0  0  0  0  0
   18.6067   19.0810   24.1275 O   0  0  0  0  0  0  0  0  0  0  0  0
   19.5272   19.4038   24.0398 H   0  0  0  0  0  0  0  0  0  0  0  0
  1  2  1  0  0  0  0
  1  3  1  0  0  0  0
  1  4  1  0  0  0  0
  4  5  1  0  0  0  0
  4  6  1  0  0  0  0
  4  7  1  0  0  0  0
  7  8  1  0  0  0  0
  7  9  1  0  0  0  0
  7 10  1  0  0  0  0
 10 11  1  0  0  0  0
  1 12  1  0  0  0  0
 10 12  1  0  0  0  0
 12 13  1  0  0  0  0
 12 14  1  0  0  0  0
 10 15  1  0  0  0  0
 15 16  1  0  0  0  0
M  END
> <VConfSearch Rank>
849

> <Conf_Id>
20

> <Delta U+W>
-0.483

> <U+W>
2.527

> <U>
4.508

> <W>
-1.981

> <W(PB)>
-3.712

> <W(SA)>
1.732

> <Valence>
14.705

> <Coulomb>
-10.687

> <VdW>
0.490

> <VdW6>
-3.745

> <VdW12>
4.235

> <Bond>
0.068

> <Angle>
3.901

> <Pdih>
10.737

> <Idih>
0.000

> <Tether>
0.000

$$$$
VeraChem MOL file


 16 16  0  0  0  0  0  0  0  0999 V2000     
   19.8153   17.6263   21.2924 C   0  0  0  0  0  0  0  0  0  0  0  0
   18.9016   17.1464   20.9149 H   0  0  0  0  0  0  0  0  0  0  0  0
   20.6673   17.2508   20.7095 H   0  0  0  0  0  0  0  0  0  0  0  0
   19.9621   17.3434   22.7938 C   0  0  0  0  0  0  0  0  0  0  0  0
   19.6745   16.3160   23.0557 H   0  0  0  0  0  0  0  0  0  0  0  0
   21.0069   17.4960   23.0983 H   0  0  0  0  0  0  0  0  0  0  0  0
   19.0634   18.3941   23.4713 C   0  0  0  0  0  0  0  0  0  0  0  0
   19.4362   18.6570   24.4697 H   0  0  0  0  0  0  0  0  0  0  0  0
   18.0501   17.9856   23.5862 H   0  0  0  0  0  0  0  0  0  0  0  0
   19.0428   19.6190   22.5327 C   0  0  0  0  0  0  0  0  0  0  0  0
   19.6519   20.4297   22.9586 H   0  0  0  0  0  0  0  0  0  0  0  0
   19.6695   19.1565   21.2011 C   0  0  0  0  0  0  0  0  0  0  0  0
   19.0679   19.4541   20.3318 H   0  0  0  0  0  0  0  0  0  0  0  0
   20.6609   19.6153   21.0936 H   0  0  0  0  0  0  0  0  0  0  0  0
   17.7046   20.0526   22.3208 O   0  0  0  0  0  0  0  0  0  0  0  0
   17.3545   20.3226   23.1960 H   0  0  0  0  0  0  0  0  0  0  0  0
  1  2  1  0  0  0  0
  1  3  1  0  0  0  0
  1  4  1  0  0  0  0
  4  5  1  0  0  0  0
  4  6  1  0  0  0  0
  4  7  1  0  0  0  0
  7  8  1  0  0  0  0
  7  9  1  0  0  0  0
  7 10  1  0  0  0  0
 10 11  1  0  0  0  0
  1 12  1  0  0  0  0
 10 12  1  0  0  0  0
 12 13  1  0  0  0  0
 12 14  1  0  0  0  0
 10 15  1  0  0  0  0
 15 16  1  0  0  0  0
M  END
> <VConfSearch Rank>
850

> <Conf_Id>
59

> <Delta U+W>
0.000

> <U+W>
3.010

> <U>
5.843

> <W>
-2.833

> <W(PB)>
-4.568

> <W(SA)>
1.735

> <Valence>
13.789

> <Coulomb>
-8.574

> <VdW>
0.628

> <VdW6>
-3.284

> <VdW12>
3.912

> <Bond>
0.054

> <Angle>
4.034

> <Pdih>
9.702

> <Idih>
0.000

> <Tether>
0.000

$$$$
VeraChem MOL file


 16 16  0  0  0  0  0  0  0  0999 V2000     
   19.4465   19.7571   23.1583 C   0  0  0  0  0  0  0  0  0  0  0  0
   19.1679   20.0215   24.1875 H   0  0  0  0  0  0  0  0  0  0  0  0
   19.9723   20.6136   22.7139 H   0  0  0  0  0  0  0  0  0  0  0  0
   18.2279   19.3963   22.2978 C   0  0  0  0  0  0  0  0  0  0  0  0
   17.5167   18.8083   22.8946 H   0  0  0  0  0  0  0  0  0  0  0  0
   17.7056   20.2844   21.9168 H   0  0  0  0  0  0  0  0  0  0  0  0
   18.7999   18.5209   21.1676 C   0  0  0  0  0  0  0  0  0  0  0  0
   19.0912   19.1562   20.3210 H   0  0  0  0  0  0  0  0  0  0  0  0
   18.0591   17.7972   20.8023 H   0  0  0  0  0  0  0  0  0  0  0  0
   20.0582   17.8340   21.7373 C   0  0  0  0  0  0  0  0  0  0  0  0
   20.9030   17.9974   21.0523 H   0  0  0  0  0  0  0  0  0  0  0  0
   20.3428   18.5067   23.0968 C   0  0  0  0  0  0  0  0  0  0  0  0
   20.0778   17.8289   23.9197 H   0  0  0  0  0  0  0  0  0  0  0  0
   21.4035   18.7679   23.2035 H   0  0  0  0  0  0  0  0  0  0  0  0
   19.8185   16.4434   21.9183 O   0  0  0  0  0  0  0  0  0  0  0  0
   20.6418   16.0622   22.2904 H   0  0  0  0  0  0  0  0  0  0  0  0
  1  2  1  0  0  0  0
  1  3  1  0  0  0  0
  1  4  1  0  0  0  0
  4  5  1  0  0  0  0
  4  6  1  0  0  0  0
  4  7  1  0  0  0  0
  7  8  1  0  0  0  0
  7  9  1  0  0  0  0
  7 10  1  0  0  0  0
 10 11  1  0  0  0  0
  1 12  1  0  0  0  0
 10 12  1  0  0  0  0
 12 13  1  0  0  0  0
 12 14  1  0  0  0  0
 10 15  1  0  0  0  0
 15 16  1  0  0  0  0
M  END
> <VConfSearch Rank>
851

> <Conf_Id>
33

> <Delta U+W>
0.015

> <U+W>
3.025

> <U>
5.843

> <W>
-2.819

> <W(PB)>
-4.568

> <W(SA)>
1.750

> <Valence>
13.789

> <Coulomb>
-8.574

> <VdW>
0.628

> <VdW6>
-3.284

> <VdW12>
3.913

> <Bond>
0.054

> <Angle>
4.033

> <Pdih>
9.702

> <Idih>
0.000

> <Tether>
0.000

$$$$
VeraChem MOL file


 16 16  0  0  0  0  0  0  0  0999 V2000     
   19.7027   17.3748   22.6498 C   0  0  0  0  0  0  0  0  0  0  0  0
   19.7802   16.6465   21.8308 H   0  0  0  0  0  0  0  0  0  0  0  0
   19.9421   16.8510   23.5854 H   0  0  0  0  0  0  0  0  0  0  0  0
   18.2813   17.9775   22.6841 C   0  0  0  0  0  0  0  0  0  0  0  0
   17.6704   17.5401   21.8824 H   0  0  0  0  0  0  0  0  0  0  0  0
   17.7774   17.7698   23.6381 H   0  0  0  0  0  0  0  0  0  0  0  0
   18.4443   19.4962   22.4620 C   0  0  0  0  0  0  0  0  0  0  0  0
   18.4299   20.0123   23.4310 H   0  0  0  0  0  0  0  0  0  0  0  0
   17.6366   19.9161   21.8478 H   0  0  0  0  0  0  0  0  0  0  0  0
   19.8237   19.6858   21.8169 C   0  0  0  0  0  0  0  0  0  0  0  0
   20.2477   20.6730   22.0511 H   0  0  0  0  0  0  0  0  0  0  0  0
   20.6715   18.5522   22.4095 C   0  0  0  0  0  0  0  0  0  0  0  0
   21.5099   18.2748   21.7567 H   0  0  0  0  0  0  0  0  0  0  0  0
   21.0905   18.8842   23.3686 H   0  0  0  0  0  0  0  0  0  0  0  0
   19.7128   19.5022   20.4131 O   0  0  0  0  0  0  0  0  0  0  0  0
   19.3308   18.6072   20.3026 H   0  0  0  0  0  0  0  0  0  0  0  0
  1  2  1  0  0  0  0
  1  3  1  0  0  0  0
  1  4  1  0  0  0  0
  4  5  1  0  0  0  0
  4  6  1  0  0  0  0
  4  7  1  0  0  0  0
  7  8  1  0  0  0  0
  7  9  1  0  0  0  0
  7 10  1  0  0  0  0
 10 11  1  0  0  0  0
  1 12  1  0  0  0  0
 10 12  1  0  0  0  0
 12 13  1  0  0  0  0
 12 14  1  0  0  0  0
 10 15  1  0  0  0  0
 15 16  1  0  0  0  0
M  END
> <VConfSearch Rank>
852

> <Conf_Id>
20

> <Delta U+W>
-0.483

> <U+W>
2.527

> <U>
4.508

> <W>
-1.981

> <W(PB)>
-3.712

> <W(SA)>
1.732

> <Valence>
14.705

> <Coulomb>
-10.687

> <VdW>
0.490

> <VdW6>
-3.745

> <VdW12>
4.235

> <Bond>
0.068

> <Angle>
3.901

> <Pdih>
10.737

> <Idih>
0.000

> <Tether>
0.000

$$$$
VeraChem MOL file


 16 16  0  0  0  0  0  0  0  0999 V2000     
   20.7746   18.4401   22.0072 C   0  0  0  0  0  0  0  0  0  0  0  0
   21.2904   18.8266   22.8973 H   0  0  0  0  0  0  0  0  0  0  0  0
   21.5335   18.0842   21.2972 H   0  0  0  0  0  0  0  0  0  0  0  0
   19.8837   19.5387   21.4113 C   0  0  0  0  0  0  0  0  0  0  0  0
   20.3614   20.5273   21.4432 H   0  0  0  0  0  0  0  0  0  0  0  0
   19.6551   19.3011   20.3630 H   0  0  0  0  0  0  0  0  0  0  0  0
   18.5943   19.4836   22.2510 C   0  0  0  0  0  0  0  0  0  0  0  0
   17.7220   19.8067   21.6682 H   0  0  0  0  0  0  0  0  0  0  0  0
   18.6929   20.1578   23.1127 H   0  0  0  0  0  0  0  0  0  0  0  0
   18.4483   18.0234   22.7285 C   0  0  0  0  0  0  0  0  0  0  0  0
   17.6450   17.5228   22.1684 H   0  0  0  0  0  0  0  0  0  0  0  0
   19.7917   17.3297   22.4223 C   0  0  0  0  0  0  0  0  0  0  0  0
   20.1690   16.7553   23.2789 H   0  0  0  0  0  0  0  0  0  0  0  0
   19.6516   16.6308   21.5875 H   0  0  0  0  0  0  0  0  0  0  0  0
   18.1852   17.9879   24.1262 O   0  0  0  0  0  0  0  0  0  0  0  0
   17.3309   18.4494   24.2634 H   0  0  0  0  0  0  0  0  0  0  0  0
  1  2  1  0  0  0  0
  1  3  1  0  0  0  0
  1  4  1  0  0  0  0
  4  5  1  0  0  0  0
  4  6  1  0  0  0  0
  4  7  1  0  0  0  0
  7  8  1  0  0  0  0
  7  9  1  0  0  0  0
  7 10  1  0  0  0  0
 10 11  1  0  0  0  0
  1 12  1  0  0  0  0
 10 12  1  0  0  0  0
 12 13  1  0  0  0  0
 12 14  1  0  0  0  0
 10 15  1  0  0  0  0
 15 16  1  0  0  0  0
M  END
> <VConfSearch Rank>
853

> <Conf_Id>
59

> <Delta U+W>
0.000

> <U+W>
3.010

> <U>
5.843

> <W>
-2.833

> <W(PB)>
-4.568

> <W(SA)>
1.735

> <Valence>
13.789

> <Coulomb>
-8.574

> <VdW>
0.628

> <VdW6>
-3.284

> <VdW12>
3.912

> <Bond>
0.054

> <Angle>
4.034

> <Pdih>
9.702

> <Idih>
0.000

> <Tether>
0.000

$$$$
VeraChem MOL file


 16 16  0  0  0  0  0  0  0  0999 V2000     
   18.7076   18.1402   23.4253 C   0  0  0  0  0  0  0  0  0  0  0  0
   18.8796   17.6153   24.3749 H   0  0  0  0  0  0  0  0  0  0  0  0
   17.6661   18.4906   23.4102 H   0  0  0  0  0  0  0  0  0  0  0  0
   18.9684   17.2440   22.2070 C   0  0  0  0  0  0  0  0  0  0  0  0
   19.8525   16.6182   22.3926 H   0  0  0  0  0  0  0  0  0  0  0  0
   18.1200   16.5832   21.9829 H   0  0  0  0  0  0  0  0  0  0  0  0
   19.2651   18.2286   21.0609 C   0  0  0  0  0  0  0  0  0  0  0  0
   18.3300   18.4910   20.5492 H   0  0  0  0  0  0  0  0  0  0  0  0
   19.9415   17.7894   20.3155 H   0  0  0  0  0  0  0  0  0  0  0  0
   19.8551   19.4965   21.7120 C   0  0  0  0  0  0  0  0  0  0  0  0
   19.3039   20.3786   21.3547 H   0  0  0  0  0  0  0  0  0  0  0  0
   19.6615   19.3336   23.2344 C   0  0  0  0  0  0  0  0  0  0  0  0
   20.6223   19.1118   23.7187 H   0  0  0  0  0  0  0  0  0  0  0  0
   19.2574   20.2470   23.6897 H   0  0  0  0  0  0  0  0  0  0  0  0
   21.2392   19.6083   21.4023 O   0  0  0  0  0  0  0  0  0  0  0  0
   21.5624   20.4197   21.8480 H   0  0  0  0  0  0  0  0  0  0  0  0
  1  2  1  0  0  0  0
  1  3  1  0  0  0  0
  1  4  1  0  0  0  0
  4  5  1  0  0  0  0
  4  6  1  0  0  0  0
  4  7  1  0  0  0  0
  7  8  1  0  0  0  0
  7  9  1  0  0  0  0
  7 10  1  0  0  0  0
 10 11  1  0  0  0  0
  1 12  1  0  0  0  0
 10 12  1  0  0  0  0
 12 13  1  0  0  0  0
 12 14  1  0  0  0  0
 10 15  1  0  0  0  0
 15 16  1  0  0  0  0
M  END
> <VConfSearch Rank>
854

> <Conf_Id>
33

> <Delta U+W>
0.015

> <U+W>
3.025

> <U>
5.843

> <W>
-2.819

> <W(PB)>
-4.568

> <W(SA)>
1.750

> <Valence>
13.789

> <Coulomb>
-8.574

> <VdW>
0.628

> <VdW6>
-3.284

> <VdW12>
3.913

> <Bond>
0.054

> <Angle>
4.033

> <Pdih>
9.702

> <Idih>
0.000

> <Tether>
0.000

$$$$
VeraChem MOL file


 16 16  0  0  0  0  0  0  0  0999 V2000     
   18.5645   19.2091   21.3840 C   0  0  0  0  0  0  0  0  0  0  0  0
   18.2888   18.5854   20.5224 H   0  0  0  0  0  0  0  0  0  0  0  0
   18.0530   20.1751   21.2734 H   0  0  0  0  0  0  0  0  0  0  0  0
   20.0982   19.3814   21.4383 C   0  0  0  0  0  0  0  0  0  0  0  0
   20.5647   18.8421   20.6024 H   0  0  0  0  0  0  0  0  0  0  0  0
   20.3891   20.4377   21.3572 H   0  0  0  0  0  0  0  0  0  0  0  0
   20.5587   18.7809   22.7835 C   0  0  0  0  0  0  0  0  0  0  0  0
   20.6801   19.5847   23.5217 H   0  0  0  0  0  0  0  0  0  0  0  0
   21.5204   18.2575   22.6983 H   0  0  0  0  0  0  0  0  0  0  0  0
   19.4287   17.8495   23.2424 C   0  0  0  0  0  0  0  0  0  0  0  0
   19.4006   17.7565   24.3376 H   0  0  0  0  0  0  0  0  0  0  0  0
   18.1556   18.5120   22.6990 C   0  0  0  0  0  0  0  0  0  0  0  0
   17.3414   17.7900   22.5518 H   0  0  0  0  0  0  0  0  0  0  0  0
   17.8092   19.2638   23.4204 H   0  0  0  0  0  0  0  0  0  0  0  0
   19.5925   16.5786   22.6301 O   0  0  0  0  0  0  0  0  0  0  0  0
   19.6061   16.7594   21.6676 H   0  0  0  0  0  0  0  0  0  0  0  0
  1  2  1  0  0  0  0
  1  3  1  0  0  0  0
  1  4  1  0  0  0  0
  4  5  1  0  0  0  0
  4  6  1  0  0  0  0
  4  7  1  0  0  0  0
  7  8  1  0  0  0  0
  7  9  1  0  0  0  0
  7 10  1  0  0  0  0
 10 11  1  0  0  0  0
  1 12  1  0  0  0  0
 10 12  1  0  0  0  0
 12 13  1  0  0  0  0
 12 14  1  0  0  0  0
 10 15  1  0  0  0  0
 15 16  1  0  0  0  0
M  END
> <VConfSearch Rank>
855

> <Conf_Id>
20

> <Delta U+W>
-0.483

> <U+W>
2.527

> <U>
4.508

> <W>
-1.981

> <W(PB)>
-3.712

> <W(SA)>
1.732

> <Valence>
14.705

> <Coulomb>
-10.687

> <VdW>
0.490

> <VdW6>
-3.745

> <VdW12>
4.235

> <Bond>
0.068

> <Angle>
3.901

> <Pdih>
10.737

> <Idih>
0.000

> <Tether>
0.000

$$$$
VeraChem MOL file


 16 16  0  0  0  0  0  0  0  0999 V2000     
   18.4865   17.6929   21.5316 C   0  0  0  0  0  0  0  0  0  0  0  0
   18.3504   18.2188   20.5763 H   0  0  0  0  0  0  0  0  0  0  0  0
   17.9625   16.7293   21.4717 H   0  0  0  0  0  0  0  0  0  0  0  0
   17.9701   18.5706   22.6800 C   0  0  0  0  0  0  0  0  0  0  0  0
   17.0455   19.1021   22.4166 H   0  0  0  0  0  0  0  0  0  0  0  0
   17.7680   17.9455   23.5609 H   0  0  0  0  0  0  0  0  0  0  0  0
   19.1340   19.5328   22.9799 C   0  0  0  0  0  0  0  0  0  0  0  0
   19.1373   19.8424   24.0330 H   0  0  0  0  0  0  0  0  0  0  0  0
   19.0271   20.4356   22.3632 H   0  0  0  0  0  0  0  0  0  0  0  0
   20.4282   18.7799   22.6059 C   0  0  0  0  0  0  0  0  0  0  0  0
   20.9596   18.4692   23.5172 H   0  0  0  0  0  0  0  0  0  0  0  0
   19.9901   17.5272   21.8194 C   0  0  0  0  0  0  0  0  0  0  0  0
   20.5664   17.3933   20.8942 H   0  0  0  0  0  0  0  0  0  0  0  0
   20.1500   16.6385   22.4437 H   0  0  0  0  0  0  0  0  0  0  0  0
   21.2581   19.6031   21.7949 O   0  0  0  0  0  0  0  0  0  0  0  0
   21.4958   20.3843   22.3378 H   0  0  0  0  0  0  0  0  0  0  0  0
  1  2  1  0  0  0  0
  1  3  1  0  0  0  0
  1  4  1  0  0  0  0
  4  5  1  0  0  0  0
  4  6  1  0  0  0  0
  4  7  1  0  0  0  0
  7  8  1  0  0  0  0
  7  9  1  0  0  0  0
  7 10  1  0  0  0  0
 10 11  1  0  0  0  0
  1 12  1  0  0  0  0
 10 12  1  0  0  0  0
 12 13  1  0  0  0  0
 12 14  1  0  0  0  0
 10 15  1  0  0  0  0
 15 16  1  0  0  0  0
M  END
> <VConfSearch Rank>
856

> <Conf_Id>
59

> <Delta U+W>
0.000

> <U+W>
3.010

> <U>
5.843

> <W>
-2.833

> <W(PB)>
-4.568

> <W(SA)>
1.735

> <Valence>
13.789

> <Coulomb>
-8.574

> <VdW>
0.628

> <VdW6>
-3.284

> <VdW12>
3.912

> <Bond>
0.054

> <Angle>
4.034

> <Pdih>
9.702

> <Idih>
0.000

> <Tether>
0.000

$$$$
VeraChem MOL file


 16 16  0  0  0  0  0  0  0  0999 V2000     
   20.2879   19.5078   23.0406 C   0  0  0  0  0  0  0  0  0  0  0  0
   20.8447   19.5321   23.9873 H   0  0  0  0  0  0  0  0  0  0  0  0
   20.5502   20.4062   22.4647 H   0  0  0  0  0  0  0  0  0  0  0  0
   18.7693   19.4585   23.2573 C   0  0  0  0  0  0  0  0  0  0  0  0
   18.5393   18.7961   24.1034 H   0  0  0  0  0  0  0  0  0  0  0  0
   18.3435   20.4486   23.4698 H   0  0  0  0  0  0  0  0  0  0  0  0
   18.2144   18.8467   21.9578 C   0  0  0  0  0  0  0  0  0  0  0  0
   17.9910   19.6467   21.2400 H   0  0  0  0  0  0  0  0  0  0  0  0
   17.2847   18.2904   22.1375 H   0  0  0  0  0  0  0  0  0  0  0  0
   19.3305   17.9512   21.3816 C   0  0  0  0  0  0  0  0  0  0  0  0
   19.5001   18.2149   20.3275 H   0  0  0  0  0  0  0  0  0  0  0  0
   20.5977   18.2483   22.2109 C   0  0  0  0  0  0  0  0  0  0  0  0
   20.8142   17.4111   22.8885 H   0  0  0  0  0  0  0  0  0  0  0  0
   21.4748   18.3972   21.5681 H   0  0  0  0  0  0  0  0  0  0  0  0
   18.9726   16.5799   21.5062 O   0  0  0  0  0  0  0  0  0  0  0  0
   19.7177   16.0602   21.1372 H   0  0  0  0  0  0  0  0  0  0  0  0
  1  2  1  0  0  0  0
  1  3  1  0  0  0  0
  1  4  1  0  0  0  0
  4  5  1  0  0  0  0
  4  6  1  0  0  0  0
  4  7  1  0  0  0  0
  7  8  1  0  0  0  0
  7  9  1  0  0  0  0
  7 10  1  0  0  0  0
 10 11  1  0  0  0  0
  1 12  1  0  0  0  0
 10 12  1  0  0  0  0
 12 13  1  0  0  0  0
 12 14  1  0  0  0  0
 10 15  1  0  0  0  0
 15 16  1  0  0  0  0
M  END
> <VConfSearch Rank>
857

> <Conf_Id>
33

> <Delta U+W>
0.015

> <U+W>
3.025

> <U>
5.843

> <W>
-2.819

> <W(PB)>
-4.568

> <W(SA)>
1.750

> <Valence>
13.789

> <Coulomb>
-8.574

> <VdW>
0.628

> <VdW6>
-3.284

> <VdW12>
3.913

> <Bond>
0.054

> <Angle>
4.033

> <Pdih>
9.702

> <Idih>
0.000

> <Tether>
0.000

$$$$
VeraChem MOL file


 16 16  0  0  0  0  0  0  0  0999 V2000     
   20.5088   18.9936   21.6583 C   0  0  0  0  0  0  0  0  0  0  0  0
   20.4236   19.9292   21.0885 H   0  0  0  0  0  0  0  0  0  0  0  0
   21.5477   18.6462   21.5751 H   0  0  0  0  0  0  0  0  0  0  0  0
   19.5148   17.9492   21.1050 C   0  0  0  0  0  0  0  0  0  0  0  0
   18.9492   18.3789   20.2668 H   0  0  0  0  0  0  0  0  0  0  0  0
   20.0337   17.0550   20.7334 H   0  0  0  0  0  0  0  0  0  0  0  0
   18.5610   17.5949   22.2658 C   0  0  0  0  0  0  0  0  0  0  0  0
   18.8989   16.6684   22.7484 H   0  0  0  0  0  0  0  0  0  0  0  0
   17.5297   17.4364   21.9234 H   0  0  0  0  0  0  0  0  0  0  0  0
   18.6687   18.7487   23.2718 C   0  0  0  0  0  0  0  0  0  0  0  0
   18.4497   18.4143   24.2960 H   0  0  0  0  0  0  0  0  0  0  0  0
   20.1192   19.2303   23.1329 C   0  0  0  0  0  0  0  0  0  0  0  0
   20.2394   20.2801   23.4319 H   0  0  0  0  0  0  0  0  0  0  0  0
   20.7607   18.6219   23.7841 H   0  0  0  0  0  0  0  0  0  0  0  0
   17.7897   19.7935   22.8811 O   0  0  0  0  0  0  0  0  0  0  0  0
   18.0571   20.0232   21.9674 H   0  0  0  0  0  0  0  0  0  0  0  0
  1  2  1  0  0  0  0
  1  3  1  0  0  0  0
  1  4  1  0  0  0  0
  4  5  1  0  0  0  0
  4  6  1  0  0  0  0
  4  7  1  0  0  0  0
  7  8  1  0  0  0  0
  7  9  1  0  0  0  0
  7 10  1  0  0  0  0
 10 11  1  0  0  0  0
  1 12  1  0  0  0  0
 10 12  1  0  0  0  0
 12 13  1  0  0  0  0
 12 14  1  0  0  0  0
 10 15  1  0  0  0  0
 15 16  1  0  0  0  0
M  END
> <VConfSearch Rank>
858

> <Conf_Id>
20

> <Delta U+W>
-0.483

> <U+W>
2.527

> <U>
4.508

> <W>
-1.981

> <W(PB)>
-3.712

> <W(SA)>
1.732

> <Valence>
14.705

> <Coulomb>
-10.687

> <VdW>
0.490

> <VdW6>
-3.745

> <VdW12>
4.235

> <Bond>
0.068

> <Angle>
3.901

> <Pdih>
10.737

> <Idih>
0.000

> <Tether>
0.000

$$$$
VeraChem MOL file


 16 16  0  0  0  0  0  0  0  0999 V2000     
   18.0400   18.9871   22.7488 C   0  0  0  0  0  0  0  0  0  0  0  0
   17.9899   18.7200   23.8136 H   0  0  0  0  0  0  0  0  0  0  0  0
   17.1120   19.5104   22.4812 H   0  0  0  0  0  0  0  0  0  0  0  0
   18.2613   17.7205   21.9107 C   0  0  0  0  0  0  0  0  0  0  0  0
   17.6834   16.8648   22.2857 H   0  0  0  0  0  0  0  0  0  0  0  0
   17.9610   17.9085   20.8704 H   0  0  0  0  0  0  0  0  0  0  0  0
   19.7800   17.4767   21.9785 C   0  0  0  0  0  0  0  0  0  0  0  0
   20.1456   16.9698   21.0761 H   0  0  0  0  0  0  0  0  0  0  0  0
   20.0069   16.8355   22.8411 H   0  0  0  0  0  0  0  0  0  0  0  0
   20.4355   18.8627   22.1554 C   0  0  0  0  0  0  0  0  0  0  0  0
   20.9177   19.1735   21.2171 H   0  0  0  0  0  0  0  0  0  0  0  0
   19.2932   19.8438   22.4906 C   0  0  0  0  0  0  0  0  0  0  0  0
   19.5312   20.4819   23.3522 H   0  0  0  0  0  0  0  0  0  0  0  0
   19.1198   20.4996   21.6275 H   0  0  0  0  0  0  0  0  0  0  0  0
   21.3796   18.8270   23.2189 O   0  0  0  0  0  0  0  0  0  0  0  0
   22.0724   18.1837   22.9586 H   0  0  0  0  0  0  0  0  0  0  0  0
  1  2  1  0  0  0  0
  1  3  1  0  0  0  0
  1  4  1  0  0  0  0
  4  5  1  0  0  0  0
  4  6  1  0  0  0  0
  4  7  1  0  0  0  0
  7  8  1  0  0  0  0
  7  9  1  0  0  0  0
  7 10  1  0  0  0  0
 10 11  1  0  0  0  0
  1 12  1  0  0  0  0
 10 12  1  0  0  0  0
 12 13  1  0  0  0  0
 12 14  1  0  0  0  0
 10 15  1  0  0  0  0
 15 16  1  0  0  0  0
M  END
> <VConfSearch Rank>
859

> <Conf_Id>
59

> <Delta U+W>
0.000

> <U+W>
3.010

> <U>
5.843

> <W>
-2.833

> <W(PB)>
-4.568

> <W(SA)>
1.735

> <Valence>
13.789

> <Coulomb>
-8.574

> <VdW>
0.628

> <VdW6>
-3.284

> <VdW12>
3.912

> <Bond>
0.054

> <Angle>
4.034

> <Pdih>
9.702

> <Idih>
0.000

> <Tether>
0.000

$$$$
VeraChem MOL file


 16 16  0  0  0  0  0  0  0  0999 V2000     
   18.7544   18.1449   21.1282 C   0  0  0  0  0  0  0  0  0  0  0  0
   18.8299   17.3479   20.3760 H   0  0  0  0  0  0  0  0  0  0  0  0
   17.7933   18.6592   20.9884 H   0  0  0  0  0  0  0  0  0  0  0  0
   19.9023   19.1582   21.0225 C   0  0  0  0  0  0  0  0  0  0  0  0
   20.8407   18.6301   20.8031 H   0  0  0  0  0  0  0  0  0  0  0  0
   19.7335   19.9026   20.2325 H   0  0  0  0  0  0  0  0  0  0  0  0
   19.9841   19.7950   22.4222 C   0  0  0  0  0  0  0  0  0  0  0  0
   19.3338   20.6784   22.4636 H   0  0  0  0  0  0  0  0  0  0  0  0
   21.0057   20.1211   22.6589 H   0  0  0  0  0  0  0  0  0  0  0  0
   19.4613   18.7385   23.4173 C   0  0  0  0  0  0  0  0  0  0  0  0
   18.6862   19.1905   24.0532 H   0  0  0  0  0  0  0  0  0  0  0  0
   18.8516   17.6043   22.5665 C   0  0  0  0  0  0  0  0  0  0  0  0
   19.5078   16.7234   22.5800 H   0  0  0  0  0  0  0  0  0  0  0  0
   17.8686   17.2983   22.9473 H   0  0  0  0  0  0  0  0  0  0  0  0
   20.5323   18.2373   24.2082 O   0  0  0  0  0  0  0  0  0  0  0  0
   20.1471   17.5662   24.8105 H   0  0  0  0  0  0  0  0  0  0  0  0
  1  2  1  0  0  0  0
  1  3  1  0  0  0  0
  1  4  1  0  0  0  0
  4  5  1  0  0  0  0
  4  6  1  0  0  0  0
  4  7  1  0  0  0  0
  7  8  1  0  0  0  0
  7  9  1  0  0  0  0
  7 10  1  0  0  0  0
 10 11  1  0  0  0  0
  1 12  1  0  0  0  0
 10 12  1  0  0  0  0
 12 13  1  0  0  0  0
 12 14  1  0  0  0  0
 10 15  1  0  0  0  0
 15 16  1  0  0  0  0
M  END
> <VConfSearch Rank>
860

> <Conf_Id>
33

> <Delta U+W>
0.015

> <U+W>
3.025

> <U>
5.843

> <W>
-2.819

> <W(PB)>
-4.568

> <W(SA)>
1.750

> <Valence>
13.789

> <Coulomb>
-8.574

> <VdW>
0.628

> <VdW6>
-3.284

> <VdW12>
3.913

> <Bond>
0.054

> <Angle>
4.033

> <Pdih>
9.702

> <Idih>
0.000

> <Tether>
0.000

$$$$
VeraChem MOL file


 16 16  0  0  0  0  0  0  0  0999 V2000     
   18.4855   18.0760   21.4199 C   0  0  0  0  0  0  0  0  0  0  0  0
   17.8957   17.2551   21.8505 H   0  0  0  0  0  0  0  0  0  0  0  0
   18.1385   18.2307   20.3890 H   0  0  0  0  0  0  0  0  0  0  0  0
   19.9884   17.7237   21.4663 C   0  0  0  0  0  0  0  0  0  0  0  0
   20.1259   16.7317   21.9185 H   0  0  0  0  0  0  0  0  0  0  0  0
   20.4278   17.6949   20.4598 H   0  0  0  0  0  0  0  0  0  0  0  0
   20.6647   18.8045   22.3363 C   0  0  0  0  0  0  0  0  0  0  0  0
   21.1075   19.5726   21.6885 H   0  0  0  0  0  0  0  0  0  0  0  0
   21.4671   18.3927   22.9628 H   0  0  0  0  0  0  0  0  0  0  0  0
   19.5447   19.4412   23.1702 C   0  0  0  0  0  0  0  0  0  0  0  0
   19.7806   20.4813   23.4375 H   0  0  0  0  0  0  0  0  0  0  0  0
   18.3103   19.3573   22.2625 C   0  0  0  0  0  0  0  0  0  0  0  0
   17.3728   19.3545   22.8344 H   0  0  0  0  0  0  0  0  0  0  0  0
   18.2948   20.2328   21.6000 H   0  0  0  0  0  0  0  0  0  0  0  0
   19.3241   18.6568   24.3334 O   0  0  0  0  0  0  0  0  0  0  0  0
   19.1235   17.7579   24.0002 H   0  0  0  0  0  0  0  0  0  0  0  0
  1  2  1  0  0  0  0
  1  3  1  0  0  0  0
  1  4  1  0  0  0  0
  4  5  1  0  0  0  0
  4  6  1  0  0  0  0
  4  7  1  0  0  0  0
  7  8  1  0  0  0  0
  7  9  1  0  0  0  0
  7 10  1  0  0  0  0
 10 11  1  0  0  0  0
  1 12  1  0  0  0  0
 10 12  1  0  0  0  0
 12 13  1  0  0  0  0
 12 14  1  0  0  0  0
 10 15  1  0  0  0  0
 15 16  1  0  0  0  0
M  END
> <VConfSearch Rank>
861

> <Conf_Id>
20

> <Delta U+W>
-0.483

> <U+W>
2.527

> <U>
4.508

> <W>
-1.981

> <W(PB)>
-3.712

> <W(SA)>
1.732

> <Valence>
14.705

> <Coulomb>
-10.687

> <VdW>
0.490

> <VdW6>
-3.745

> <VdW12>
4.235

> <Bond>
0.068

> <Angle>
3.901

> <Pdih>
10.737

> <Idih>
0.000

> <Tether>
0.000

$$$$
VeraChem MOL file


 16 16  0  0  0  0  0  0  0  0999 V2000     
   19.1967   19.9492   21.9383 C   0  0  0  0  0  0  0  0  0  0  0  0
   20.0456   20.4691   22.4040 H   0  0  0  0  0  0  0  0  0  0  0  0
   18.6268   20.6803   21.3490 H   0  0  0  0  0  0  0  0  0  0  0  0
   18.3443   19.2802   23.0253 C   0  0  0  0  0  0  0  0  0  0  0  0
   18.2425   19.9071   23.9216 H   0  0  0  0  0  0  0  0  0  0  0  0
   17.3384   19.0760   22.6327 H   0  0  0  0  0  0  0  0  0  0  0  0
   19.0686   17.9533   23.3175 C   0  0  0  0  0  0  0  0  0  0  0  0
   18.3666   17.1780   23.6507 H   0  0  0  0  0  0  0  0  0  0  0  0
   19.8039   18.1096   24.1185 H   0  0  0  0  0  0  0  0  0  0  0  0
   19.7808   17.5493   22.0093 C   0  0  0  0  0  0  0  0  0  0  0  0
   19.2513   16.7093   21.5365 H   0  0  0  0  0  0  0  0  0  0  0  0
   19.7155   18.7799   21.0813 C   0  0  0  0  0  0  0  0  0  0  0  0
   20.6883   19.0118   20.6275 H   0  0  0  0  0  0  0  0  0  0  0  0
   19.0075   18.5772   20.2672 H   0  0  0  0  0  0  0  0  0  0  0  0
   21.1357   17.2056   22.2739 O   0  0  0  0  0  0  0  0  0  0  0  0
   21.1171   16.4296   22.8731 H   0  0  0  0  0  0  0  0  0  0  0  0
  1  2  1  0  0  0  0
  1  3  1  0  0  0  0
  1  4  1  0  0  0  0
  4  5  1  0  0  0  0
  4  6  1  0  0  0  0
  4  7  1  0  0  0  0
  7  8  1  0  0  0  0
  7  9  1  0  0  0  0
  7 10  1  0  0  0  0
 10 11  1  0  0  0  0
  1 12  1  0  0  0  0
 10 12  1  0  0  0  0
 12 13  1  0  0  0  0
 12 14  1  0  0  0  0
 10 15  1  0  0  0  0
 15 16  1  0  0  0  0
M  END
> <VConfSearch Rank>
862

> <Conf_Id>
59

> <Delta U+W>
0.000

> <U+W>
3.010

> <U>
5.843

> <W>
-2.833

> <W(PB)>
-4.568

> <W(SA)>
1.735

> <Valence>
13.789

> <Coulomb>
-8.574

> <VdW>
0.628

> <VdW6>
-3.284

> <VdW12>
3.912

> <Bond>
0.054

> <Angle>
4.034

> <Pdih>
9.702

> <Idih>
0.000

> <Tether>
0.000

$$$$
VeraChem MOL file


 16 16  0  0  0  0  0  0  0  0999 V2000     
   18.1211   18.1235   22.5165 C   0  0  0  0  0  0  0  0  0  0  0  0
   17.5999   17.3805   23.1355 H   0  0  0  0  0  0  0  0  0  0  0  0
   17.3652   18.7331   22.0020 H   0  0  0  0  0  0  0  0  0  0  0  0
   19.0509   17.4734   21.4827 C   0  0  0  0  0  0  0  0  0  0  0  0
   19.5586   16.6103   21.9354 H   0  0  0  0  0  0  0  0  0  0  0  0
   18.5102   17.1263   20.5918 H   0  0  0  0  0  0  0  0  0  0  0  0
   20.0851   18.5659   21.1540 C   0  0  0  0  0  0  0  0  0  0  0  0
   19.7265   19.1711   20.3113 H   0  0  0  0  0  0  0  0  0  0  0  0
   21.0526   18.1332   20.8664 H   0  0  0  0  0  0  0  0  0  0  0  0
   20.1928   19.4606   22.4061 C   0  0  0  0  0  0  0  0  0  0  0  0
   20.0656   20.5129   22.1127 H   0  0  0  0  0  0  0  0  0  0  0  0
   19.0464   19.0321   23.3463 C   0  0  0  0  0  0  0  0  0  0  0  0
   19.4448   18.4641   24.1980 H   0  0  0  0  0  0  0  0  0  0  0  0
   18.5049   19.9002   23.7438 H   0  0  0  0  0  0  0  0  0  0  0  0
   21.4496   19.2639   23.0430 O   0  0  0  0  0  0  0  0  0  0  0  0
   21.4585   19.8447   23.8330 H   0  0  0  0  0  0  0  0  0  0  0  0
  1  2  1  0  0  0  0
  1  3  1  0  0  0  0
  1  4  1  0  0  0  0
  4  5  1  0  0  0  0
  4  6  1  0  0  0  0
  4  7  1  0  0  0  0
  7  8  1  0  0  0  0
  7  9  1  0  0  0  0
  7 10  1  0  0  0  0
 10 11  1  0  0  0  0
  1 12  1  0  0  0  0
 10 12  1  0  0  0  0
 12 13  1  0  0  0  0
 12 14  1  0  0  0  0
 10 15  1  0  0  0  0
 15 16  1  0  0  0  0
M  END
> <VConfSearch Rank>
863

> <Conf_Id>
33

> <Delta U+W>
0.015

> <U+W>
3.025

> <U>
5.843

> <W>
-2.819

> <W(PB)>
-4.568

> <W(SA)>
1.750

> <Valence>
13.789

> <Coulomb>
-8.574

> <VdW>
0.628

> <VdW6>
-3.284

> <VdW12>
3.913

> <Bond>
0.054

> <Angle>
4.033

> <Pdih>
9.702

> <Idih>
0.000

> <Tether>
0.000

$$$$
VeraChem MOL file


 16 16  0  0  0  0  0  0  0  0999 V2000     
   20.3419   18.6322   21.3330 C   0  0  0  0  0  0  0  0  0  0  0  0
   19.9748   18.6264   20.2975 H   0  0  0  0  0  0  0  0  0  0  0  0
   21.4392   18.6732   21.2975 H   0  0  0  0  0  0  0  0  0  0  0  0
   19.8444   17.3717   22.0738 C   0  0  0  0  0  0  0  0  0  0  0  0
   19.2374   16.7553   21.3964 H   0  0  0  0  0  0  0  0  0  0  0  0
   20.6815   16.7538   22.4265 H   0  0  0  0  0  0  0  0  0  0  0  0
   18.9854   17.8691   23.2557 C   0  0  0  0  0  0  0  0  0  0  0  0
   19.5914   17.8786   24.1713 H   0  0  0  0  0  0  0  0  0  0  0  0
   18.1150   17.2248   23.4378 H   0  0  0  0  0  0  0  0  0  0  0  0
   18.5809   19.3088   22.9111 C   0  0  0  0  0  0  0  0  0  0  0  0
   18.4088   19.9085   23.8164 H   0  0  0  0  0  0  0  0  0  0  0  0
   19.7658   19.8440   22.0960 C   0  0  0  0  0  0  0  0  0  0  0  0
   19.4723   20.6594   21.4214 H   0  0  0  0  0  0  0  0  0  0  0  0
   20.5242   20.2376   22.7856 H   0  0  0  0  0  0  0  0  0  0  0  0
   17.4217   19.2853   22.0910 O   0  0  0  0  0  0  0  0  0  0  0  0
   17.6669   18.7350   21.3189 H   0  0  0  0  0  0  0  0  0  0  0  0
  1  2  1  0  0  0  0
  1  3  1  0  0  0  0
  1  4  1  0  0  0  0
  4  5  1  0  0  0  0
  4  6  1  0  0  0  0
  4  7  1  0  0  0  0
  7  8  1  0  0  0  0
  7  9  1  0  0  0  0
  7 10  1  0  0  0  0
 10 11  1  0  0  0  0
  1 12  1  0  0  0  0
 10 12  1  0  0  0  0
 12 13  1  0  0  0  0
 12 14  1  0  0  0  0
 10 15  1  0  0  0  0
 15 16  1  0  0  0  0
M  END
> <VConfSearch Rank>
864

> <Conf_Id>
20

> <Delta U+W>
-0.483

> <U+W>
2.527

> <U>
4.508

> <W>
-1.981

> <W(PB)>
-3.712

> <W(SA)>
1.732

> <Valence>
14.705

> <Coulomb>
-10.687

> <VdW>
0.490

> <VdW6>
-3.745

> <VdW12>
4.235

> <Bond>
0.068

> <Angle>
3.901

> <Pdih>
10.737

> <Idih>
0.000

> <Tether>
0.000

$$$$
VeraChem MOL file


 16 16  0  0  0  0  0  0  0  0999 V2000     
   18.7177   18.7577   21.0249 C   0  0  0  0  0  0  0  0  0  0  0  0
   17.8735   18.0542   21.0125 H   0  0  0  0  0  0  0  0  0  0  0  0
   18.6879   19.3473   20.0985 H   0  0  0  0  0  0  0  0  0  0  0  0
   20.0321   17.9812   21.1836 C   0  0  0  0  0  0  0  0  0  0  0  0
   20.0394   17.0488   20.6028 H   0  0  0  0  0  0  0  0  0  0  0  0
   20.8722   18.6035   20.8451 H   0  0  0  0  0  0  0  0  0  0  0  0
   20.1476   17.7291   22.6980 C   0  0  0  0  0  0  0  0  0  0  0  0
   21.1965   17.6642   23.0150 H   0  0  0  0  0  0  0  0  0  0  0  0
   19.6607   16.7760   22.9458 H   0  0  0  0  0  0  0  0  0  0  0  0
   19.4170   18.8987   23.3907 C   0  0  0  0  0  0  0  0  0  0  0  0
   20.1485   19.5857   23.8408 H   0  0  0  0  0  0  0  0  0  0  0  0
   18.6362   19.6389   22.2851 C   0  0  0  0  0  0  0  0  0  0  0  0
   17.5951   19.8383   22.5723 H   0  0  0  0  0  0  0  0  0  0  0  0
   19.1197   20.6051   22.0910 H   0  0  0  0  0  0  0  0  0  0  0  0
   18.5197   18.4021   24.3766 O   0  0  0  0  0  0  0  0  0  0  0  0
   19.0656   17.9346   25.0437 H   0  0  0  0  0  0  0  0  0  0  0  0
  1  2  1  0  0  0  0
  1  3  1  0  0  0  0
  1  4  1  0  0  0  0
  4  5  1  0  0  0  0
  4  6  1  0  0  0  0
  4  7  1  0  0  0  0
  7  8  1  0  0  0  0
  7  9  1  0  0  0  0
  7 10  1  0  0  0  0
 10 11  1  0  0  0  0
  1 12  1  0  0  0  0
 10 12  1  0  0  0  0
 12 13  1  0  0  0  0
 12 14  1  0  0  0  0
 10 15  1  0  0  0  0
 15 16  1  0  0  0  0
M  END
> <VConfSearch Rank>
865

> <Conf_Id>
59

> <Delta U+W>
0.000

> <U+W>
3.010

> <U>
5.843

> <W>
-2.833

> <W(PB)>
-4.568

> <W(SA)>
1.735

> <Valence>
13.789

> <Coulomb>
-8.574

> <VdW>
0.628

> <VdW6>
-3.284

> <VdW12>
3.912

> <Bond>
0.054

> <Angle>
4.034

> <Pdih>
9.702

> <Idih>
0.000

> <Tether>
0.000

$$$$
VeraChem MOL file


 16 16  0  0  0  0  0  0  0  0999 V2000     
   19.2608   19.2540   23.5621 C   0  0  0  0  0  0  0  0  0  0  0  0
   18.5032   19.8512   24.0876 H   0  0  0  0  0  0  0  0  0  0  0  0
   20.0523   18.9952   24.2791 H   0  0  0  0  0  0  0  0  0  0  0  0
   19.8698   20.0026   22.3686 C   0  0  0  0  0  0  0  0  0  0  0  0
   19.0832   20.5645   21.8461 H   0  0  0  0  0  0  0  0  0  0  0  0
   20.6537   20.7096   22.6726 H   0  0  0  0  0  0  0  0  0  0  0  0
   20.4063   18.8900   21.4491 C   0  0  0  0  0  0  0  0  0  0  0  0
   21.4463   18.6614   21.7156 H   0  0  0  0  0  0  0  0  0  0  0  0
   20.3913   19.1951   20.3942 H   0  0  0  0  0  0  0  0  0  0  0  0
   19.5345   17.6446   21.7109 C   0  0  0  0  0  0  0  0  0  0  0  0
   20.1852   16.7832   21.9208 H   0  0  0  0  0  0  0  0  0  0  0  0
   18.6728   17.9697   22.9493 C   0  0  0  0  0  0  0  0  0  0  0  0
   17.6315   18.1533   22.6510 H   0  0  0  0  0  0  0  0  0  0  0  0
   18.6758   17.1430   23.6713 H   0  0  0  0  0  0  0  0  0  0  0  0
   18.7012   17.3841   20.5877 O   0  0  0  0  0  0  0  0  0  0  0  0
   18.1648   16.5946   20.8124 H   0  0  0  0  0  0  0  0  0  0  0  0
  1  2  1  0  0  0  0
  1  3  1  0  0  0  0
  1  4  1  0  0  0  0
  4  5  1  0  0  0  0
  4  6  1  0  0  0  0
  4  7  1  0  0  0  0
  7  8  1  0  0  0  0
  7  9  1  0  0  0  0
  7 10  1  0  0  0  0
 10 11  1  0  0  0  0
  1 12  1  0  0  0  0
 10 12  1  0  0  0  0
 12 13  1  0  0  0  0
 12 14  1  0  0  0  0
 10 15  1  0  0  0  0
 15 16  1  0  0  0  0
M  END
> <VConfSearch Rank>
866

> <Conf_Id>
33

> <Delta U+W>
0.015

> <U+W>
3.025

> <U>
5.843

> <W>
-2.819

> <W(PB)>
-4.568

> <W(SA)>
1.750

> <Valence>
13.789

> <Coulomb>
-8.574

> <VdW>
0.628

> <VdW6>
-3.284

> <VdW12>
3.913

> <Bond>
0.054

> <Angle>
4.033

> <Pdih>
9.702

> <Idih>
0.000

> <Tether>
0.000

$$$$
VeraChem MOL file


 16 16  0  0  0  0  0  0  0  0999 V2000     
   18.6892   17.4785   22.0869 C   0  0  0  0  0  0  0  0  0  0  0  0
   19.0908   16.6169   22.6378 H   0  0  0  0  0  0  0  0  0  0  0  0
   17.7920   17.1418   21.5496 H   0  0  0  0  0  0  0  0  0  0  0  0
   19.7590   18.0273   21.1177 C   0  0  0  0  0  0  0  0  0  0  0  0
   20.6780   17.4306   21.1988 H   0  0  0  0  0  0  0  0  0  0  0  0
   19.4210   17.9786   20.0735 H   0  0  0  0  0  0  0  0  0  0  0  0
   20.0304   19.4853   21.5456 C   0  0  0  0  0  0  0  0  0  0  0  0
   19.4479   20.1678   20.9127 H   0  0  0  0  0  0  0  0  0  0  0  0
   21.0894   19.7583   21.4450 H   0  0  0  0  0  0  0  0  0  0  0  0
   19.5347   19.6029   22.9931 C   0  0  0  0  0  0  0  0  0  0  0  0
   19.2248   20.6303   23.2325 H   0  0  0  0  0  0  0  0  0  0  0  0
   18.3534   18.6259   23.0632 C   0  0  0  0  0  0  0  0  0  0  0  0
   18.1728   18.2642   24.0843 H   0  0  0  0  0  0  0  0  0  0  0  0
   17.4443   19.1408   22.7255 H   0  0  0  0  0  0  0  0  0  0  0  0
   20.5577   19.1638   23.8749 O   0  0  0  0  0  0  0  0  0  0  0  0
   20.7664   18.2508   23.5885 H   0  0  0  0  0  0  0  0  0  0  0  0
  1  2  1  0  0  0  0
  1  3  1  0  0  0  0
  1  4  1  0  0  0  0
  4  5  1  0  0  0  0
  4  6  1  0  0  0  0
  4  7  1  0  0  0  0
  7  8  1  0  0  0  0
  7  9  1  0  0  0  0
  7 10  1  0  0  0  0
 10 11  1  0  0  0  0
  1 12  1  0  0  0  0
 10 12  1  0  0  0  0
 12 13  1  0  0  0  0
 12 14  1  0  0  0  0
 10 15  1  0  0  0  0
 15 16  1  0  0  0  0
M  END
> <VConfSearch Rank>
867

> <Conf_Id>
20

> <Delta U+W>
-0.483

> <U+W>
2.527

> <U>
4.508

> <W>
-1.981

> <W(PB)>
-3.712

> <W(SA)>
1.732

> <Valence>
14.705

> <Coulomb>
-10.687

> <VdW>
0.490

> <VdW6>
-3.745

> <VdW12>
4.235

> <Bond>
0.068

> <Angle>
3.901

> <Pdih>
10.737

> <Idih>
0.000

> <Tether>
0.000

$$$$
VeraChem MOL file


 16 16  0  0  0  0  0  0  0  0999 V2000     
   18.1905   17.9270   21.7166 C   0  0  0  0  0  0  0  0  0  0  0  0
   18.5022   16.8961   21.4978 H   0  0  0  0  0  0  0  0  0  0  0  0
   17.1302   18.0301   21.4487 H   0  0  0  0  0  0  0  0  0  0  0  0
   19.0869   18.9090   20.9499 C   0  0  0  0  0  0  0  0  0  0  0  0
   19.3201   18.5575   19.9356 H   0  0  0  0  0  0  0  0  0  0  0  0
   18.5839   19.8827   20.8689 H   0  0  0  0  0  0  0  0  0  0  0  0
   20.3451   19.0440   21.8270 C   0  0  0  0  0  0  0  0  0  0  0  0
   20.8135   20.0294   21.7075 H   0  0  0  0  0  0  0  0  0  0  0  0
   21.0791   18.2830   21.5288 H   0  0  0  0  0  0  0  0  0  0  0  0
   19.8887   18.8055   23.2818 C   0  0  0  0  0  0  0  0  0  0  0  0
   19.8739   19.7574   23.8325 H   0  0  0  0  0  0  0  0  0  0  0  0
   18.4550   18.2417   23.2005 C   0  0  0  0  0  0  0  0  0  0  0  0
   18.3199   17.3538   23.8324 H   0  0  0  0  0  0  0  0  0  0  0  0
   17.7489   19.0079   23.5462 H   0  0  0  0  0  0  0  0  0  0  0  0
   20.7489   17.8686   23.9190 O   0  0  0  0  0  0  0  0  0  0  0  0
   21.6427   18.2718   23.9330 H   0  0  0  0  0  0  0  0  0  0  0  0
  1  2  1  0  0  0  0
  1  3  1  0  0  0  0
  1  4  1  0  0  0  0
  4  5  1  0  0  0  0
  4  6  1  0  0  0  0
  4  7  1  0  0  0  0
  7  8  1  0  0  0  0
  7  9  1  0  0  0  0
  7 10  1  0  0  0  0
 10 11  1  0  0  0  0
  1 12  1  0  0  0  0
 10 12  1  0  0  0  0
 12 13  1  0  0  0  0
 12 14  1  0  0  0  0
 10 15  1  0  0  0  0
 15 16  1  0  0  0  0
M  END
> <VConfSearch Rank>
868

> <Conf_Id>
59

> <Delta U+W>
0.000

> <U+W>
3.010

> <U>
5.843

> <W>
-2.833

> <W(PB)>
-4.568

> <W(SA)>
1.735

> <Valence>
13.789

> <Coulomb>
-8.574

> <VdW>
0.628

> <VdW6>
-3.284

> <VdW12>
3.912

> <Bond>
0.054

> <Angle>
4.034

> <Pdih>
9.702

> <Idih>
0.000

> <Tether>
0.000

$$$$
VeraChem MOL file


 16 16  0  0  0  0  0  0  0  0999 V2000     
   18.7810   19.1227   23.4542 C   0  0  0  0  0  0  0  0  0  0  0  0
   18.9494   19.2267   24.5347 H   0  0  0  0  0  0  0  0  0  0  0  0
   17.8677   19.6757   23.1940 H   0  0  0  0  0  0  0  0  0  0  0  0
   18.6369   17.6564   23.0241 C   0  0  0  0  0  0  0  0  0  0  0  0
   19.3551   17.0373   23.5796 H   0  0  0  0  0  0  0  0  0  0  0  0
   17.6282   17.2623   23.2082 H   0  0  0  0  0  0  0  0  0  0  0  0
   19.0042   17.6557   21.5287 C   0  0  0  0  0  0  0  0  0  0  0  0
   18.1010   17.8225   20.9274 H   0  0  0  0  0  0  0  0  0  0  0  0
   19.4385   16.6956   21.2194 H   0  0  0  0  0  0  0  0  0  0  0  0
   19.9761   18.8343   21.3139 C   0  0  0  0  0  0  0  0  0  0  0  0
   19.6163   19.4546   20.4801 H   0  0  0  0  0  0  0  0  0  0  0  0
   19.9645   19.6512   22.6232 C   0  0  0  0  0  0  0  0  0  0  0  0
   20.8985   19.4923   23.1793 H   0  0  0  0  0  0  0  0  0  0  0  0
   19.8680   20.7268   22.4268 H   0  0  0  0  0  0  0  0  0  0  0  0
   21.2866   18.3476   21.0505 O   0  0  0  0  0  0  0  0  0  0  0  0
   21.8606   19.1341   20.9343 H   0  0  0  0  0  0  0  0  0  0  0  0
  1  2  1  0  0  0  0
  1  3  1  0  0  0  0
  1  4  1  0  0  0  0
  4  5  1  0  0  0  0
  4  6  1  0  0  0  0
  4  7  1  0  0  0  0
  7  8  1  0  0  0  0
  7  9  1  0  0  0  0
  7 10  1  0  0  0  0
 10 11  1  0  0  0  0
  1 12  1  0  0  0  0
 10 12  1  0  0  0  0
 12 13  1  0  0  0  0
 12 14  1  0  0  0  0
 10 15  1  0  0  0  0
 15 16  1  0  0  0  0
M  END
> <VConfSearch Rank>
869

> <Conf_Id>
33

> <Delta U+W>
0.015

> <U+W>
3.025

> <U>
5.843

> <W>
-2.819

> <W(PB)>
-4.568

> <W(SA)>
1.750

> <Valence>
13.789

> <Coulomb>
-8.574

> <VdW>
0.628

> <VdW6>
-3.284

> <VdW12>
3.913

> <Bond>
0.054

> <Angle>
4.033

> <Pdih>
9.702

> <Idih>
0.000

> <Tether>
0.000

$$$$
VeraChem MOL file


 16 16  0  0  0  0  0  0  0  0999 V2000     
   19.2988   17.8285   21.1776 C   0  0  0  0  0  0  0  0  0  0  0  0
   19.1515   18.3735   20.2350 H   0  0  0  0  0  0  0  0  0  0  0  0
   19.3563   16.7578   20.9380 H   0  0  0  0  0  0  0  0  0  0  0  0
   18.1356   18.1319   22.1471 C   0  0  0  0  0  0  0  0  0  0  0  0
   17.4248   18.8229   21.6734 H   0  0  0  0  0  0  0  0  0  0  0  0
   17.5852   17.2197   22.4155 H   0  0  0  0  0  0  0  0  0  0  0  0
   18.7653   18.7872   23.3947 C   0  0  0  0  0  0  0  0  0  0  0  0
   18.9053   18.0287   24.1763 H   0  0  0  0  0  0  0  0  0  0  0  0
   18.1332   19.5829   23.8108 H   0  0  0  0  0  0  0  0  0  0  0  0
   20.1399   19.3076   22.9535 C   0  0  0  0  0  0  0  0  0  0  0  0
   20.8485   19.3412   23.7936 H   0  0  0  0  0  0  0  0  0  0  0  0
   20.5879   18.3107   21.8763 C   0  0  0  0  0  0  0  0  0  0  0  0
   21.3029   18.7542   21.1706 H   0  0  0  0  0  0  0  0  0  0  0  0
   21.0824   17.4592   22.3621 H   0  0  0  0  0  0  0  0  0  0  0  0
   19.9875   20.5923   22.3675 O   0  0  0  0  0  0  0  0  0  0  0  0
   19.3466   20.4652   21.6381 H   0  0  0  0  0  0  0  0  0  0  0  0
  1  2  1  0  0  0  0
  1  3  1  0  0  0  0
  1  4  1  0  0  0  0
  4  5  1  0  0  0  0
  4  6  1  0  0  0  0
  4  7  1  0  0  0  0
  7  8  1  0  0  0  0
  7  9  1  0  0  0  0
  7 10  1  0  0  0  0
 10 11  1  0  0  0  0
  1 12  1  0  0  0  0
 10 12  1  0  0  0  0
 12 13  1  0  0  0  0
 12 14  1  0  0  0  0
 10 15  1  0  0  0  0
 15 16  1  0  0  0  0
M  END
> <VConfSearch Rank>
870

> <Conf_Id>
20

> <Delta U+W>
-0.483

> <U+W>
2.527

> <U>
4.508

> <W>
-1.981

> <W(PB)>
-3.712

> <W(SA)>
1.732

> <Valence>
14.705

> <Coulomb>
-10.687

> <VdW>
0.490

> <VdW6>
-3.745

> <VdW12>
4.235

> <Bond>
0.068

> <Angle>
3.901

> <Pdih>
10.737

> <Idih>
0.000

> <Tether>
0.000

$$$$
VeraChem MOL file


 16 16  0  0  0  0  0  0  0  0999 V2000     
   18.3716   17.6996   21.6736 C   0  0  0  0  0  0  0  0  0  0  0  0
   18.6528   16.6766   21.9599 H   0  0  0  0  0  0  0  0  0  0  0  0
   17.4474   17.6497   21.0819 H   0  0  0  0  0  0  0  0  0  0  0  0
   19.5264   18.3538   20.9027 C   0  0  0  0  0  0  0  0  0  0  0  0
   20.0183   17.6539   20.2135 H   0  0  0  0  0  0  0  0  0  0  0  0
   19.1461   19.2024   20.3172 H   0  0  0  0  0  0  0  0  0  0  0  0
   20.4793   18.8630   21.9996 C   0  0  0  0  0  0  0  0  0  0  0  0
   21.0371   19.7480   21.6672 H   0  0  0  0  0  0  0  0  0  0  0  0
   21.2072   18.0768   22.2421 H   0  0  0  0  0  0  0  0  0  0  0  0
   19.6001   19.1753   23.2289 C   0  0  0  0  0  0  0  0  0  0  0  0
   19.4986   20.2634   23.3524 H   0  0  0  0  0  0  0  0  0  0  0  0
   18.2138   18.5641   22.9380 C   0  0  0  0  0  0  0  0  0  0  0  0
   17.8313   17.9773   23.7838 H   0  0  0  0  0  0  0  0  0  0  0  0
   17.4990   19.3743   22.7437 H   0  0  0  0  0  0  0  0  0  0  0  0
   20.1609   18.5862   24.3960 O   0  0  0  0  0  0  0  0  0  0  0  0
   21.0399   19.0011   24.5259 H   0  0  0  0  0  0  0  0  0  0  0  0
  1  2  1  0  0  0  0
  1  3  1  0  0  0  0
  1  4  1  0  0  0  0
  4  5  1  0  0  0  0
  4  6  1  0  0  0  0
  4  7  1  0  0  0  0
  7  8  1  0  0  0  0
  7  9  1  0  0  0  0
  7 10  1  0  0  0  0
 10 11  1  0  0  0  0
  1 12  1  0  0  0  0
 10 12  1  0  0  0  0
 12 13  1  0  0  0  0
 12 14  1  0  0  0  0
 10 15  1  0  0  0  0
 15 16  1  0  0  0  0
M  END
> <VConfSearch Rank>
871

> <Conf_Id>
59

> <Delta U+W>
0.000

> <U+W>
3.010

> <U>
5.843

> <W>
-2.833

> <W(PB)>
-4.568

> <W(SA)>
1.735

> <Valence>
13.789

> <Coulomb>
-8.574

> <VdW>
0.628

> <VdW6>
-3.284

> <VdW12>
3.912

> <Bond>
0.054

> <Angle>
4.034

> <Pdih>
9.702

> <Idih>
0.000

> <Tether>
0.000

$$$$
VeraChem MOL file


 16 16  0  0  0  0  0  0  0  0999 V2000     
   20.3499   19.6619   22.6832 C   0  0  0  0  0  0  0  0  0  0  0  0
   20.3345   20.6030   23.2495 H   0  0  0  0  0  0  0  0  0  0  0  0
   21.3954   19.4209   22.4456 H   0  0  0  0  0  0  0  0  0  0  0  0
   19.5322   19.7469   21.3871 C   0  0  0  0  0  0  0  0  0  0  0  0
   18.6127   20.3206   21.5687 H   0  0  0  0  0  0  0  0  0  0  0  0
   20.0861   20.2333   20.5727 H   0  0  0  0  0  0  0  0  0  0  0  0
   19.1724   18.2854   21.0620 C   0  0  0  0  0  0  0  0  0  0  0  0
   19.9539   17.8456   20.4289 H   0  0  0  0  0  0  0  0  0  0  0  0
   18.2219   18.2147   20.5166 H   0  0  0  0  0  0  0  0  0  0  0  0
   19.1326   17.5325   22.4079 C   0  0  0  0  0  0  0  0  0  0  0  0
   19.7590   16.6311   22.3386 H   0  0  0  0  0  0  0  0  0  0  0  0
   19.7114   18.4981   23.4634 C   0  0  0  0  0  0  0  0  0  0  0  0
   18.9085   18.8875   24.1041 H   0  0  0  0  0  0  0  0  0  0  0  0
   20.4449   17.9978   24.1088 H   0  0  0  0  0  0  0  0  0  0  0  0
   17.7921   17.1898   22.7388 O   0  0  0  0  0  0  0  0  0  0  0  0
   17.8252   16.7267   23.6025 H   0  0  0  0  0  0  0  0  0  0  0  0
  1  2  1  0  0  0  0
  1  3  1  0  0  0  0
  1  4  1  0  0  0  0
  4  5  1  0  0  0  0
  4  6  1  0  0  0  0
  4  7  1  0  0  0  0
  7  8  1  0  0  0  0
  7  9  1  0  0  0  0
  7 10  1  0  0  0  0
 10 11  1  0  0  0  0
  1 12  1  0  0  0  0
 10 12  1  0  0  0  0
 12 13  1  0  0  0  0
 12 14  1  0  0  0  0
 10 15  1  0  0  0  0
 15 16  1  0  0  0  0
M  END
> <VConfSearch Rank>
872

> <Conf_Id>
33

> <Delta U+W>
0.015

> <U+W>
3.025

> <U>
5.843

> <W>
-2.819

> <W(PB)>
-4.568

> <W(SA)>
1.750

> <Valence>
13.789

> <Coulomb>
-8.574

> <VdW>
0.628

> <VdW6>
-3.284

> <VdW12>
3.913

> <Bond>
0.054

> <Angle>
4.033

> <Pdih>
9.702

> <Idih>
0.000

> <Tether>
0.000

$$$$
VeraChem MOL file


 16 16  0  0  0  0  0  0  0  0999 V2000     
   18.7665   19.7068   21.8018 C   0  0  0  0  0  0  0  0  0  0  0  0
   18.0405   20.1437   22.5012 H   0  0  0  0  0  0  0  0  0  0  0  0
   18.7860   20.3391   20.9035 H   0  0  0  0  0  0  0  0  0  0  0  0
   18.3632   18.2545   21.4654 C   0  0  0  0  0  0  0  0  0  0  0  0
   17.4415   17.9889   22.0012 H   0  0  0  0  0  0  0  0  0  0  0  0
   18.1728   18.1268   20.3909 H   0  0  0  0  0  0  0  0  0  0  0  0
   19.5290   17.3572   21.9326 C   0  0  0  0  0  0  0  0  0  0  0  0
   20.1777   17.1239   21.0780 H   0  0  0  0  0  0  0  0  0  0  0  0
   19.1786   16.4062   22.3556 H   0  0  0  0  0  0  0  0  0  0  0  0
   20.3237   18.1877   22.9493 C   0  0  0  0  0  0  0  0  0  0  0  0
   21.3808   17.8870   22.9794 H   0  0  0  0  0  0  0  0  0  0  0  0
   20.1613   19.6327   22.4586 C   0  0  0  0  0  0  0  0  0  0  0  0
   20.2787   20.3632   23.2701 H   0  0  0  0  0  0  0  0  0  0  0  0
   20.9328   19.8424   21.7060 H   0  0  0  0  0  0  0  0  0  0  0  0
   19.7236   18.0585   24.2299 O   0  0  0  0  0  0  0  0  0  0  0  0
   18.7952   18.3450   24.1064 H   0  0  0  0  0  0  0  0  0  0  0  0
  1  2  1  0  0  0  0
  1  3  1  0  0  0  0
  1  4  1  0  0  0  0
  4  5  1  0  0  0  0
  4  6  1  0  0  0  0
  4  7  1  0  0  0  0
  7  8  1  0  0  0  0
  7  9  1  0  0  0  0
  7 10  1  0  0  0  0
 10 11  1  0  0  0  0
  1 12  1  0  0  0  0
 10 12  1  0  0  0  0
 12 13  1  0  0  0  0
 12 14  1  0  0  0  0
 10 15  1  0  0  0  0
 15 16  1  0  0  0  0
M  END
> <VConfSearch Rank>
873

> <Conf_Id>
20

> <Delta U+W>
-0.483

> <U+W>
2.527

> <U>
4.508

> <W>
-1.981

> <W(PB)>
-3.712

> <W(SA)>
1.732

> <Valence>
14.705

> <Coulomb>
-10.687

> <VdW>
0.490

> <VdW6>
-3.745

> <VdW12>
4.235

> <Bond>
0.068

> <Angle>
3.901

> <Pdih>
10.737

> <Idih>
0.000

> <Tether>
0.000

$$$$
VeraChem MOL file


 16 16  0  0  0  0  0  0  0  0999 V2000     
   20.3452   19.3536   23.0214 C   0  0  0  0  0  0  0  0  0  0  0  0
   19.8668   19.6176   23.9749 H   0  0  0  0  0  0  0  0  0  0  0  0
   21.3696   19.7500   23.0290 H   0  0  0  0  0  0  0  0  0  0  0  0
   19.5114   19.9063   21.8574 C   0  0  0  0  0  0  0  0  0  0  0  0
   19.1109   20.9073   22.0684 H   0  0  0  0  0  0  0  0  0  0  0  0
   20.1337   19.9687   20.9538 H   0  0  0  0  0  0  0  0  0  0  0  0
   18.3992   18.8614   21.6528 C   0  0  0  0  0  0  0  0  0  0  0  0
   18.0639   18.8318   20.6080 H   0  0  0  0  0  0  0  0  0  0  0  0
   17.5345   19.1243   22.2772 H   0  0  0  0  0  0  0  0  0  0  0  0
   18.9882   17.5064   22.0982 C   0  0  0  0  0  0  0  0  0  0  0  0
   19.2034   16.8821   21.2187 H   0  0  0  0  0  0  0  0  0  0  0  0
   20.3075   17.8260   22.8311 C   0  0  0  0  0  0  0  0  0  0  0  0
   20.3904   17.2970   23.7900 H   0  0  0  0  0  0  0  0  0  0  0  0
   21.1512   17.5121   22.2028 H   0  0  0  0  0  0  0  0  0  0  0  0
   18.0866   16.8443   22.9772 O   0  0  0  0  0  0  0  0  0  0  0  0
   17.2671   16.6767   22.4655 H   0  0  0  0  0  0  0  0  0  0  0  0
  1  2  1  0  0  0  0
  1  3  1  0  0  0  0
  1  4  1  0  0  0  0
  4  5  1  0  0  0  0
  4  6  1  0  0  0  0
  4  7  1  0  0  0  0
  7  8  1  0  0  0  0
  7  9  1  0  0  0  0
  7 10  1  0  0  0  0
 10 11  1  0  0  0  0
  1 12  1  0  0  0  0
 10 12  1  0  0  0  0
 12 13  1  0  0  0  0
 12 14  1  0  0  0  0
 10 15  1  0  0  0  0
 15 16  1  0  0  0  0
M  END
> <VConfSearch Rank>
874

> <Conf_Id>
59

> <Delta U+W>
0.000

> <U+W>
3.010

> <U>
5.843

> <W>
-2.833

> <W(PB)>
-4.568

> <W(SA)>
1.735

> <Valence>
13.789

> <Coulomb>
-8.574

> <VdW>
0.628

> <VdW6>
-3.284

> <VdW12>
3.912

> <Bond>
0.054

> <Angle>
4.034

> <Pdih>
9.702

> <Idih>
0.000

> <Tether>
0.000

$$$$
VeraChem MOL file


 16 16  0  0  0  0  0  0  0  0999 V2000     
   18.6206   19.1996   21.2803 C   0  0  0  0  0  0  0  0  0  0  0  0
   17.6607   19.7267   21.1935 H   0  0  0  0  0  0  0  0  0  0  0  0
   19.1240   19.2395   20.3042 H   0  0  0  0  0  0  0  0  0  0  0  0
   18.4468   17.7370   21.7120 C   0  0  0  0  0  0  0  0  0  0  0  0
   17.6564   17.6689   22.4724 H   0  0  0  0  0  0  0  0  0  0  0  0
   18.1750   17.0815   20.8735 H   0  0  0  0  0  0  0  0  0  0  0  0
   19.8005   17.3572   22.3400 C   0  0  0  0  0  0  0  0  0  0  0  0
   20.4647   16.9512   21.5660 H   0  0  0  0  0  0  0  0  0  0  0  0
   19.6847   16.5896   23.1167 H   0  0  0  0  0  0  0  0  0  0  0  0
   20.4106   18.6620   22.8925 C   0  0  0  0  0  0  0  0  0  0  0  0
   21.4385   18.7700   22.5167 H   0  0  0  0  0  0  0  0  0  0  0  0
   19.5301   19.8126   22.3609 C   0  0  0  0  0  0  0  0  0  0  0  0
   18.9088   20.2213   23.1695 H   0  0  0  0  0  0  0  0  0  0  0  0
   20.1381   20.6318   21.9559 H   0  0  0  0  0  0  0  0  0  0  0  0
   20.3935   18.6476   24.3149 O   0  0  0  0  0  0  0  0  0  0  0  0
   20.7795   19.4995   24.6094 H   0  0  0  0  0  0  0  0  0  0  0  0
  1  2  1  0  0  0  0
  1  3  1  0  0  0  0
  1  4  1  0  0  0  0
  4  5  1  0  0  0  0
  4  6  1  0  0  0  0
  4  7  1  0  0  0  0
  7  8  1  0  0  0  0
  7  9  1  0  0  0  0
  7 10  1  0  0  0  0
 10 11  1  0  0  0  0
  1 12  1  0  0  0  0
 10 12  1  0  0  0  0
 12 13  1  0  0  0  0
 12 14  1  0  0  0  0
 10 15  1  0  0  0  0
 15 16  1  0  0  0  0
M  END
> <VConfSearch Rank>
875

> <Conf_Id>
33

> <Delta U+W>
0.015

> <U+W>
3.025

> <U>
5.843

> <W>
-2.819

> <W(PB)>
-4.568

> <W(SA)>
1.750

> <Valence>
13.789

> <Coulomb>
-8.574

> <VdW>
0.628

> <VdW6>
-3.284

> <VdW12>
3.913

> <Bond>
0.054

> <Angle>
4.033

> <Pdih>
9.702

> <Idih>
0.000

> <Tether>
0.000

$$$$
VeraChem MOL file


 16 16  0  0  0  0  0  0  0  0999 V2000     
   19.1611   19.6024   21.3901 C   0  0  0  0  0  0  0  0  0  0  0  0
   19.9881   19.7785   20.6885 H   0  0  0  0  0  0  0  0  0  0  0  0
   18.3606   20.3145   21.1471 H   0  0  0  0  0  0  0  0  0  0  0  0
   19.6572   19.7793   22.8419 C   0  0  0  0  0  0  0  0  0  0  0  0
   20.7240   20.0420   22.8429 H   0  0  0  0  0  0  0  0  0  0  0  0
   19.1154   20.5833   23.3587 H   0  0  0  0  0  0  0  0  0  0  0  0
   19.4414   18.4230   23.5464 C   0  0  0  0  0  0  0  0  0  0  0  0
   18.5026   18.4503   24.1152 H   0  0  0  0  0  0  0  0  0  0  0  0
   20.2511   18.1856   24.2493 H   0  0  0  0  0  0  0  0  0  0  0  0
   19.3169   17.3785   22.4290 C   0  0  0  0  0  0  0  0  0  0  0  0
   18.7043   16.5211   22.7431 H   0  0  0  0  0  0  0  0  0  0  0  0
   18.6630   18.1462   21.2723 C   0  0  0  0  0  0  0  0  0  0  0  0
   18.8971   17.7040   20.2947 H   0  0  0  0  0  0  0  0  0  0  0  0
   17.5726   18.1201   21.3983 H   0  0  0  0  0  0  0  0  0  0  0  0
   20.6148   16.9570   22.0361 O   0  0  0  0  0  0  0  0  0  0  0  0
   21.0816   17.7779   21.7764 H   0  0  0  0  0  0  0  0  0  0  0  0
  1  2  1  0  0  0  0
  1  3  1  0  0  0  0
  1  4  1  0  0  0  0
  4  5  1  0  0  0  0
  4  6  1  0  0  0  0
  4  7  1  0  0  0  0
  7  8  1  0  0  0  0
  7  9  1  0  0  0  0
  7 10  1  0  0  0  0
 10 11  1  0  0  0  0
  1 12  1  0  0  0  0
 10 12  1  0  0  0  0
 12 13  1  0  0  0  0
 12 14  1  0  0  0  0
 10 15  1  0  0  0  0
 15 16  1  0  0  0  0
M  END
> <VConfSearch Rank>
876

> <Conf_Id>
20

> <Delta U+W>
-0.483

> <U+W>
2.527

> <U>
4.508

> <W>
-1.981

> <W(PB)>
-3.712

> <W(SA)>
1.732

> <Valence>
14.705

> <Coulomb>
-10.687

> <VdW>
0.490

> <VdW6>
-3.745

> <VdW12>
4.235

> <Bond>
0.068

> <Angle>
3.901

> <Pdih>
10.737

> <Idih>
0.000

> <Tether>
0.000

$$$$
VeraChem MOL file


 16 16  0  0  0  0  0  0  0  0999 V2000     
   18.4299   18.5616   23.4331 C   0  0  0  0  0  0  0  0  0  0  0  0
   18.9946   18.9996   24.2679 H   0  0  0  0  0  0  0  0  0  0  0  0
   17.4035   18.3705   23.7747 H   0  0  0  0  0  0  0  0  0  0  0  0
   19.1337   17.2864   22.9491 C   0  0  0  0  0  0  0  0  0  0  0  0
   19.5330   16.6885   23.7797 H   0  0  0  0  0  0  0  0  0  0  0  0
   18.4241   16.6632   22.3872 H   0  0  0  0  0  0  0  0  0  0  0  0
   20.2408   17.7938   22.0072 C   0  0  0  0  0  0  0  0  0  0  0  0
   20.4719   17.0576   21.2265 H   0  0  0  0  0  0  0  0  0  0  0  0
   21.1575   17.9707   22.5861 H   0  0  0  0  0  0  0  0  0  0  0  0
   19.7256   19.1176   21.4039 C   0  0  0  0  0  0  0  0  0  0  0  0
   19.4372   18.9654   20.3535 H   0  0  0  0  0  0  0  0  0  0  0  0
   18.4790   19.5120   22.2225 C   0  0  0  0  0  0  0  0  0  0  0  0
   18.5016   20.5644   22.5354 H   0  0  0  0  0  0  0  0  0  0  0  0
   17.5839   19.3670   21.6038 H   0  0  0  0  0  0  0  0  0  0  0  0
   20.7225   20.1268   21.5112 O   0  0  0  0  0  0  0  0  0  0  0  0
   21.4907   19.8204   20.9844 H   0  0  0  0  0  0  0  0  0  0  0  0
  1  2  1  0  0  0  0
  1  3  1  0  0  0  0
  1  4  1  0  0  0  0
  4  5  1  0  0  0  0
  4  6  1  0  0  0  0
  4  7  1  0  0  0  0
  7  8  1  0  0  0  0
  7  9  1  0  0  0  0
  7 10  1  0  0  0  0
 10 11  1  0  0  0  0
  1 12  1  0  0  0  0
 10 12  1  0  0  0  0
 12 13  1  0  0  0  0
 12 14  1  0  0  0  0
 10 15  1  0  0  0  0
 15 16  1  0  0  0  0
M  END
> <VConfSearch Rank>
877

> <Conf_Id>
59

> <Delta U+W>
0.000

> <U+W>
3.010

> <U>
5.843

> <W>
-2.833

> <W(PB)>
-4.568

> <W(SA)>
1.735

> <Valence>
13.789

> <Coulomb>
-8.574

> <VdW>
0.628

> <VdW6>
-3.284

> <VdW12>
3.912

> <Bond>
0.054

> <Angle>
4.034

> <Pdih>
9.702

> <Idih>
0.000

> <Tether>
0.000

$$$$
VeraChem MOL file


 16 16  0  0  0  0  0  0  0  0999 V2000     
   19.3395   17.5304   23.2292 C   0  0  0  0  0  0  0  0  0  0  0  0
   19.9877   16.8817   23.8340 H   0  0  0  0  0  0  0  0  0  0  0  0
   18.2974   17.3486   23.5268 H   0  0  0  0  0  0  0  0  0  0  0  0
   19.4986   17.2750   21.7241 C   0  0  0  0  0  0  0  0  0  0  0  0
   20.5584   17.1027   21.4898 H   0  0  0  0  0  0  0  0  0  0  0  0
   18.9247   16.4024   21.3837 H   0  0  0  0  0  0  0  0  0  0  0  0
   19.0295   18.5825   21.0597 C   0  0  0  0  0  0  0  0  0  0  0  0
   17.9516   18.5278   20.8592 H   0  0  0  0  0  0  0  0  0  0  0  0
   19.5388   18.7548   20.1022 H   0  0  0  0  0  0  0  0  0  0  0  0
   19.2954   19.7122   22.0760 C   0  0  0  0  0  0  0  0  0  0  0  0
   18.3779   20.3036   22.2102 H   0  0  0  0  0  0  0  0  0  0  0  0
   19.6780   19.0224   23.4025 C   0  0  0  0  0  0  0  0  0  0  0  0
   20.7547   19.1311   23.5914 H   0  0  0  0  0  0  0  0  0  0  0  0
   19.1405   19.4593   24.2540 H   0  0  0  0  0  0  0  0  0  0  0  0
   20.3640   20.5361   21.6252 O   0  0  0  0  0  0  0  0  0  0  0  0
   20.4960   21.2253   22.3101 H   0  0  0  0  0  0  0  0  0  0  0  0
  1  2  1  0  0  0  0
  1  3  1  0  0  0  0
  1  4  1  0  0  0  0
  4  5  1  0  0  0  0
  4  6  1  0  0  0  0
  4  7  1  0  0  0  0
  7  8  1  0  0  0  0
  7  9  1  0  0  0  0
  7 10  1  0  0  0  0
 10 11  1  0  0  0  0
  1 12  1  0  0  0  0
 10 12  1  0  0  0  0
 12 13  1  0  0  0  0
 12 14  1  0  0  0  0
 10 15  1  0  0  0  0
 15 16  1  0  0  0  0
M  END
> <VConfSearch Rank>
878

> <Conf_Id>
33

> <Delta U+W>
0.015

> <U+W>
3.025

> <U>
5.843

> <W>
-2.819

> <W(PB)>
-4.568

> <W(SA)>
1.750

> <Valence>
13.789

> <Coulomb>
-8.574

> <VdW>
0.628

> <VdW6>
-3.284

> <VdW12>
3.913

> <Bond>
0.054

> <Angle>
4.033

> <Pdih>
9.702

> <Idih>
0.000

> <Tether>
0.000

$$$$
VeraChem MOL file


 16 16  0  0  0  0  0  0  0  0999 V2000     
   18.9700   19.6449   21.5180 C   0  0  0  0  0  0  0  0  0  0  0  0
   18.3620   20.3794   22.0640 H   0  0  0  0  0  0  0  0  0  0  0  0
   19.0796   20.0044   20.4857 H   0  0  0  0  0  0  0  0  0  0  0  0
   18.2896   18.2594   21.5675 C   0  0  0  0  0  0  0  0  0  0  0  0
   17.3519   18.3236   22.1365 H   0  0  0  0  0  0  0  0  0  0  0  0
   18.0443   17.8937   20.5610 H   0  0  0  0  0  0  0  0  0  0  0  0
   19.2796   17.3107   22.2764 C   0  0  0  0  0  0  0  0  0  0  0  0
   19.8450   16.7430   21.5257 H   0  0  0  0  0  0  0  0  0  0  0  0
   18.7698   16.5882   22.9276 H   0  0  0  0  0  0  0  0  0  0  0  0
   20.2486   18.2114   23.0540 C   0  0  0  0  0  0  0  0  0  0  0  0
   21.2306   17.7336   23.1823 H   0  0  0  0  0  0  0  0  0  0  0  0
   20.3460   19.4812   22.1977 C   0  0  0  0  0  0  0  0  0  0  0  0
   20.6248   20.3624   22.7907 H   0  0  0  0  0  0  0  0  0  0  0  0
   21.1188   19.3360   21.4314 H   0  0  0  0  0  0  0  0  0  0  0  0
   19.6761   18.5383   24.3118 O   0  0  0  0  0  0  0  0  0  0  0  0
   18.8150   18.9537   24.0996 H   0  0  0  0  0  0  0  0  0  0  0  0
  1  2  1  0  0  0  0
  1  3  1  0  0  0  0
  1  4  1  0  0  0  0
  4  5  1  0  0  0  0
  4  6  1  0  0  0  0
  4  7  1  0  0  0  0
  7  8  1  0  0  0  0
  7  9  1  0  0  0  0
  7 10  1  0  0  0  0
 10 11  1  0  0  0  0
  1 12  1  0  0  0  0
 10 12  1  0  0  0  0
 12 13  1  0  0  0  0
 12 14  1  0  0  0  0
 10 15  1  0  0  0  0
 15 16  1  0  0  0  0
M  END
> <VConfSearch Rank>
879

> <Conf_Id>
20

> <Delta U+W>
-0.483

> <U+W>
2.527

> <U>
4.508

> <W>
-1.981

> <W(PB)>
-3.712

> <W(SA)>
1.732

> <Valence>
14.705

> <Coulomb>
-10.687

> <VdW>
0.490

> <VdW6>
-3.745

> <VdW12>
4.235

> <Bond>
0.068

> <Angle>
3.901

> <Pdih>
10.737

> <Idih>
0.000

> <Tether>
0.000

$$$$
VeraChem MOL file


 16 16  0  0  0  0  0  0  0  0999 V2000     
   20.3373   19.5353   22.7526 C   0  0  0  0  0  0  0  0  0  0  0  0
   20.2957   19.5075   23.8504 H   0  0  0  0  0  0  0  0  0  0  0  0
   21.1272   20.2386   22.4559 H   0  0  0  0  0  0  0  0  0  0  0  0
   18.9623   19.9289   22.1955 C   0  0  0  0  0  0  0  0  0  0  0  0
   18.4765   20.7105   22.7953 H   0  0  0  0  0  0  0  0  0  0  0  0
   19.0730   20.3030   21.1682 H   0  0  0  0  0  0  0  0  0  0  0  0
   18.1615   18.6139   22.1875 C   0  0  0  0  0  0  0  0  0  0  0  0
   17.4071   18.6085   21.3902 H   0  0  0  0  0  0  0  0  0  0  0  0
   17.6390   18.5009   23.1472 H   0  0  0  0  0  0  0  0  0  0  0  0
   19.1908   17.4790   22.0023 C   0  0  0  0  0  0  0  0  0  0  0  0
   19.1251   17.0742   20.9818 H   0  0  0  0  0  0  0  0  0  0  0  0
   20.5808   18.1150   22.2097 C   0  0  0  0  0  0  0  0  0  0  0  0
   21.2118   17.5255   22.8882 H   0  0  0  0  0  0  0  0  0  0  0  0
   21.0956   18.1737   21.2419 H   0  0  0  0  0  0  0  0  0  0  0  0
   18.9711   16.4550   22.9651 O   0  0  0  0  0  0  0  0  0  0  0  0
   18.0747   16.0960   22.7944 H   0  0  0  0  0  0  0  0  0  0  0  0
  1  2  1  0  0  0  0
  1  3  1  0  0  0  0
  1  4  1  0  0  0  0
  4  5  1  0  0  0  0
  4  6  1  0  0  0  0
  4  7  1  0  0  0  0
  7  8  1  0  0  0  0
  7  9  1  0  0  0  0
  7 10  1  0  0  0  0
 10 11  1  0  0  0  0
  1 12  1  0  0  0  0
 10 12  1  0  0  0  0
 12 13  1  0  0  0  0
 12 14  1  0  0  0  0
 10 15  1  0  0  0  0
 15 16  1  0  0  0  0
M  END
> <VConfSearch Rank>
880

> <Conf_Id>
59

> <Delta U+W>
0.000

> <U+W>
3.010

> <U>
5.843

> <W>
-2.833

> <W(PB)>
-4.568

> <W(SA)>
1.735

> <Valence>
13.789

> <Coulomb>
-8.574

> <VdW>
0.628

> <VdW6>
-3.284

> <VdW12>
3.912

> <Bond>
0.054

> <Angle>
4.034

> <Pdih>
9.702

> <Idih>
0.000

> <Tether>
0.000

$$$$
VeraChem MOL file


 16 16  0  0  0  0  0  0  0  0999 V2000     
   18.5695   17.4813   22.3449 C   0  0  0  0  0  0  0  0  0  0  0  0
   18.4523   16.5416   22.9015 H   0  0  0  0  0  0  0  0  0  0  0  0
   17.6749   17.6264   21.7235 H   0  0  0  0  0  0  0  0  0  0  0  0
   19.8210   17.4816   21.4563 C   0  0  0  0  0  0  0  0  0  0  0  0
   20.6501   16.9940   21.9878 H   0  0  0  0  0  0  0  0  0  0  0  0
   19.6617   16.9520   20.5072 H   0  0  0  0  0  0  0  0  0  0  0  0
   20.1465   18.9724   21.2499 C   0  0  0  0  0  0  0  0  0  0  0  0
   19.6272   19.3426   20.3564 H   0  0  0  0  0  0  0  0  0  0  0  0
   21.2225   19.1346   21.1018 H   0  0  0  0  0  0  0  0  0  0  0  0
   19.6074   19.7161   22.4893 C   0  0  0  0  0  0  0  0  0  0  0  0
   18.9769   20.5561   22.1632 H   0  0  0  0  0  0  0  0  0  0  0  0
   18.7598   18.6934   23.2751 C   0  0  0  0  0  0  0  0  0  0  0  0
   19.2915   18.3753   24.1822 H   0  0  0  0  0  0  0  0  0  0  0  0
   17.7955   19.1192   23.5814 H   0  0  0  0  0  0  0  0  0  0  0  0
   20.6870   20.1787   23.2919 O   0  0  0  0  0  0  0  0  0  0  0  0
   20.2888   20.6305   24.0657 H   0  0  0  0  0  0  0  0  0  0  0  0
  1  2  1  0  0  0  0
  1  3  1  0  0  0  0
  1  4  1  0  0  0  0
  4  5  1  0  0  0  0
  4  6  1  0  0  0  0
  4  7  1  0  0  0  0
  7  8  1  0  0  0  0
  7  9  1  0  0  0  0
  7 10  1  0  0  0  0
 10 11  1  0  0  0  0
  1 12  1  0  0  0  0
 10 12  1  0  0  0  0
 12 13  1  0  0  0  0
 12 14  1  0  0  0  0
 10 15  1  0  0  0  0
 15 16  1  0  0  0  0
M  END
> <VConfSearch Rank>
881

> <Conf_Id>
33

> <Delta U+W>
0.015

> <U+W>
3.025

> <U>
5.843

> <W>
-2.819

> <W(PB)>
-4.568

> <W(SA)>
1.750

> <Valence>
13.789

> <Coulomb>
-8.574

> <VdW>
0.628

> <VdW6>
-3.284

> <VdW12>
3.913

> <Bond>
0.054

> <Angle>
4.033

> <Pdih>
9.702

> <Idih>
0.000

> <Tether>
0.000

$$$$
VeraChem MOL file


 16 16  0  0  0  0  0  0  0  0999 V2000     
   19.7833   19.6298   21.4956 C   0  0  0  0  0  0  0  0  0  0  0  0
   19.6020   19.4905   20.4209 H   0  0  0  0  0  0  0  0  0  0  0  0
   20.2484   20.6159   21.6301 H   0  0  0  0  0  0  0  0  0  0  0  0
   20.6893   18.4974   22.0265 C   0  0  0  0  0  0  0  0  0  0  0  0
   20.9473   17.8107   21.2085 H   0  0  0  0  0  0  0  0  0  0  0  0
   21.6280   18.8913   22.4396 H   0  0  0  0  0  0  0  0  0  0  0  0
   19.8750   17.7561   23.1081 C   0  0  0  0  0  0  0  0  0  0  0  0
   20.1603   18.1277   24.1011 H   0  0  0  0  0  0  0  0  0  0  0  0
   20.0527   16.6725   23.0932 H   0  0  0  0  0  0  0  0  0  0  0  0
   18.4040   18.1076   22.8482 C   0  0  0  0  0  0  0  0  0  0  0  0
   17.8082   18.0634   23.7713 H   0  0  0  0  0  0  0  0  0  0  0  0
   18.4560   19.5310   22.2772 C   0  0  0  0  0  0  0  0  0  0  0  0
   17.5848   19.7592   21.6488 H   0  0  0  0  0  0  0  0  0  0  0  0
   18.4655   20.2484   23.1084 H   0  0  0  0  0  0  0  0  0  0  0  0
   17.8797   17.2279   21.8643 O   0  0  0  0  0  0  0  0  0  0  0  0
   18.4674   17.3344   21.0882 H   0  0  0  0  0  0  0  0  0  0  0  0
  1  2  1  0  0  0  0
  1  3  1  0  0  0  0
  1  4  1  0  0  0  0
  4  5  1  0  0  0  0
  4  6  1  0  0  0  0
  4  7  1  0  0  0  0
  7  8  1  0  0  0  0
  7  9  1  0  0  0  0
  7 10  1  0  0  0  0
 10 11  1  0  0  0  0
  1 12  1  0  0  0  0
 10 12  1  0  0  0  0
 12 13  1  0  0  0  0
 12 14  1  0  0  0  0
 10 15  1  0  0  0  0
 15 16  1  0  0  0  0
M  END
> <VConfSearch Rank>
882

> <Conf_Id>
20

> <Delta U+W>
-0.483

> <U+W>
2.527

> <U>
4.508

> <W>
-1.981

> <W(PB)>
-3.712

> <W(SA)>
1.732

> <Valence>
14.705

> <Coulomb>
-10.687

> <VdW>
0.490

> <VdW6>
-3.745

> <VdW12>
4.235

> <Bond>
0.068

> <Angle>
3.901

> <Pdih>
10.737

> <Idih>
0.000

> <Tether>
0.000

$$$$
VeraChem MOL file


 16 16  0  0  0  0  0  0  0  0999 V2000     
   18.4467   17.4758   21.9675 C   0  0  0  0  0  0  0  0  0  0  0  0
   18.0491   17.7462   20.9793 H   0  0  0  0  0  0  0  0  0  0  0  0
   18.0386   16.4946   22.2458 H   0  0  0  0  0  0  0  0  0  0  0  0
   18.0881   18.5693   22.9830 C   0  0  0  0  0  0  0  0  0  0  0  0
   17.0728   18.9614   22.8340 H   0  0  0  0  0  0  0  0  0  0  0  0
   18.1534   18.1632   24.0021 H   0  0  0  0  0  0  0  0  0  0  0  0
   19.1681   19.6480   22.7819 C   0  0  0  0  0  0  0  0  0  0  0  0
   19.3598   20.2016   23.7101 H   0  0  0  0  0  0  0  0  0  0  0  0
   18.8269   20.3669   22.0245 H   0  0  0  0  0  0  0  0  0  0  0  0
   20.4317   18.9116   22.2892 C   0  0  0  0  0  0  0  0  0  0  0  0
   21.1782   18.8643   23.0955 H   0  0  0  0  0  0  0  0  0  0  0  0
   19.9859   17.4809   21.9231 C   0  0  0  0  0  0  0  0  0  0  0  0
   20.3630   17.1652   20.9412 H   0  0  0  0  0  0  0  0  0  0  0  0
   20.3784   16.7809   22.6721 H   0  0  0  0  0  0  0  0  0  0  0  0
   20.9670   19.5666   21.1454 O   0  0  0  0  0  0  0  0  0  0  0  0
   21.2219   20.4691   21.4317 H   0  0  0  0  0  0  0  0  0  0  0  0
  1  2  1  0  0  0  0
  1  3  1  0  0  0  0
  1  4  1  0  0  0  0
  4  5  1  0  0  0  0
  4  6  1  0  0  0  0
  4  7  1  0  0  0  0
  7  8  1  0  0  0  0
  7  9  1  0  0  0  0
  7 10  1  0  0  0  0
 10 11  1  0  0  0  0
  1 12  1  0  0  0  0
 10 12  1  0  0  0  0
 12 13  1  0  0  0  0
 12 14  1  0  0  0  0
 10 15  1  0  0  0  0
 15 16  1  0  0  0  0
M  END
> <VConfSearch Rank>
883

> <Conf_Id>
59

> <Delta U+W>
0.000

> <U+W>
3.010

> <U>
5.843

> <W>
-2.833

> <W(PB)>
-4.568

> <W(SA)>
1.735

> <Valence>
13.789

> <Coulomb>
-8.574

> <VdW>
0.628

> <VdW6>
-3.284

> <VdW12>
3.912

> <Bond>
0.054

> <Angle>
4.034

> <Pdih>
9.702

> <Idih>
0.000

> <Tether>
0.000

$$$$
VeraChem MOL file


 16 16  0  0  0  0  0  0  0  0999 V2000     
   18.2461   19.3908   22.2793 C   0  0  0  0  0  0  0  0  0  0  0  0
   17.9153   20.4097   22.0361 H   0  0  0  0  0  0  0  0  0  0  0  0
   17.3548   18.7748   22.4631 H   0  0  0  0  0  0  0  0  0  0  0  0
   19.1629   19.3526   23.5097 C   0  0  0  0  0  0  0  0  0  0  0  0
   19.8454   20.2136   23.4873 H   0  0  0  0  0  0  0  0  0  0  0  0
   18.6007   19.3835   24.4529 H   0  0  0  0  0  0  0  0  0  0  0  0
   19.9695   18.0508   23.3487 C   0  0  0  0  0  0  0  0  0  0  0  0
   19.4368   17.2245   23.8372 H   0  0  0  0  0  0  0  0  0  0  0  0
   20.9613   18.1296   23.8136 H   0  0  0  0  0  0  0  0  0  0  0  0
   20.0533   17.7697   21.8342 C   0  0  0  0  0  0  0  0  0  0  0  0
   19.7295   16.7372   21.6379 H   0  0  0  0  0  0  0  0  0  0  0  0
   19.0892   18.7642   21.1536 C   0  0  0  0  0  0  0  0  0  0  0  0
   19.6559   19.5539   20.6416 H   0  0  0  0  0  0  0  0  0  0  0  0
   18.4561   18.2662   20.4080 H   0  0  0  0  0  0  0  0  0  0  0  0
   21.3817   17.9777   21.3695 O   0  0  0  0  0  0  0  0  0  0  0  0
   21.3741   17.7971   20.4057 H   0  0  0  0  0  0  0  0  0  0  0  0
  1  2  1  0  0  0  0
  1  3  1  0  0  0  0
  1  4  1  0  0  0  0
  4  5  1  0  0  0  0
  4  6  1  0  0  0  0
  4  7  1  0  0  0  0
  7  8  1  0  0  0  0
  7  9  1  0  0  0  0
  7 10  1  0  0  0  0
 10 11  1  0  0  0  0
  1 12  1  0  0  0  0
 10 12  1  0  0  0  0
 12 13  1  0  0  0  0
 12 14  1  0  0  0  0
 10 15  1  0  0  0  0
 15 16  1  0  0  0  0
M  END
> <VConfSearch Rank>
884

> <Conf_Id>
33

> <Delta U+W>
0.015

> <U+W>
3.025

> <U>
5.843

> <W>
-2.819

> <W(PB)>
-4.568

> <W(SA)>
1.750

> <Valence>
13.789

> <Coulomb>
-8.574

> <VdW>
0.628

> <VdW6>
-3.284

> <VdW12>
3.913

> <Bond>
0.054

> <Angle>
4.033

> <Pdih>
9.702

> <Idih>
0.000

> <Tether>
0.000

$$$$
VeraChem MOL file


 16 16  0  0  0  0  0  0  0  0999 V2000     
   19.2192   19.5389   21.3109 C   0  0  0  0  0  0  0  0  0  0  0  0
   18.3650   19.3617   20.6429 H   0  0  0  0  0  0  0  0  0  0  0  0
   19.6986   20.4764   20.9974 H   0  0  0  0  0  0  0  0  0  0  0  0
   20.1993   18.3477   21.2373 C   0  0  0  0  0  0  0  0  0  0  0  0
   19.8200   17.5945   20.5330 H   0  0  0  0  0  0  0  0  0  0  0  0
   21.1917   18.6623   20.8864 H   0  0  0  0  0  0  0  0  0  0  0  0
   20.2762   17.7556   22.6607 C   0  0  0  0  0  0  0  0  0  0  0  0
   21.1640   18.1482   23.1738 H   0  0  0  0  0  0  0  0  0  0  0  0
   20.3523   16.6601   22.6523 H   0  0  0  0  0  0  0  0  0  0  0  0
   19.0199   18.2455   23.3933 C   0  0  0  0  0  0  0  0  0  0  0  0
   19.1851   18.3141   24.4782 H   0  0  0  0  0  0  0  0  0  0  0  0
   18.7416   19.6227   22.7762 C   0  0  0  0  0  0  0  0  0  0  0  0
   17.6837   19.9071   22.8536 H   0  0  0  0  0  0  0  0  0  0  0  0
   19.3309   20.3789   23.3114 H   0  0  0  0  0  0  0  0  0  0  0  0
   17.9377   17.3741   23.0997 O   0  0  0  0  0  0  0  0  0  0  0  0
   17.8666   17.3761   22.1229 H   0  0  0  0  0  0  0  0  0  0  0  0
  1  2  1  0  0  0  0
  1  3  1  0  0  0  0
  1  4  1  0  0  0  0
  4  5  1  0  0  0  0
  4  6  1  0  0  0  0
  4  7  1  0  0  0  0
  7  8  1  0  0  0  0
  7  9  1  0  0  0  0
  7 10  1  0  0  0  0
 10 11  1  0  0  0  0
  1 12  1  0  0  0  0
 10 12  1  0  0  0  0
 12 13  1  0  0  0  0
 12 14  1  0  0  0  0
 10 15  1  0  0  0  0
 15 16  1  0  0  0  0
M  END
> <VConfSearch Rank>
885

> <Conf_Id>
20

> <Delta U+W>
-0.483

> <U+W>
2.527

> <U>
4.508

> <W>
-1.981

> <W(PB)>
-3.712

> <W(SA)>
1.732

> <Valence>
14.705

> <Coulomb>
-10.687

> <VdW>
0.490

> <VdW6>
-3.745

> <VdW12>
4.235

> <Bond>
0.068

> <Angle>
3.901

> <Pdih>
10.737

> <Idih>
0.000

> <Tether>
0.000

$$$$
VeraChem MOL file


 16 16  0  0  0  0  0  0  0  0999 V2000     
   18.7158   17.2945   21.9755 C   0  0  0  0  0  0  0  0  0  0  0  0
   17.9031   17.1842   22.7070 H   0  0  0  0  0  0  0  0  0  0  0  0
   18.6650   16.4502   21.2747 H   0  0  0  0  0  0  0  0  0  0  0  0
   20.0619   17.3670   22.7093 C   0  0  0  0  0  0  0  0  0  0  0  0
   20.1127   16.6727   23.5590 H   0  0  0  0  0  0  0  0  0  0  0  0
   20.8759   17.1191   22.0138 H   0  0  0  0  0  0  0  0  0  0  0  0
   20.1809   18.8384   23.1470 C   0  0  0  0  0  0  0  0  0  0  0  0
   21.2300   19.1555   23.2070 H   0  0  0  0  0  0  0  0  0  0  0  0
   19.7347   18.9581   24.1437 H   0  0  0  0  0  0  0  0  0  0  0  0
   19.3967   19.6662   22.1071 C   0  0  0  0  0  0  0  0  0  0  0  0
   20.0953   20.2074   21.4525 H   0  0  0  0  0  0  0  0  0  0  0  0
   18.5898   18.6554   21.2662 C   0  0  0  0  0  0  0  0  0  0  0  0
   17.5396   18.9547   21.1494 H   0  0  0  0  0  0  0  0  0  0  0  0
   19.0317   18.5906   20.2634 H   0  0  0  0  0  0  0  0  0  0  0  0
   18.5170   20.5718   22.7628 O   0  0  0  0  0  0  0  0  0  0  0  0
   19.0793   21.1798   23.2878 H   0  0  0  0  0  0  0  0  0  0  0  0
  1  2  1  0  0  0  0
  1  3  1  0  0  0  0
  1  4  1  0  0  0  0
  4  5  1  0  0  0  0
  4  6  1  0  0  0  0
  4  7  1  0  0  0  0
  7  8  1  0  0  0  0
  7  9  1  0  0  0  0
  7 10  1  0  0  0  0
 10 11  1  0  0  0  0
  1 12  1  0  0  0  0
 10 12  1  0  0  0  0
 12 13  1  0  0  0  0
 12 14  1  0  0  0  0
 10 15  1  0  0  0  0
 15 16  1  0  0  0  0
M  END
> <VConfSearch Rank>
886

> <Conf_Id>
59

> <Delta U+W>
0.000

> <U+W>
3.010

> <U>
5.843

> <W>
-2.833

> <W(PB)>
-4.568

> <W(SA)>
1.735

> <Valence>
13.789

> <Coulomb>
-8.574

> <VdW>
0.628

> <VdW6>
-3.284

> <VdW12>
3.912

> <Bond>
0.054

> <Angle>
4.034

> <Pdih>
9.702

> <Idih>
0.000

> <Tether>
0.000

$$$$
VeraChem MOL file


 16 16  0  0  0  0  0  0  0  0999 V2000     
   18.4977   17.5466   22.4115 C   0  0  0  0  0  0  0  0  0  0  0  0
   18.2685   16.5781   21.9464 H   0  0  0  0  0  0  0  0  0  0  0  0
   17.8574   17.6626   23.2970 H   0  0  0  0  0  0  0  0  0  0  0  0
   18.2707   18.7232   21.4524 C   0  0  0  0  0  0  0  0  0  0  0  0
   18.6120   18.4480   20.4447 H   0  0  0  0  0  0  0  0  0  0  0  0
   17.2137   19.0156   21.3899 H   0  0  0  0  0  0  0  0  0  0  0  0
   19.1604   19.8504   22.0082 C   0  0  0  0  0  0  0  0  0  0  0  0
   18.5886   20.4498   22.7286 H   0  0  0  0  0  0  0  0  0  0  0  0
   19.5042   20.5240   21.2120 H   0  0  0  0  0  0  0  0  0  0  0  0
   20.3317   19.1650   22.7418 C   0  0  0  0  0  0  0  0  0  0  0  0
   20.4208   19.5838   23.7548 H   0  0  0  0  0  0  0  0  0  0  0  0
   19.9776   17.6649   22.8196 C   0  0  0  0  0  0  0  0  0  0  0  0
   20.5956   17.0909   22.1158 H   0  0  0  0  0  0  0  0  0  0  0  0
   20.1496   17.2615   23.8259 H   0  0  0  0  0  0  0  0  0  0  0  0
   21.5402   19.3470   22.0136 O   0  0  0  0  0  0  0  0  0  0  0  0
   22.2438   18.8845   22.5163 H   0  0  0  0  0  0  0  0  0  0  0  0
  1  2  1  0  0  0  0
  1  3  1  0  0  0  0
  1  4  1  0  0  0  0
  4  5  1  0  0  0  0
  4  6  1  0  0  0  0
  4  7  1  0  0  0  0
  7  8  1  0  0  0  0
  7  9  1  0  0  0  0
  7 10  1  0  0  0  0
 10 11  1  0  0  0  0
  1 12  1  0  0  0  0
 10 12  1  0  0  0  0
 12 13  1  0  0  0  0
 12 14  1  0  0  0  0
 10 15  1  0  0  0  0
 15 16  1  0  0  0  0
M  END
> <VConfSearch Rank>
887

> <Conf_Id>
33

> <Delta U+W>
0.015

> <U+W>
3.025

> <U>
5.843

> <W>
-2.819

> <W(PB)>
-4.568

> <W(SA)>
1.750

> <Valence>
13.789

> <Coulomb>
-8.574

> <VdW>
0.628

> <VdW6>
-3.284

> <VdW12>
3.913

> <Bond>
0.054

> <Angle>
4.033

> <Pdih>
9.702

> <Idih>
0.000

> <Tether>
0.000

$$$$
VeraChem MOL file


 16 16  0  0  0  0  0  0  0  0999 V2000     
   20.1791   19.6795   22.2441 C   0  0  0  0  0  0  0  0  0  0  0  0
   20.0980   20.3169   23.1353 H   0  0  0  0  0  0  0  0  0  0  0  0
   20.9399   20.1216   21.5862 H   0  0  0  0  0  0  0  0  0  0  0  0
   18.8075   19.5825   21.5410 C   0  0  0  0  0  0  0  0  0  0  0  0
   18.0628   20.1738   22.0914 H   0  0  0  0  0  0  0  0  0  0  0  0
   18.8510   19.9730   20.5151 H   0  0  0  0  0  0  0  0  0  0  0  0
   18.4155   18.0896   21.5503 C   0  0  0  0  0  0  0  0  0  0  0  0
   18.6764   17.6358   20.5851 H   0  0  0  0  0  0  0  0  0  0  0  0
   17.3387   17.9430   21.7083 H   0  0  0  0  0  0  0  0  0  0  0  0
   19.2592   17.4354   22.6527 C   0  0  0  0  0  0  0  0  0  0  0  0
   19.4404   16.3709   22.4456 H   0  0  0  0  0  0  0  0  0  0  0  0
   20.5651   18.2414   22.6507 C   0  0  0  0  0  0  0  0  0  0  0  0
   21.0770   18.2065   23.6216 H   0  0  0  0  0  0  0  0  0  0  0  0
   21.2445   17.8176   21.8994 H   0  0  0  0  0  0  0  0  0  0  0  0
   18.6073   17.6044   23.9030 O   0  0  0  0  0  0  0  0  0  0  0  0
   18.4893   18.5718   24.0001 H   0  0  0  0  0  0  0  0  0  0  0  0
  1  2  1  0  0  0  0
  1  3  1  0  0  0  0
  1  4  1  0  0  0  0
  4  5  1  0  0  0  0
  4  6  1  0  0  0  0
  4  7  1  0  0  0  0
  7  8  1  0  0  0  0
  7  9  1  0  0  0  0
  7 10  1  0  0  0  0
 10 11  1  0  0  0  0
  1 12  1  0  0  0  0
 10 12  1  0  0  0  0
 12 13  1  0  0  0  0
 12 14  1  0  0  0  0
 10 15  1  0  0  0  0
 15 16  1  0  0  0  0
M  END
> <VConfSearch Rank>
888

> <Conf_Id>
20

> <Delta U+W>
-0.483

> <U+W>
2.527

> <U>
4.508

> <W>
-1.981

> <W(PB)>
-3.712

> <W(SA)>
1.732

> <Valence>
14.705

> <Coulomb>
-10.687

> <VdW>
0.490

> <VdW6>
-3.745

> <VdW12>
4.235

> <Bond>
0.068

> <Angle>
3.901

> <Pdih>
10.737

> <Idih>
0.000

> <Tether>
0.000

$$$$
VeraChem MOL file


 16 16  0  0  0  0  0  0  0  0999 V2000     
   20.7250   18.7574   22.7658 C   0  0  0  0  0  0  0  0  0  0  0  0
   20.6639   19.5747   23.4978 H   0  0  0  0  0  0  0  0  0  0  0  0
   21.7654   18.4070   22.7272 H   0  0  0  0  0  0  0  0  0  0  0  0
   20.2213   19.2496   21.4021 C   0  0  0  0  0  0  0  0  0  0  0  0
   20.5471   20.2752   21.1815 H   0  0  0  0  0  0  0  0  0  0  0  0
   20.5999   18.5906   20.6083 H   0  0  0  0  0  0  0  0  0  0  0  0
   18.6891   19.1283   21.4931 C   0  0  0  0  0  0  0  0  0  0  0  0
   18.2419   18.9454   20.5075 H   0  0  0  0  0  0  0  0  0  0  0  0
   18.2730   20.0671   21.8834 H   0  0  0  0  0  0  0  0  0  0  0  0
   18.4019   17.9690   22.4704 C   0  0  0  0  0  0  0  0  0  0  0  0
   18.0517   17.0866   21.9150 H   0  0  0  0  0  0  0  0  0  0  0  0
   19.7424   17.6388   23.1587 C   0  0  0  0  0  0  0  0  0  0  0  0
   19.6414   17.5540   24.2489 H   0  0  0  0  0  0  0  0  0  0  0  0
   20.1106   16.6757   22.7819 H   0  0  0  0  0  0  0  0  0  0  0  0
   17.4391   18.3696   23.4380 O   0  0  0  0  0  0  0  0  0  0  0  0
   16.6160   18.5766   22.9468 H   0  0  0  0  0  0  0  0  0  0  0  0
  1  2  1  0  0  0  0
  1  3  1  0  0  0  0
  1  4  1  0  0  0  0
  4  5  1  0  0  0  0
  4  6  1  0  0  0  0
  4  7  1  0  0  0  0
  7  8  1  0  0  0  0
  7  9  1  0  0  0  0
  7 10  1  0  0  0  0
 10 11  1  0  0  0  0
  1 12  1  0  0  0  0
 10 12  1  0  0  0  0
 12 13  1  0  0  0  0
 12 14  1  0  0  0  0
 10 15  1  0  0  0  0
 15 16  1  0  0  0  0
M  END
> <VConfSearch Rank>
889

> <Conf_Id>
59

> <Delta U+W>
0.000

> <U+W>
3.010

> <U>
5.843

> <W>
-2.833

> <W(PB)>
-4.568

> <W(SA)>
1.735

> <Valence>
13.789

> <Coulomb>
-8.574

> <VdW>
0.628

> <VdW6>
-3.284

> <VdW12>
3.912

> <Bond>
0.054

> <Angle>
4.034

> <Pdih>
9.702

> <Idih>
0.000

> <Tether>
0.000

$$$$
VeraChem MOL file


 16 16  0  0  0  0  0  0  0  0999 V2000     
   18.7045   19.8238   22.4765 C   0  0  0  0  0  0  0  0  0  0  0  0
   18.5278   20.7793   21.9642 H   0  0  0  0  0  0  0  0  0  0  0  0
   18.0105   19.7558   23.3259 H   0  0  0  0  0  0  0  0  0  0  0  0
   20.1488   19.6884   22.9779 C   0  0  0  0  0  0  0  0  0  0  0  0
   20.8388   20.1020   22.2293 H   0  0  0  0  0  0  0  0  0  0  0  0
   20.3146   20.2156   23.9272 H   0  0  0  0  0  0  0  0  0  0  0  0
   20.3727   18.1700   23.1021 C   0  0  0  0  0  0  0  0  0  0  0  0
   20.0916   17.8373   24.1098 H   0  0  0  0  0  0  0  0  0  0  0  0
   21.4260   17.9023   22.9439 H   0  0  0  0  0  0  0  0  0  0  0  0
   19.4378   17.5019   22.0728 C   0  0  0  0  0  0  0  0  0  0  0  0
   18.8456   16.7215   22.5726 H   0  0  0  0  0  0  0  0  0  0  0  0
   18.5073   18.6141   21.5446 C   0  0  0  0  0  0  0  0  0  0  0  0
   18.7915   18.8940   20.5210 H   0  0  0  0  0  0  0  0  0  0  0  0
   17.4593   18.2885   21.5265 H   0  0  0  0  0  0  0  0  0  0  0  0
   20.1986   16.9501   21.0048 O   0  0  0  0  0  0  0  0  0  0  0  0
   19.5572   16.5514   20.3793 H   0  0  0  0  0  0  0  0  0  0  0  0
  1  2  1  0  0  0  0
  1  3  1  0  0  0  0
  1  4  1  0  0  0  0
  4  5  1  0  0  0  0
  4  6  1  0  0  0  0
  4  7  1  0  0  0  0
  7  8  1  0  0  0  0
  7  9  1  0  0  0  0
  7 10  1  0  0  0  0
 10 11  1  0  0  0  0
  1 12  1  0  0  0  0
 10 12  1  0  0  0  0
 12 13  1  0  0  0  0
 12 14  1  0  0  0  0
 10 15  1  0  0  0  0
 15 16  1  0  0  0  0
M  END
> <VConfSearch Rank>
890

> <Conf_Id>
33

> <Delta U+W>
0.015

> <U+W>
3.025

> <U>
5.843

> <W>
-2.819

> <W(PB)>
-4.568

> <W(SA)>
1.750

> <Valence>
13.789

> <Coulomb>
-8.574

> <VdW>
0.628

> <VdW6>
-3.284

> <VdW12>
3.913

> <Bond>
0.054

> <Angle>
4.033

> <Pdih>
9.702

> <Idih>
0.000

> <Tether>
0.000

$$$$
VeraChem MOL file


 16 16  0  0  0  0  0  0  0  0999 V2000     
   19.6667   17.3466   22.5820 C   0  0  0  0  0  0  0  0  0  0  0  0
   20.2050   16.7914   21.8015 H   0  0  0  0  0  0  0  0  0  0  0  0
   19.5353   16.6728   23.4398 H   0  0  0  0  0  0  0  0  0  0  0  0
   18.3096   17.8400   22.0343 C   0  0  0  0  0  0  0  0  0  0  0  0
   18.1907   17.5228   20.9891 H   0  0  0  0  0  0  0  0  0  0  0  0
   17.4683   17.4252   22.6063 H   0  0  0  0  0  0  0  0  0  0  0  0
   18.3355   19.3807   22.1242 C   0  0  0  0  0  0  0  0  0  0  0  0
   17.8162   19.7038   23.0361 H   0  0  0  0  0  0  0  0  0  0  0  0
   17.8364   19.8560   21.2693 H   0  0  0  0  0  0  0  0  0  0  0  0
   19.8149   19.7758   22.2267 C   0  0  0  0  0  0  0  0  0  0  0  0
   19.9435   20.7264   22.7640 H   0  0  0  0  0  0  0  0  0  0  0  0
   20.4612   18.6075   22.9834 C   0  0  0  0  0  0  0  0  0  0  0  0
   21.5329   18.5118   22.7637 H   0  0  0  0  0  0  0  0  0  0  0  0
   20.3554   18.7797   24.0626 H   0  0  0  0  0  0  0  0  0  0  0  0
   20.3701   19.8522   20.9219 O   0  0  0  0  0  0  0  0  0  0  0  0
   20.2101   18.9713   20.5249 H   0  0  0  0  0  0  0  0  0  0  0  0
  1  2  1  0  0  0  0
  1  3  1  0  0  0  0
  1  4  1  0  0  0  0
  4  5  1  0  0  0  0
  4  6  1  0  0  0  0
  4  7  1  0  0  0  0
  7  8  1  0  0  0  0
  7  9  1  0  0  0  0
  7 10  1  0  0  0  0
 10 11  1  0  0  0  0
  1 12  1  0  0  0  0
 10 12  1  0  0  0  0
 12 13  1  0  0  0  0
 12 14  1  0  0  0  0
 10 15  1  0  0  0  0
 15 16  1  0  0  0  0
M  END
> <VConfSearch Rank>
891

> <Conf_Id>
20

> <Delta U+W>
-0.483

> <U+W>
2.527

> <U>
4.508

> <W>
-1.981

> <W(PB)>
-3.712

> <W(SA)>
1.732

> <Valence>
14.705

> <Coulomb>
-10.687

> <VdW>
0.490

> <VdW6>
-3.745

> <VdW12>
4.235

> <Bond>
0.068

> <Angle>
3.901

> <Pdih>
10.737

> <Idih>
0.000

> <Tether>
0.000

$$$$
VeraChem MOL file


 16 16  0  0  0  0  0  0  0  0999 V2000     
   19.6956   17.3221   21.6198 C   0  0  0  0  0  0  0  0  0  0  0  0
   18.8538   16.6442   21.8183 H   0  0  0  0  0  0  0  0  0  0  0  0
   20.3969   16.8117   20.9458 H   0  0  0  0  0  0  0  0  0  0  0  0
   20.3502   17.7315   22.9464 C   0  0  0  0  0  0  0  0  0  0  0  0
   20.4098   16.8968   23.6581 H   0  0  0  0  0  0  0  0  0  0  0  0
   21.3696   18.0963   22.7584 H   0  0  0  0  0  0  0  0  0  0  0  0
   19.4722   18.8840   23.4672 C   0  0  0  0  0  0  0  0  0  0  0  0
   20.0533   19.5861   24.0790 H   0  0  0  0  0  0  0  0  0  0  0  0
   18.6693   18.4740   24.0950 H   0  0  0  0  0  0  0  0  0  0  0  0
   18.8774   19.5747   22.2219 C   0  0  0  0  0  0  0  0  0  0  0  0
   19.3732   20.5421   22.0552 H   0  0  0  0  0  0  0  0  0  0  0  0
   19.1665   18.6416   21.0279 C   0  0  0  0  0  0  0  0  0  0  0  0
   18.2786   18.4770   20.4030 H   0  0  0  0  0  0  0  0  0  0  0  0
   19.9394   19.0980   20.3959 H   0  0  0  0  0  0  0  0  0  0  0  0
   17.4743   19.7486   22.3801 O   0  0  0  0  0  0  0  0  0  0  0  0
   17.3494   20.3371   23.1544 H   0  0  0  0  0  0  0  0  0  0  0  0
  1  2  1  0  0  0  0
  1  3  1  0  0  0  0
  1  4  1  0  0  0  0
  4  5  1  0  0  0  0
  4  6  1  0  0  0  0
  4  7  1  0  0  0  0
  7  8  1  0  0  0  0
  7  9  1  0  0  0  0
  7 10  1  0  0  0  0
 10 11  1  0  0  0  0
  1 12  1  0  0  0  0
 10 12  1  0  0  0  0
 12 13  1  0  0  0  0
 12 14  1  0  0  0  0
 10 15  1  0  0  0  0
 15 16  1  0  0  0  0
M  END
> <VConfSearch Rank>
892

> <Conf_Id>
59

> <Delta U+W>
0.000

> <U+W>
3.010

> <U>
5.843

> <W>
-2.833

> <W(PB)>
-4.568

> <W(SA)>
1.735

> <Valence>
13.789

> <Coulomb>
-8.574

> <VdW>
0.628

> <VdW6>
-3.284

> <VdW12>
3.912

> <Bond>
0.054

> <Angle>
4.034

> <Pdih>
9.702

> <Idih>
0.000

> <Tether>
0.000

$$$$
VeraChem MOL file


 16 16  0  0  0  0  0  0  0  0999 V2000     
   19.9513   18.5977   20.9466 C   0  0  0  0  0  0  0  0  0  0  0  0
   20.8678   18.8488   20.3956 H   0  0  0  0  0  0  0  0  0  0  0  0
   19.2648   18.0869   20.2570 H   0  0  0  0  0  0  0  0  0  0  0  0
   19.2645   19.8383   21.5340 C   0  0  0  0  0  0  0  0  0  0  0  0
   20.0244   20.5310   21.9217 H   0  0  0  0  0  0  0  0  0  0  0  0
   18.6581   20.3735   20.7908 H   0  0  0  0  0  0  0  0  0  0  0  0
   18.4193   19.2946   22.7007 C   0  0  0  0  0  0  0  0  0  0  0  0
   17.4181   19.0285   22.3376 H   0  0  0  0  0  0  0  0  0  0  0  0
   18.2983   20.0428   23.4954 H   0  0  0  0  0  0  0  0  0  0  0  0
   19.1285   18.0190   23.2006 C   0  0  0  0  0  0  0  0  0  0  0  0
   18.4029   17.1938   23.2455 H   0  0  0  0  0  0  0  0  0  0  0  0
   20.2283   17.6995   22.1661 C   0  0  0  0  0  0  0  0  0  0  0  0
   21.2185   17.9398   22.5768 H   0  0  0  0  0  0  0  0  0  0  0  0
   20.2264   16.6371   21.8904 H   0  0  0  0  0  0  0  0  0  0  0  0
   19.7089   18.2494   24.4788 O   0  0  0  0  0  0  0  0  0  0  0  0
   20.1526   17.4151   24.7407 H   0  0  0  0  0  0  0  0  0  0  0  0
  1  2  1  0  0  0  0
  1  3  1  0  0  0  0
  1  4  1  0  0  0  0
  4  5  1  0  0  0  0
  4  6  1  0  0  0  0
  4  7  1  0  0  0  0
  7  8  1  0  0  0  0
  7  9  1  0  0  0  0
  7 10  1  0  0  0  0
 10 11  1  0  0  0  0
  1 12  1  0  0  0  0
 10 12  1  0  0  0  0
 12 13  1  0  0  0  0
 12 14  1  0  0  0  0
 10 15  1  0  0  0  0
 15 16  1  0  0  0  0
M  END
> <VConfSearch Rank>
893

> <Conf_Id>
33

> <Delta U+W>
0.015

> <U+W>
3.025

> <U>
5.843

> <W>
-2.819

> <W(PB)>
-4.568

> <W(SA)>
1.750

> <Valence>
13.789

> <Coulomb>
-8.574

> <VdW>
0.628

> <VdW6>
-3.284

> <VdW12>
3.913

> <Bond>
0.054

> <Angle>
4.033

> <Pdih>
9.702

> <Idih>
0.000

> <Tether>
0.000

$$$$
VeraChem MOL file


 16 16  0  0  0  0  0  0  0  0999 V2000     
   18.3839   17.7385   22.4489 C   0  0  0  0  0  0  0  0  0  0  0  0
   17.3791   18.1793   22.3919 H   0  0  0  0  0  0  0  0  0  0  0  0
   18.2658   16.6626   22.6373 H   0  0  0  0  0  0  0  0  0  0  0  0
   19.1959   18.4253   23.5688 C   0  0  0  0  0  0  0  0  0  0  0  0
   18.5837   19.1976   24.0544 H   0  0  0  0  0  0  0  0  0  0  0  0
   19.5034   17.7084   24.3424 H   0  0  0  0  0  0  0  0  0  0  0  0
   20.4234   19.0677   22.8883 C   0  0  0  0  0  0  0  0  0  0  0  0
   21.2908   18.4026   22.9930 H   0  0  0  0  0  0  0  0  0  0  0  0
   20.6883   20.0351   23.3354 H   0  0  0  0  0  0  0  0  0  0  0  0
   20.0680   19.1926   21.4007 C   0  0  0  0  0  0  0  0  0  0  0  0
   20.9658   19.1656   20.7665 H   0  0  0  0  0  0  0  0  0  0  0  0
   19.1519   17.9907   21.1340 C   0  0  0  0  0  0  0  0  0  0  0  0
   18.4775   18.1620   20.2844 H   0  0  0  0  0  0  0  0  0  0  0  0
   19.7716   17.1156   20.8975 H   0  0  0  0  0  0  0  0  0  0  0  0
   19.3373   20.3926   21.1936 O   0  0  0  0  0  0  0  0  0  0  0  0
   18.5654   20.3276   21.7929 H   0  0  0  0  0  0  0  0  0  0  0  0
  1  2  1  0  0  0  0
  1  3  1  0  0  0  0
  1  4  1  0  0  0  0
  4  5  1  0  0  0  0
  4  6  1  0  0  0  0
  4  7  1  0  0  0  0
  7  8  1  0  0  0  0
  7  9  1  0  0  0  0
  7 10  1  0  0  0  0
 10 11  1  0  0  0  0
  1 12  1  0  0  0  0
 10 12  1  0  0  0  0
 12 13  1  0  0  0  0
 12 14  1  0  0  0  0
 10 15  1  0  0  0  0
 15 16  1  0  0  0  0
M  END
> <VConfSearch Rank>
894

> <Conf_Id>
20

> <Delta U+W>
-0.483

> <U+W>
2.527

> <U>
4.508

> <W>
-1.981

> <W(PB)>
-3.712

> <W(SA)>
1.732

> <Valence>
14.705

> <Coulomb>
-10.687

> <VdW>
0.490

> <VdW6>
-3.745

> <VdW12>
4.235

> <Bond>
0.068

> <Angle>
3.901

> <Pdih>
10.737

> <Idih>
0.000

> <Tether>
0.000

$$$$
VeraChem MOL file


 16 16  0  0  0  0  0  0  0  0999 V2000     
   19.6149   17.1647   22.6566 C   0  0  0  0  0  0  0  0  0  0  0  0
   20.6780   17.1319   22.9332 H   0  0  0  0  0  0  0  0  0  0  0  0
   19.1890   16.1635   22.8078 H   0  0  0  0  0  0  0  0  0  0  0  0
   19.4753   17.6483   21.2067 C   0  0  0  0  0  0  0  0  0  0  0  0
   20.2512   17.2311   20.5504 H   0  0  0  0  0  0  0  0  0  0  0  0
   18.4942   17.3513   20.8108 H   0  0  0  0  0  0  0  0  0  0  0  0
   19.5545   19.1828   21.3054 C   0  0  0  0  0  0  0  0  0  0  0  0
   18.9849   19.6664   20.5013 H   0  0  0  0  0  0  0  0  0  0  0  0
   20.6025   19.4991   21.2139 H   0  0  0  0  0  0  0  0  0  0  0  0
   19.0021   19.5582   22.6967 C   0  0  0  0  0  0  0  0  0  0  0  0
   18.0011   20.0026   22.5968 H   0  0  0  0  0  0  0  0  0  0  0  0
   18.8976   18.2408   23.4925 C   0  0  0  0  0  0  0  0  0  0  0  0
   19.3299   18.3260   24.4984 H   0  0  0  0  0  0  0  0  0  0  0  0
   17.8388   17.9741   23.6059 H   0  0  0  0  0  0  0  0  0  0  0  0
   19.8894   20.4575   23.3508 O   0  0  0  0  0  0  0  0  0  0  0  0
   19.9260   21.2674   22.7993 H   0  0  0  0  0  0  0  0  0  0  0  0
  1  2  1  0  0  0  0
  1  3  1  0  0  0  0
  1  4  1  0  0  0  0
  4  5  1  0  0  0  0
  4  6  1  0  0  0  0
  4  7  1  0  0  0  0
  7  8  1  0  0  0  0
  7  9  1  0  0  0  0
  7 10  1  0  0  0  0
 10 11  1  0  0  0  0
  1 12  1  0  0  0  0
 10 12  1  0  0  0  0
 12 13  1  0  0  0  0
 12 14  1  0  0  0  0
 10 15  1  0  0  0  0
 15 16  1  0  0  0  0
M  END
> <VConfSearch Rank>
895

> <Conf_Id>
59

> <Delta U+W>
0.000

> <U+W>
3.010

> <U>
5.843

> <W>
-2.833

> <W(PB)>
-4.568

> <W(SA)>
1.735

> <Valence>
13.789

> <Coulomb>
-8.574

> <VdW>
0.628

> <VdW6>
-3.284

> <VdW12>
3.912

> <Bond>
0.054

> <Angle>
4.034

> <Pdih>
9.702

> <Idih>
0.000

> <Tether>
0.000

$$$$
VeraChem MOL file


 16 16  0  0  0  0  0  0  0  0999 V2000     
   19.5830   19.8612   22.9878 C   0  0  0  0  0  0  0  0  0  0  0  0
   19.9452   20.2436   23.9518 H   0  0  0  0  0  0  0  0  0  0  0  0
   19.3570   20.7200   22.3405 H   0  0  0  0  0  0  0  0  0  0  0  0
   18.3315   18.9858   23.1398 C   0  0  0  0  0  0  0  0  0  0  0  0
   18.4295   18.3553   24.0346 H   0  0  0  0  0  0  0  0  0  0  0  0
   17.4129   19.5804   23.2368 H   0  0  0  0  0  0  0  0  0  0  0  0
   18.3269   18.0983   21.8815 C   0  0  0  0  0  0  0  0  0  0  0  0
   17.7655   18.5971   21.0809 H   0  0  0  0  0  0  0  0  0  0  0  0
   17.8468   17.1291   22.0721 H   0  0  0  0  0  0  0  0  0  0  0  0
   19.7987   17.9468   21.4449 C   0  0  0  0  0  0  0  0  0  0  0  0
   19.8895   18.2019   20.3789 H   0  0  0  0  0  0  0  0  0  0  0  0
   20.6100   18.9448   22.2978 C   0  0  0  0  0  0  0  0  0  0  0  0
   21.1899   18.4091   23.0617 H   0  0  0  0  0  0  0  0  0  0  0  0
   21.3134   19.5217   21.6836 H   0  0  0  0  0  0  0  0  0  0  0  0
   20.2473   16.6182   21.6846 O   0  0  0  0  0  0  0  0  0  0  0  0
   21.1853   16.5826   21.4011 H   0  0  0  0  0  0  0  0  0  0  0  0
  1  2  1  0  0  0  0
  1  3  1  0  0  0  0
  1  4  1  0  0  0  0
  4  5  1  0  0  0  0
  4  6  1  0  0  0  0
  4  7  1  0  0  0  0
  7  8  1  0  0  0  0
  7  9  1  0  0  0  0
  7 10  1  0  0  0  0
 10 11  1  0  0  0  0
  1 12  1  0  0  0  0
 10 12  1  0  0  0  0
 12 13  1  0  0  0  0
 12 14  1  0  0  0  0
 10 15  1  0  0  0  0
 15 16  1  0  0  0  0
M  END
> <VConfSearch Rank>
896

> <Conf_Id>
33

> <Delta U+W>
0.015

> <U+W>
3.025

> <U>
5.843

> <W>
-2.819

> <W(PB)>
-4.568

> <W(SA)>
1.750

> <Valence>
13.789

> <Coulomb>
-8.574

> <VdW>
0.628

> <VdW6>
-3.284

> <VdW12>
3.913

> <Bond>
0.054

> <Angle>
4.033

> <Pdih>
9.702

> <Idih>
0.000

> <Tether>
0.000

$$$$
VeraChem MOL file


 16 16  0  0  0  0  0  0  0  0999 V2000     
   19.6296   17.3370   22.5752 C   0  0  0  0  0  0  0  0  0  0  0  0
   19.9736   16.7207   21.7330 H   0  0  0  0  0  0  0  0  0  0  0  0
   19.6102   16.6987   23.4692 H   0  0  0  0  0  0  0  0  0  0  0  0
   18.2340   17.9203   22.2635 C   0  0  0  0  0  0  0  0  0  0  0  0
   17.9021   17.5856   21.2711 H   0  0  0  0  0  0  0  0  0  0  0  0
   17.4848   17.5880   22.9951 H   0  0  0  0  0  0  0  0  0  0  0  0
   18.3870   19.4561   22.2847 C   0  0  0  0  0  0  0  0  0  0  0  0
   18.0691   19.8430   23.2619 H   0  0  0  0  0  0  0  0  0  0  0  0
   17.7745   19.9460   21.5161 H   0  0  0  0  0  0  0  0  0  0  0  0
   19.8844   19.7368   22.1007 C   0  0  0  0  0  0  0  0  0  0  0  0
   20.1780   20.6884   22.5668 H   0  0  0  0  0  0  0  0  0  0  0  0
   20.5732   18.5421   22.7741 C   0  0  0  0  0  0  0  0  0  0  0  0
   21.5764   18.3569   22.3676 H   0  0  0  0  0  0  0  0  0  0  0  0
   20.6807   18.7507   23.8468 H   0  0  0  0  0  0  0  0  0  0  0  0
   20.1939   19.7347   20.7147 O   0  0  0  0  0  0  0  0  0  0  0  0
   19.9005   18.8587   20.3895 H   0  0  0  0  0  0  0  0  0  0  0  0
  1  2  1  0  0  0  0
  1  3  1  0  0  0  0
  1  4  1  0  0  0  0
  4  5  1  0  0  0  0
  4  6  1  0  0  0  0
  4  7  1  0  0  0  0
  7  8  1  0  0  0  0
  7  9  1  0  0  0  0
  7 10  1  0  0  0  0
 10 11  1  0  0  0  0
  1 12  1  0  0  0  0
 10 12  1  0  0  0  0
 12 13  1  0  0  0  0
 12 14  1  0  0  0  0
 10 15  1  0  0  0  0
 15 16  1  0  0  0  0
M  END
> <VConfSearch Rank>
897

> <Conf_Id>
20

> <Delta U+W>
-0.483

> <U+W>
2.527

> <U>
4.508

> <W>
-1.981

> <W(PB)>
-3.712

> <W(SA)>
1.732

> <Valence>
14.705

> <Coulomb>
-10.687

> <VdW>
0.490

> <VdW6>
-3.745

> <VdW12>
4.235

> <Bond>
0.068

> <Angle>
3.901

> <Pdih>
10.737

> <Idih>
0.000

> <Tether>
0.000

$$$$
VeraChem MOL file


 16 16  0  0  0  0  0  0  0  0999 V2000     
   19.8173   17.8991   23.5282 C   0  0  0  0  0  0  0  0  0  0  0  0
   19.0494   17.1457   23.7526 H   0  0  0  0  0  0  0  0  0  0  0  0
   20.6215   17.8025   24.2702 H   0  0  0  0  0  0  0  0  0  0  0  0
   19.1828   19.2967   23.5301 C   0  0  0  0  0  0  0  0  0  0  0  0
   18.4423   19.4184   24.3324 H   0  0  0  0  0  0  0  0  0  0  0  0
   19.9643   20.0573   23.6655 H   0  0  0  0  0  0  0  0  0  0  0  0
   18.5577   19.4355   22.1299 C   0  0  0  0  0  0  0  0  0  0  0  0
   18.5331   20.4833   21.8037 H   0  0  0  0  0  0  0  0  0  0  0  0
   17.5236   19.0657   22.1554 H   0  0  0  0  0  0  0  0  0  0  0  0
   19.4131   18.5668   21.1837 C   0  0  0  0  0  0  0  0  0  0  0  0
   20.0376   19.2086   20.5451 H   0  0  0  0  0  0  0  0  0  0  0  0
   20.3222   17.7071   22.0862 C   0  0  0  0  0  0  0  0  0  0  0  0
   20.3183   16.6485   21.7941 H   0  0  0  0  0  0  0  0  0  0  0  0
   21.3545   18.0717   22.0056 H   0  0  0  0  0  0  0  0  0  0  0  0
   18.5759   17.7317   20.3928 O   0  0  0  0  0  0  0  0  0  0  0  0
   18.0159   18.3270   19.8511 H   0  0  0  0  0  0  0  0  0  0  0  0
  1  2  1  0  0  0  0
  1  3  1  0  0  0  0
  1  4  1  0  0  0  0
  4  5  1  0  0  0  0
  4  6  1  0  0  0  0
  4  7  1  0  0  0  0
  7  8  1  0  0  0  0
  7  9  1  0  0  0  0
  7 10  1  0  0  0  0
 10 11  1  0  0  0  0
  1 12  1  0  0  0  0
 10 12  1  0  0  0  0
 12 13  1  0  0  0  0
 12 14  1  0  0  0  0
 10 15  1  0  0  0  0
 15 16  1  0  0  0  0
M  END
> <VConfSearch Rank>
898

> <Conf_Id>
59

> <Delta U+W>
0.000

> <U+W>
3.010

> <U>
5.843

> <W>
-2.833

> <W(PB)>
-4.568

> <W(SA)>
1.735

> <Valence>
13.789

> <Coulomb>
-8.574

> <VdW>
0.628

> <VdW6>
-3.284

> <VdW12>
3.912

> <Bond>
0.054

> <Angle>
4.034

> <Pdih>
9.702

> <Idih>
0.000

> <Tether>
0.000

$$$$
VeraChem MOL file


 16 16  0  0  0  0  0  0  0  0999 V2000     
   18.5829   19.7014   21.9477 C   0  0  0  0  0  0  0  0  0  0  0  0
   17.5329   19.8749   21.6751 H   0  0  0  0  0  0  0  0  0  0  0  0
   19.0647   20.6776   22.0974 H   0  0  0  0  0  0  0  0  0  0  0  0
   19.3420   18.9102   20.8738 C   0  0  0  0  0  0  0  0  0  0  0  0
   18.6917   18.1228   20.4678 H   0  0  0  0  0  0  0  0  0  0  0  0
   19.6744   19.5452   20.0413 H   0  0  0  0  0  0  0  0  0  0  0  0
   20.5199   18.2676   21.6292 C   0  0  0  0  0  0  0  0  0  0  0  0
   21.3843   18.9439   21.6077 H   0  0  0  0  0  0  0  0  0  0  0  0
   20.8266   17.3191   21.1684 H   0  0  0  0  0  0  0  0  0  0  0  0
   20.0590   18.0866   23.0903 C   0  0  0  0  0  0  0  0  0  0  0  0
   20.8103   18.5225   23.7649 H   0  0  0  0  0  0  0  0  0  0  0  0
   18.7242   18.8498   23.2226 C   0  0  0  0  0  0  0  0  0  0  0  0
   17.8856   18.1426   23.2819 H   0  0  0  0  0  0  0  0  0  0  0  0
   18.7038   19.4733   24.1258 H   0  0  0  0  0  0  0  0  0  0  0  0
   19.8659   16.7065   23.3764 O   0  0  0  0  0  0  0  0  0  0  0  0
   19.5646   16.6519   24.3080 H   0  0  0  0  0  0  0  0  0  0  0  0
  1  2  1  0  0  0  0
  1  3  1  0  0  0  0
  1  4  1  0  0  0  0
  4  5  1  0  0  0  0
  4  6  1  0  0  0  0
  4  7  1  0  0  0  0
  7  8  1  0  0  0  0
  7  9  1  0  0  0  0
  7 10  1  0  0  0  0
 10 11  1  0  0  0  0
  1 12  1  0  0  0  0
 10 12  1  0  0  0  0
 12 13  1  0  0  0  0
 12 14  1  0  0  0  0
 10 15  1  0  0  0  0
 15 16  1  0  0  0  0
M  END
> <VConfSearch Rank>
899

> <Conf_Id>
33

> <Delta U+W>
0.015

> <U+W>
3.025

> <U>
5.843

> <W>
-2.819

> <W(PB)>
-4.568

> <W(SA)>
1.750

> <Valence>
13.789

> <Coulomb>
-8.574

> <VdW>
0.628

> <VdW6>
-3.284

> <VdW12>
3.913

> <Bond>
0.054

> <Angle>
4.033

> <Pdih>
9.702

> <Idih>
0.000

> <Tether>
0.000

$$$$
VeraChem MOL file


 16 16  0  0  0  0  0  0  0  0999 V2000     
   20.0663   17.6281   22.8472 C   0  0  0  0  0  0  0  0  0  0  0  0
   19.4758   17.0173   23.5440 H   0  0  0  0  0  0  0  0  0  0  0  0
   21.0865   17.2209   22.8292 H   0  0  0  0  0  0  0  0  0  0  0  0
   20.0519   19.1043   23.3009 C   0  0  0  0  0  0  0  0  0  0  0  0
   19.4554   19.2077   24.2177 H   0  0  0  0  0  0  0  0  0  0  0  0
   21.0648   19.4696   23.5192 H   0  0  0  0  0  0  0  0  0  0  0  0
   19.4076   19.9090   22.1520 C   0  0  0  0  0  0  0  0  0  0  0  0
   20.1949   20.3549   21.5300 H   0  0  0  0  0  0  0  0  0  0  0  0
   18.7712   20.7244   22.5208 H   0  0  0  0  0  0  0  0  0  0  0  0
   18.6225   18.8940   21.3103 C   0  0  0  0  0  0  0  0  0  0  0  0
   18.5398   19.2156   20.2621 H   0  0  0  0  0  0  0  0  0  0  0  0
   19.4313   17.5964   21.4407 C   0  0  0  0  0  0  0  0  0  0  0  0
   18.8124   16.7029   21.2835 H   0  0  0  0  0  0  0  0  0  0  0  0
   20.2235   17.5921   20.6805 H   0  0  0  0  0  0  0  0  0  0  0  0
   17.3378   18.7042   21.8849 O   0  0  0  0  0  0  0  0  0  0  0  0
   17.5101   18.4224   22.8069 H   0  0  0  0  0  0  0  0  0  0  0  0
  1  2  1  0  0  0  0
  1  3  1  0  0  0  0
  1  4  1  0  0  0  0
  4  5  1  0  0  0  0
  4  6  1  0  0  0  0
  4  7  1  0  0  0  0
  7  8  1  0  0  0  0
  7  9  1  0  0  0  0
  7 10  1  0  0  0  0
 10 11  1  0  0  0  0
  1 12  1  0  0  0  0
 10 12  1  0  0  0  0
 12 13  1  0  0  0  0
 12 14  1  0  0  0  0
 10 15  1  0  0  0  0
 15 16  1  0  0  0  0
M  END
> <VConfSearch Rank>
900

> <Conf_Id>
20

> <Delta U+W>
-0.483

> <U+W>
2.527

> <U>
4.508

> <W>
-1.981

> <W(PB)>
-3.712

> <W(SA)>
1.732

> <Valence>
14.705

> <Coulomb>
-10.687

> <VdW>
0.490

> <VdW6>
-3.745

> <VdW12>
4.235

> <Bond>
0.068

> <Angle>
3.901

> <Pdih>
10.737

> <Idih>
0.000

> <Tether>
0.000

$$$$
VeraChem MOL file


 16 16  0  0  0  0  0  0  0  0999 V2000     
   18.8224   19.7558   22.9328 C   0  0  0  0  0  0  0  0  0  0  0  0
   19.3597   20.5860   22.4535 H   0  0  0  0  0  0  0  0  0  0  0  0
   18.0804   20.1792   23.6233 H   0  0  0  0  0  0  0  0  0  0  0  0
   19.8252   18.8354   23.6421 C   0  0  0  0  0  0  0  0  0  0  0  0
   20.6265   19.3966   24.1418 H   0  0  0  0  0  0  0  0  0  0  0  0
   19.3032   18.2338   24.3992 H   0  0  0  0  0  0  0  0  0  0  0  0
   20.3596   17.9189   22.5263 C   0  0  0  0  0  0  0  0  0  0  0  0
   20.6560   16.9382   22.9202 H   0  0  0  0  0  0  0  0  0  0  0  0
   21.2456   18.3810   22.0698 H   0  0  0  0  0  0  0  0  0  0  0  0
   19.2262   17.7935   21.4863 C   0  0  0  0  0  0  0  0  0  0  0  0
   18.7641   16.7976   21.5515 H   0  0  0  0  0  0  0  0  0  0  0  0
   18.1796   18.8659   21.8529 C   0  0  0  0  0  0  0  0  0  0  0  0
   17.8620   19.4535   20.9813 H   0  0  0  0  0  0  0  0  0  0  0  0
   17.2899   18.3717   22.2644 H   0  0  0  0  0  0  0  0  0  0  0  0
   19.7324   18.0290   20.1778 O   0  0  0  0  0  0  0  0  0  0  0  0
   20.3968   17.3293   20.0031 H   0  0  0  0  0  0  0  0  0  0  0  0
  1  2  1  0  0  0  0
  1  3  1  0  0  0  0
  1  4  1  0  0  0  0
  4  5  1  0  0  0  0
  4  6  1  0  0  0  0
  4  7  1  0  0  0  0
  7  8  1  0  0  0  0
  7  9  1  0  0  0  0
  7 10  1  0  0  0  0
 10 11  1  0  0  0  0
  1 12  1  0  0  0  0
 10 12  1  0  0  0  0
 12 13  1  0  0  0  0
 12 14  1  0  0  0  0
 10 15  1  0  0  0  0
 15 16  1  0  0  0  0
M  END
> <VConfSearch Rank>
901

> <Conf_Id>
59

> <Delta U+W>
0.000

> <U+W>
3.010

> <U>
5.843

> <W>
-2.833

> <W(PB)>
-4.568

> <W(SA)>
1.735

> <Valence>
13.789

> <Coulomb>
-8.574

> <VdW>
0.628

> <VdW6>
-3.284

> <VdW12>
3.912

> <Bond>
0.054

> <Angle>
4.034

> <Pdih>
9.702

> <Idih>
0.000

> <Tether>
0.000

$$$$
VeraChem MOL file


 16 16  0  0  0  0  0  0  0  0999 V2000     
   20.1841   19.8467   22.2659 C   0  0  0  0  0  0  0  0  0  0  0  0
   20.0263   20.9132   22.4767 H   0  0  0  0  0  0  0  0  0  0  0  0
   21.2561   19.6873   22.0843 H   0  0  0  0  0  0  0  0  0  0  0  0
   19.3778   19.3660   21.0515 C   0  0  0  0  0  0  0  0  0  0  0  0
   18.3829   19.8327   21.0619 H   0  0  0  0  0  0  0  0  0  0  0  0
   19.8650   19.6153   20.0991 H   0  0  0  0  0  0  0  0  0  0  0  0
   19.2369   17.8468   21.2596 C   0  0  0  0  0  0  0  0  0  0  0  0
   20.0811   17.3301   20.7848 H   0  0  0  0  0  0  0  0  0  0  0  0
   18.3129   17.4610   20.8085 H   0  0  0  0  0  0  0  0  0  0  0  0
   19.2907   17.6046   22.7822 C   0  0  0  0  0  0  0  0  0  0  0  0
   20.0416   16.8313   23.0006 H   0  0  0  0  0  0  0  0  0  0  0  0
   19.7116   18.9449   23.4209 C   0  0  0  0  0  0  0  0  0  0  0  0
   18.8534   19.4145   23.9207 H   0  0  0  0  0  0  0  0  0  0  0  0
   20.5022   18.8045   24.1693 H   0  0  0  0  0  0  0  0  0  0  0  0
   18.0101   17.2127   23.2621 O   0  0  0  0  0  0  0  0  0  0  0  0
   18.0998   17.0842   24.2301 H   0  0  0  0  0  0  0  0  0  0  0  0
  1  2  1  0  0  0  0
  1  3  1  0  0  0  0
  1  4  1  0  0  0  0
  4  5  1  0  0  0  0
  4  6  1  0  0  0  0
  4  7  1  0  0  0  0
  7  8  1  0  0  0  0
  7  9  1  0  0  0  0
  7 10  1  0  0  0  0
 10 11  1  0  0  0  0
  1 12  1  0  0  0  0
 10 12  1  0  0  0  0
 12 13  1  0  0  0  0
 12 14  1  0  0  0  0
 10 15  1  0  0  0  0
 15 16  1  0  0  0  0
M  END
> <VConfSearch Rank>
902

> <Conf_Id>
33

> <Delta U+W>
0.015

> <U+W>
3.025

> <U>
5.843

> <W>
-2.819

> <W(PB)>
-4.568

> <W(SA)>
1.750

> <Valence>
13.789

> <Coulomb>
-8.574

> <VdW>
0.628

> <VdW6>
-3.284

> <VdW12>
3.913

> <Bond>
0.054

> <Angle>
4.033

> <Pdih>
9.702

> <Idih>
0.000

> <Tether>
0.000

$$$$
VeraChem MOL file


 16 16  0  0  0  0  0  0  0  0999 V2000     
   18.7066   17.8093   21.4260 C   0  0  0  0  0  0  0  0  0  0  0  0
   18.6581   16.7602   21.7490 H   0  0  0  0  0  0  0  0  0  0  0  0
   18.1498   17.8937   20.4827 H   0  0  0  0  0  0  0  0  0  0  0  0
   20.1802   18.2389   21.2560 C   0  0  0  0  0  0  0  0  0  0  0  0
   20.8449   17.3975   21.4957 H   0  0  0  0  0  0  0  0  0  0  0  0
   20.3940   18.5491   20.2240 H   0  0  0  0  0  0  0  0  0  0  0  0
   20.4140   19.4013   22.2443 C   0  0  0  0  0  0  0  0  0  0  0  0
   20.3214   20.3581   21.7138 H   0  0  0  0  0  0  0  0  0  0  0  0
   21.4131   19.3666   22.6988 H   0  0  0  0  0  0  0  0  0  0  0  0
   19.2957   19.3013   23.2905 C   0  0  0  0  0  0  0  0  0  0  0  0
   19.0599   20.2830   23.7258 H   0  0  0  0  0  0  0  0  0  0  0  0
   18.1049   18.7290   22.5098 C   0  0  0  0  0  0  0  0  0  0  0  0
   17.3974   18.1980   23.1605 H   0  0  0  0  0  0  0  0  0  0  0  0
   17.5628   19.5548   22.0305 H   0  0  0  0  0  0  0  0  0  0  0  0
   19.6803   18.3788   24.2994 O   0  0  0  0  0  0  0  0  0  0  0  0
   19.8685   17.5441   23.8231 H   0  0  0  0  0  0  0  0  0  0  0  0
  1  2  1  0  0  0  0
  1  3  1  0  0  0  0
  1  4  1  0  0  0  0
  4  5  1  0  0  0  0
  4  6  1  0  0  0  0
  4  7  1  0  0  0  0
  7  8  1  0  0  0  0
  7  9  1  0  0  0  0
  7 10  1  0  0  0  0
 10 11  1  0  0  0  0
  1 12  1  0  0  0  0
 10 12  1  0  0  0  0
 12 13  1  0  0  0  0
 12 14  1  0  0  0  0
 10 15  1  0  0  0  0
 15 16  1  0  0  0  0
M  END
> <VConfSearch Rank>
903

> <Conf_Id>
20

> <Delta U+W>
-0.483

> <U+W>
2.527

> <U>
4.508

> <W>
-1.981

> <W(PB)>
-3.712

> <W(SA)>
1.732

> <Valence>
14.705

> <Coulomb>
-10.687

> <VdW>
0.490

> <VdW6>
-3.745

> <VdW12>
4.235

> <Bond>
0.068

> <Angle>
3.901

> <Pdih>
10.737

> <Idih>
0.000

> <Tether>
0.000

$$$$
VeraChem MOL file


 16 16  0  0  0  0  0  0  0  0999 V2000     
   20.5032   18.7808   23.1809 C   0  0  0  0  0  0  0  0  0  0  0  0
   20.7787   17.7846   23.5542 H   0  0  0  0  0  0  0  0  0  0  0  0
   21.2310   19.5068   23.5679 H   0  0  0  0  0  0  0  0  0  0  0  0
   19.0652   19.1094   23.6051 C   0  0  0  0  0  0  0  0  0  0  0  0
   18.8431   18.7713   24.6264 H   0  0  0  0  0  0  0  0  0  0  0  0
   18.9057   20.1958   23.5605 H   0  0  0  0  0  0  0  0  0  0  0  0
   18.1859   18.4102   22.5522 C   0  0  0  0  0  0  0  0  0  0  0  0
   17.2355   18.9400   22.4074 H   0  0  0  0  0  0  0  0  0  0  0  0
   17.9557   17.3907   22.8903 H   0  0  0  0  0  0  0  0  0  0  0  0
   19.0155   18.3678   21.2516 C   0  0  0  0  0  0  0  0  0  0  0  0
   18.6227   19.0995   20.5306 H   0  0  0  0  0  0  0  0  0  0  0  0
   20.4556   18.7597   21.6419 C   0  0  0  0  0  0  0  0  0  0  0  0
   21.2026   18.0718   21.2238 H   0  0  0  0  0  0  0  0  0  0  0  0
   20.6714   19.7632   21.2528 H   0  0  0  0  0  0  0  0  0  0  0  0
   18.9963   17.0568   20.6996 O   0  0  0  0  0  0  0  0  0  0  0  0
   18.0614   16.8571   20.4815 H   0  0  0  0  0  0  0  0  0  0  0  0
  1  2  1  0  0  0  0
  1  3  1  0  0  0  0
  1  4  1  0  0  0  0
  4  5  1  0  0  0  0
  4  6  1  0  0  0  0
  4  7  1  0  0  0  0
  7  8  1  0  0  0  0
  7  9  1  0  0  0  0
  7 10  1  0  0  0  0
 10 11  1  0  0  0  0
  1 12  1  0  0  0  0
 10 12  1  0  0  0  0
 12 13  1  0  0  0  0
 12 14  1  0  0  0  0
 10 15  1  0  0  0  0
 15 16  1  0  0  0  0
M  END
> <VConfSearch Rank>
904

> <Conf_Id>
59

> <Delta U+W>
0.000

> <U+W>
3.010

> <U>
5.843

> <W>
-2.833

> <W(PB)>
-4.568

> <W(SA)>
1.735

> <Valence>
13.789

> <Coulomb>
-8.574

> <VdW>
0.628

> <VdW6>
-3.284

> <VdW12>
3.912

> <Bond>
0.054

> <Angle>
4.034

> <Pdih>
9.702

> <Idih>
0.000

> <Tether>
0.000

$$$$
VeraChem MOL file


 16 16  0  0  0  0  0  0  0  0999 V2000     
   19.0803   17.2945   21.8612 C   0  0  0  0  0  0  0  0  0  0  0  0
   18.5933   16.3942   22.2601 H   0  0  0  0  0  0  0  0  0  0  0  0
   19.2196   17.1592   20.7796 H   0  0  0  0  0  0  0  0  0  0  0  0
   20.4363   17.5682   22.5261 C   0  0  0  0  0  0  0  0  0  0  0  0
   20.3698   17.3508   23.6013 H   0  0  0  0  0  0  0  0  0  0  0  0
   21.2433   16.9564   22.1006 H   0  0  0  0  0  0  0  0  0  0  0  0
   20.6699   19.0759   22.3184 C   0  0  0  0  0  0  0  0  0  0  0  0
   21.2062   19.2390   21.3745 H   0  0  0  0  0  0  0  0  0  0  0  0
   21.2772   19.5061   23.1260 H   0  0  0  0  0  0  0  0  0  0  0  0
   19.2751   19.7282   22.2236 C   0  0  0  0  0  0  0  0  0  0  0  0
   19.2257   20.3501   21.3179 H   0  0  0  0  0  0  0  0  0  0  0  0
   18.2596   18.5702   22.1252 C   0  0  0  0  0  0  0  0  0  0  0  0
   17.7135   18.4614   23.0722 H   0  0  0  0  0  0  0  0  0  0  0  0
   17.5237   18.7455   21.3299 H   0  0  0  0  0  0  0  0  0  0  0  0
   19.0186   20.5087   23.3850 O   0  0  0  0  0  0  0  0  0  0  0  0
   18.1207   20.8876   23.2766 H   0  0  0  0  0  0  0  0  0  0  0  0
  1  2  1  0  0  0  0
  1  3  1  0  0  0  0
  1  4  1  0  0  0  0
  4  5  1  0  0  0  0
  4  6  1  0  0  0  0
  4  7  1  0  0  0  0
  7  8  1  0  0  0  0
  7  9  1  0  0  0  0
  7 10  1  0  0  0  0
 10 11  1  0  0  0  0
  1 12  1  0  0  0  0
 10 12  1  0  0  0  0
 12 13  1  0  0  0  0
 12 14  1  0  0  0  0
 10 15  1  0  0  0  0
 15 16  1  0  0  0  0
M  END
> <VConfSearch Rank>
905

> <Conf_Id>
33

> <Delta U+W>
0.015

> <U+W>
3.025

> <U>
5.843

> <W>
-2.819

> <W(PB)>
-4.568

> <W(SA)>
1.750

> <Valence>
13.789

> <Coulomb>
-8.574

> <VdW>
0.628

> <VdW6>
-3.284

> <VdW12>
3.913

> <Bond>
0.054

> <Angle>
4.033

> <Pdih>
9.702

> <Idih>
0.000

> <Tether>
0.000

$$$$
VeraChem MOL file


 16 16  0  0  0  0  0  0  0  0999 V2000     
   18.7634   19.5156   21.4918 C   0  0  0  0  0  0  0  0  0  0  0  0
   18.3219   20.3539   22.0482 H   0  0  0  0  0  0  0  0  0  0  0  0
   18.5739   19.6881   20.4235 H   0  0  0  0  0  0  0  0  0  0  0  0
   18.1451   18.1839   21.9705 C   0  0  0  0  0  0  0  0  0  0  0  0
   17.4036   18.3777   22.7578 H   0  0  0  0  0  0  0  0  0  0  0  0
   17.6330   17.6592   21.1522 H   0  0  0  0  0  0  0  0  0  0  0  0
   19.3082   17.3375   22.5302 C   0  0  0  0  0  0  0  0  0  0  0  0
   19.6491   16.6297   21.7632 H   0  0  0  0  0  0  0  0  0  0  0  0
   19.0123   16.7560   23.4136 H   0  0  0  0  0  0  0  0  0  0  0  0
   20.4427   18.3243   22.8371 C   0  0  0  0  0  0  0  0  0  0  0  0
   21.4283   17.8417   22.7684 H   0  0  0  0  0  0  0  0  0  0  0  0
   20.2771   19.4235   21.7792 C   0  0  0  0  0  0  0  0  0  0  0  0
   20.6976   20.3834   22.1074 H   0  0  0  0  0  0  0  0  0  0  0  0
   20.8062   19.1218   20.8657 H   0  0  0  0  0  0  0  0  0  0  0  0
   20.2408   18.8825   24.1272 O   0  0  0  0  0  0  0  0  0  0  0  0
   19.3485   19.2850   24.0939 H   0  0  0  0  0  0  0  0  0  0  0  0
  1  2  1  0  0  0  0
  1  3  1  0  0  0  0
  1  4  1  0  0  0  0
  4  5  1  0  0  0  0
  4  6  1  0  0  0  0
  4  7  1  0  0  0  0
  7  8  1  0  0  0  0
  7  9  1  0  0  0  0
  7 10  1  0  0  0  0
 10 11  1  0  0  0  0
  1 12  1  0  0  0  0
 10 12  1  0  0  0  0
 12 13  1  0  0  0  0
 12 14  1  0  0  0  0
 10 15  1  0  0  0  0
 15 16  1  0  0  0  0
M  END
> <VConfSearch Rank>
906

> <Conf_Id>
20

> <Delta U+W>
-0.483

> <U+W>
2.527

> <U>
4.508

> <W>
-1.981

> <W(PB)>
-3.712

> <W(SA)>
1.732

> <Valence>
14.705

> <Coulomb>
-10.687

> <VdW>
0.490

> <VdW6>
-3.745

> <VdW12>
4.235

> <Bond>
0.068

> <Angle>
3.901

> <Pdih>
10.737

> <Idih>
0.000

> <Tether>
0.000

$$$$
VeraChem MOL file


 16 16  0  0  0  0  0  0  0  0999 V2000     
   19.0025   19.9329   22.6077 C   0  0  0  0  0  0  0  0  0  0  0  0
   18.5445   19.9020   23.6061 H   0  0  0  0  0  0  0  0  0  0  0  0
   19.0493   20.9812   22.2829 H   0  0  0  0  0  0  0  0  0  0  0  0
   18.1927   19.0559   21.6429 C   0  0  0  0  0  0  0  0  0  0  0  0
   17.1100   19.1437   21.8070 H   0  0  0  0  0  0  0  0  0  0  0  0
   18.4081   19.3503   20.6063 H   0  0  0  0  0  0  0  0  0  0  0  0
   18.7099   17.6282   21.8972 C   0  0  0  0  0  0  0  0  0  0  0  0
   18.6300   17.0062   20.9962 H   0  0  0  0  0  0  0  0  0  0  0  0
   18.1067   17.1584   22.6860 H   0  0  0  0  0  0  0  0  0  0  0  0
   20.1754   17.7723   22.3588 C   0  0  0  0  0  0  0  0  0  0  0  0
   20.8561   17.4602   21.5534 H   0  0  0  0  0  0  0  0  0  0  0  0
   20.3917   19.2704   22.6569 C   0  0  0  0  0  0  0  0  0  0  0  0
   20.8845   19.4360   23.6242 H   0  0  0  0  0  0  0  0  0  0  0  0
   21.0333   19.7014   21.8773 H   0  0  0  0  0  0  0  0  0  0  0  0
   20.3981   17.0012   23.5334 O   0  0  0  0  0  0  0  0  0  0  0  0
   20.2369   16.0651   23.2901 H   0  0  0  0  0  0  0  0  0  0  0  0
  1  2  1  0  0  0  0
  1  3  1  0  0  0  0
  1  4  1  0  0  0  0
  4  5  1  0  0  0  0
  4  6  1  0  0  0  0
  4  7  1  0  0  0  0
  7  8  1  0  0  0  0
  7  9  1  0  0  0  0
  7 10  1  0  0  0  0
 10 11  1  0  0  0  0
  1 12  1  0  0  0  0
 10 12  1  0  0  0  0
 12 13  1  0  0  0  0
 12 14  1  0  0  0  0
 10 15  1  0  0  0  0
 15 16  1  0  0  0  0
M  END
> <VConfSearch Rank>
907

> <Conf_Id>
59

> <Delta U+W>
0.000

> <U+W>
3.010

> <U>
5.843

> <W>
-2.833

> <W(PB)>
-4.568

> <W(SA)>
1.735

> <Valence>
13.789

> <Coulomb>
-8.574

> <VdW>
0.628

> <VdW6>
-3.284

> <VdW12>
3.912

> <Bond>
0.054

> <Angle>
4.034

> <Pdih>
9.702

> <Idih>
0.000

> <Tether>
0.000

$$$$
VeraChem MOL file


 16 16  0  0  0  0  0  0  0  0999 V2000     
   19.5196   17.8213   21.0964 C   0  0  0  0  0  0  0  0  0  0  0  0
   18.8656   17.1963   20.4732 H   0  0  0  0  0  0  0  0  0  0  0  0
   20.4759   17.9491   20.5703 H   0  0  0  0  0  0  0  0  0  0  0  0
   19.7699   17.2061   22.4801 C   0  0  0  0  0  0  0  0  0  0  0  0
   18.8416   16.7528   22.8549 H   0  0  0  0  0  0  0  0  0  0  0  0
   20.5479   16.4309   22.4601 H   0  0  0  0  0  0  0  0  0  0  0  0
   20.1552   18.4025   23.3696 C   0  0  0  0  0  0  0  0  0  0  0  0
   21.2430   18.5473   23.3415 H   0  0  0  0  0  0  0  0  0  0  0  0
   19.8674   18.2373   24.4165 H   0  0  0  0  0  0  0  0  0  0  0  0
   19.4669   19.6422   22.7618 C   0  0  0  0  0  0  0  0  0  0  0  0
   20.2119   20.4387   22.6206 H   0  0  0  0  0  0  0  0  0  0  0  0
   18.9016   19.1994   21.3958 C   0  0  0  0  0  0  0  0  0  0  0  0
   17.8086   19.1034   21.4491 H   0  0  0  0  0  0  0  0  0  0  0  0
   19.1382   19.9250   20.6069 H   0  0  0  0  0  0  0  0  0  0  0  0
   18.4130   20.0831   23.6096 O   0  0  0  0  0  0  0  0  0  0  0  0
   18.0064   20.8606   23.1717 H   0  0  0  0  0  0  0  0  0  0  0  0
  1  2  1  0  0  0  0
  1  3  1  0  0  0  0
  1  4  1  0  0  0  0
  4  5  1  0  0  0  0
  4  6  1  0  0  0  0
  4  7  1  0  0  0  0
  7  8  1  0  0  0  0
  7  9  1  0  0  0  0
  7 10  1  0  0  0  0
 10 11  1  0  0  0  0
  1 12  1  0  0  0  0
 10 12  1  0  0  0  0
 12 13  1  0  0  0  0
 12 14  1  0  0  0  0
 10 15  1  0  0  0  0
 15 16  1  0  0  0  0
M  END
> <VConfSearch Rank>
908

> <Conf_Id>
33

> <Delta U+W>
0.015

> <U+W>
3.025

> <U>
5.843

> <W>
-2.819

> <W(PB)>
-4.568

> <W(SA)>
1.750

> <Valence>
13.789

> <Coulomb>
-8.574

> <VdW>
0.628

> <VdW6>
-3.284

> <VdW12>
3.913

> <Bond>
0.054

> <Angle>
4.033

> <Pdih>
9.702

> <Idih>
0.000

> <Tether>
0.000

$$$$
VeraChem MOL file


 16 16  0  0  0  0  0  0  0  0999 V2000     
   19.3125   19.8472   22.7587 C   0  0  0  0  0  0  0  0  0  0  0  0
   20.2868   20.3430   22.8684 H   0  0  0  0  0  0  0  0  0  0  0  0
   18.5398   20.5534   23.0920 H   0  0  0  0  0  0  0  0  0  0  0  0
   19.2888   18.5457   23.5897 C   0  0  0  0  0  0  0  0  0  0  0  0
   20.2513   18.4121   24.1024 H   0  0  0  0  0  0  0  0  0  0  0  0
   18.5030   18.5707   24.3571 H   0  0  0  0  0  0  0  0  0  0  0  0
   19.0523   17.3929   22.5909 C   0  0  0  0  0  0  0  0  0  0  0  0
   17.9870   17.1271   22.5831 H   0  0  0  0  0  0  0  0  0  0  0  0
   19.6199   16.4906   22.8546 H   0  0  0  0  0  0  0  0  0  0  0  0
   19.4393   17.9404   21.2105 C   0  0  0  0  0  0  0  0  0  0  0  0
   18.8855   17.4362   20.4054 H   0  0  0  0  0  0  0  0  0  0  0  0
   19.0881   19.4321   21.2891 C   0  0  0  0  0  0  0  0  0  0  0  0
   19.6819   20.0367   20.5905 H   0  0  0  0  0  0  0  0  0  0  0  0
   18.0296   19.5634   21.0283 H   0  0  0  0  0  0  0  0  0  0  0  0
   20.8405   17.7988   21.0272 O   0  0  0  0  0  0  0  0  0  0  0  0
   21.2454   18.2735   21.7821 H   0  0  0  0  0  0  0  0  0  0  0  0
  1  2  1  0  0  0  0
  1  3  1  0  0  0  0
  1  4  1  0  0  0  0
  4  5  1  0  0  0  0
  4  6  1  0  0  0  0
  4  7  1  0  0  0  0
  7  8  1  0  0  0  0
  7  9  1  0  0  0  0
  7 10  1  0  0  0  0
 10 11  1  0  0  0  0
  1 12  1  0  0  0  0
 10 12  1  0  0  0  0
 12 13  1  0  0  0  0
 12 14  1  0  0  0  0
 10 15  1  0  0  0  0
 15 16  1  0  0  0  0
M  END
> <VConfSearch Rank>
909

> <Conf_Id>
20

> <Delta U+W>
-0.483

> <U+W>
2.527

> <U>
4.508

> <W>
-1.981

> <W(PB)>
-3.712

> <W(SA)>
1.732

> <Valence>
14.705

> <Coulomb>
-10.687

> <VdW>
0.490

> <VdW6>
-3.745

> <VdW12>
4.235

> <Bond>
0.068

> <Angle>
3.901

> <Pdih>
10.737

> <Idih>
0.000

> <Tether>
0.000

$$$$
VeraChem MOL file


 16 16  0  0  0  0  0  0  0  0999 V2000     
   18.5885   19.6327   21.7158 C   0  0  0  0  0  0  0  0  0  0  0  0
   18.8660   19.6240   20.6525 H   0  0  0  0  0  0  0  0  0  0  0  0
   17.8181   20.4016   21.8642 H   0  0  0  0  0  0  0  0  0  0  0  0
   19.8381   19.8823   22.5714 C   0  0  0  0  0  0  0  0  0  0  0  0
   20.5100   20.6266   22.1228 H   0  0  0  0  0  0  0  0  0  0  0  0
   19.5394   20.2438   23.5653 H   0  0  0  0  0  0  0  0  0  0  0  0
   20.4988   18.4973   22.6977 C   0  0  0  0  0  0  0  0  0  0  0  0
   21.0576   18.4037   23.6377 H   0  0  0  0  0  0  0  0  0  0  0  0
   21.2060   18.3553   21.8691 H   0  0  0  0  0  0  0  0  0  0  0  0
   19.3579   17.4617   22.6104 C   0  0  0  0  0  0  0  0  0  0  0  0
   19.1635   17.0313   23.6036 H   0  0  0  0  0  0  0  0  0  0  0  0
   18.1082   18.2310   22.1349 C   0  0  0  0  0  0  0  0  0  0  0  0
   17.5909   17.7184   21.3129 H   0  0  0  0  0  0  0  0  0  0  0  0
   17.4019   18.3181   22.9708 H   0  0  0  0  0  0  0  0  0  0  0  0
   19.6912   16.4418   21.6762 O   0  0  0  0  0  0  0  0  0  0  0  0
   20.4935   15.9958   22.0210 H   0  0  0  0  0  0  0  0  0  0  0  0
  1  2  1  0  0  0  0
  1  3  1  0  0  0  0
  1  4  1  0  0  0  0
  4  5  1  0  0  0  0
  4  6  1  0  0  0  0
  4  7  1  0  0  0  0
  7  8  1  0  0  0  0
  7  9  1  0  0  0  0
  7 10  1  0  0  0  0
 10 11  1  0  0  0  0
  1 12  1  0  0  0  0
 10 12  1  0  0  0  0
 12 13  1  0  0  0  0
 12 14  1  0  0  0  0
 10 15  1  0  0  0  0
 15 16  1  0  0  0  0
M  END
> <VConfSearch Rank>
910

> <Conf_Id>
59

> <Delta U+W>
0.000

> <U+W>
3.010

> <U>
5.843

> <W>
-2.833

> <W(PB)>
-4.568

> <W(SA)>
1.735

> <Valence>
13.789

> <Coulomb>
-8.574

> <VdW>
0.628

> <VdW6>
-3.284

> <VdW12>
3.912

> <Bond>
0.054

> <Angle>
4.034

> <Pdih>
9.702

> <Idih>
0.000

> <Tether>
0.000

$$$$
VeraChem MOL file


 16 16  0  0  0  0  0  0  0  0999 V2000     
   19.4981   20.0227   22.5549 C   0  0  0  0  0  0  0  0  0  0  0  0
   20.2091   20.7809   22.9106 H   0  0  0  0  0  0  0  0  0  0  0  0
   18.5943   20.5383   22.2016 H   0  0  0  0  0  0  0  0  0  0  0  0
   19.1227   19.0149   23.6499 C   0  0  0  0  0  0  0  0  0  0  0  0
   20.0137   18.7672   24.2436 H   0  0  0  0  0  0  0  0  0  0  0  0
   18.3525   19.4023   24.3305 H   0  0  0  0  0  0  0  0  0  0  0  0
   18.6528   17.7668   22.8801 C   0  0  0  0  0  0  0  0  0  0  0  0
   17.5718   17.8305   22.6998 H   0  0  0  0  0  0  0  0  0  0  0  0
   18.8429   16.8462   23.4478 H   0  0  0  0  0  0  0  0  0  0  0  0
   19.3904   17.7822   21.5253 C   0  0  0  0  0  0  0  0  0  0  0  0
   18.6591   17.6662   20.7121 H   0  0  0  0  0  0  0  0  0  0  0  0
   20.0813   19.1583   21.4221 C   0  0  0  0  0  0  0  0  0  0  0  0
   21.1650   19.0521   21.5673 H   0  0  0  0  0  0  0  0  0  0  0  0
   19.9164   19.6199   20.4399 H   0  0  0  0  0  0  0  0  0  0  0  0
   20.3598   16.7418   21.4827 O   0  0  0  0  0  0  0  0  0  0  0  0
   20.8027   16.8056   20.6102 H   0  0  0  0  0  0  0  0  0  0  0  0
  1  2  1  0  0  0  0
  1  3  1  0  0  0  0
  1  4  1  0  0  0  0
  4  5  1  0  0  0  0
  4  6  1  0  0  0  0
  4  7  1  0  0  0  0
  7  8  1  0  0  0  0
  7  9  1  0  0  0  0
  7 10  1  0  0  0  0
 10 11  1  0  0  0  0
  1 12  1  0  0  0  0
 10 12  1  0  0  0  0
 12 13  1  0  0  0  0
 12 14  1  0  0  0  0
 10 15  1  0  0  0  0
 15 16  1  0  0  0  0
M  END
> <VConfSearch Rank>
911

> <Conf_Id>
33

> <Delta U+W>
0.015

> <U+W>
3.025

> <U>
5.843

> <W>
-2.819

> <W(PB)>
-4.568

> <W(SA)>
1.750

> <Valence>
13.789

> <Coulomb>
-8.574

> <VdW>
0.628

> <VdW6>
-3.284

> <VdW12>
3.913

> <Bond>
0.054

> <Angle>
4.033

> <Pdih>
9.702

> <Idih>
0.000

> <Tether>
0.000

$$$$
VeraChem MOL file


 16 16  0  0  0  0  0  0  0  0999 V2000     
   18.5283   18.4899   21.2344 C   0  0  0  0  0  0  0  0  0  0  0  0
   19.0130   18.3495   20.2584 H   0  0  0  0  0  0  0  0  0  0  0  0
   17.4418   18.4719   21.0726 H   0  0  0  0  0  0  0  0  0  0  0  0
   18.9870   19.8246   21.8614 C   0  0  0  0  0  0  0  0  0  0  0  0
   19.6929   20.3306   21.1884 H   0  0  0  0  0  0  0  0  0  0  0  0
   18.1402   20.5044   22.0285 H   0  0  0  0  0  0  0  0  0  0  0  0
   19.6823   19.4669   23.1922 C   0  0  0  0  0  0  0  0  0  0  0  0
   18.9742   19.5938   24.0217 H   0  0  0  0  0  0  0  0  0  0  0  0
   20.5510   20.1079   23.3934 H   0  0  0  0  0  0  0  0  0  0  0  0
   20.0656   17.9847   23.0866 C   0  0  0  0  0  0  0  0  0  0  0  0
   20.1071   17.5060   24.0756 H   0  0  0  0  0  0  0  0  0  0  0  0
   18.9626   17.3759   22.2104 C   0  0  0  0  0  0  0  0  0  0  0  0
   19.2993   16.4713   21.6865 H   0  0  0  0  0  0  0  0  0  0  0  0
   18.1141   17.0960   22.8486 H   0  0  0  0  0  0  0  0  0  0  0  0
   21.3121   17.8706   22.4158 O   0  0  0  0  0  0  0  0  0  0  0  0
   21.1805   18.3198   21.5555 H   0  0  0  0  0  0  0  0  0  0  0  0
  1  2  1  0  0  0  0
  1  3  1  0  0  0  0
  1  4  1  0  0  0  0
  4  5  1  0  0  0  0
  4  6  1  0  0  0  0
  4  7  1  0  0  0  0
  7  8  1  0  0  0  0
  7  9  1  0  0  0  0
  7 10  1  0  0  0  0
 10 11  1  0  0  0  0
  1 12  1  0  0  0  0
 10 12  1  0  0  0  0
 12 13  1  0  0  0  0
 12 14  1  0  0  0  0
 10 15  1  0  0  0  0
 15 16  1  0  0  0  0
M  END
> <VConfSearch Rank>
912

> <Conf_Id>
20

> <Delta U+W>
-0.483

> <U+W>
2.527

> <U>
4.508

> <W>
-1.981

> <W(PB)>
-3.712

> <W(SA)>
1.732

> <Valence>
14.705

> <Coulomb>
-10.687

> <VdW>
0.490

> <VdW6>
-3.745

> <VdW12>
4.235

> <Bond>
0.068

> <Angle>
3.901

> <Pdih>
10.737

> <Idih>
0.000

> <Tether>
0.000

$$$$
VeraChem MOL file


 16 16  0  0  0  0  0  0  0  0999 V2000     
   18.2517   19.1150   21.5559 C   0  0  0  0  0  0  0  0  0  0  0  0
   18.7189   19.5982   20.6865 H   0  0  0  0  0  0  0  0  0  0  0  0
   17.1617   19.2088   21.4572 H   0  0  0  0  0  0  0  0  0  0  0  0
   18.7807   19.7557   22.8464 C   0  0  0  0  0  0  0  0  0  0  0  0
   18.8934   20.8448   22.7566 H   0  0  0  0  0  0  0  0  0  0  0  0
   18.0867   19.5491   23.6731 H   0  0  0  0  0  0  0  0  0  0  0  0
   20.1231   19.0470   23.1036 C   0  0  0  0  0  0  0  0  0  0  0  0
   20.3555   19.0049   24.1756 H   0  0  0  0  0  0  0  0  0  0  0  0
   20.9288   19.6031   22.6053 H   0  0  0  0  0  0  0  0  0  0  0  0
   19.9927   17.6346   22.4956 C   0  0  0  0  0  0  0  0  0  0  0  0
   19.8869   16.8883   23.2965 H   0  0  0  0  0  0  0  0  0  0  0  0
   18.7101   17.6473   21.6384 C   0  0  0  0  0  0  0  0  0  0  0  0
   18.8713   17.2175   20.6407 H   0  0  0  0  0  0  0  0  0  0  0  0
   17.9388   17.0479   22.1393 H   0  0  0  0  0  0  0  0  0  0  0  0
   21.1233   17.3438   21.6825 O   0  0  0  0  0  0  0  0  0  0  0  0
   21.9059   17.3597   22.2731 H   0  0  0  0  0  0  0  0  0  0  0  0
  1  2  1  0  0  0  0
  1  3  1  0  0  0  0
  1  4  1  0  0  0  0
  4  5  1  0  0  0  0
  4  6  1  0  0  0  0
  4  7  1  0  0  0  0
  7  8  1  0  0  0  0
  7  9  1  0  0  0  0
  7 10  1  0  0  0  0
 10 11  1  0  0  0  0
  1 12  1  0  0  0  0
 10 12  1  0  0  0  0
 12 13  1  0  0  0  0
 12 14  1  0  0  0  0
 10 15  1  0  0  0  0
 15 16  1  0  0  0  0
M  END
> <VConfSearch Rank>
913

> <Conf_Id>
59

> <Delta U+W>
0.000

> <U+W>
3.010

> <U>
5.843

> <W>
-2.833

> <W(PB)>
-4.568

> <W(SA)>
1.735

> <Valence>
13.789

> <Coulomb>
-8.574

> <VdW>
0.628

> <VdW6>
-3.284

> <VdW12>
3.912

> <Bond>
0.054

> <Angle>
4.034

> <Pdih>
9.702

> <Idih>
0.000

> <Tether>
0.000

$$$$
VeraChem MOL file


 16 16  0  0  0  0  0  0  0  0999 V2000     
   19.1472   18.9378   20.9280 C   0  0  0  0  0  0  0  0  0  0  0  0
   18.5165   18.5732   20.1057 H   0  0  0  0  0  0  0  0  0  0  0  0
   19.5842   19.8996   20.6253 H   0  0  0  0  0  0  0  0  0  0  0  0
   20.2674   17.9516   21.2863 C   0  0  0  0  0  0  0  0  0  0  0  0
   19.8821   16.9236   21.2388 H   0  0  0  0  0  0  0  0  0  0  0  0
   21.1272   18.0286   20.6071 H   0  0  0  0  0  0  0  0  0  0  0  0
   20.6347   18.2979   22.7410 C   0  0  0  0  0  0  0  0  0  0  0  0
   21.4283   19.0564   22.7500 H   0  0  0  0  0  0  0  0  0  0  0  0
   21.0068   17.4190   23.2842 H   0  0  0  0  0  0  0  0  0  0  0  0
   19.3650   18.8907   23.3861 C   0  0  0  0  0  0  0  0  0  0  0  0
   19.6133   19.8512   23.8609 H   0  0  0  0  0  0  0  0  0  0  0  0
   18.3578   19.1136   22.2382 C   0  0  0  0  0  0  0  0  0  0  0  0
   17.5570   18.3630   22.2833 H   0  0  0  0  0  0  0  0  0  0  0  0
   17.8931   20.1063   22.2963 H   0  0  0  0  0  0  0  0  0  0  0  0
   18.8290   17.9814   24.3398 O   0  0  0  0  0  0  0  0  0  0  0  0
   18.0230   18.4019   24.7073 H   0  0  0  0  0  0  0  0  0  0  0  0
  1  2  1  0  0  0  0
  1  3  1  0  0  0  0
  1  4  1  0  0  0  0
  4  5  1  0  0  0  0
  4  6  1  0  0  0  0
  4  7  1  0  0  0  0
  7  8  1  0  0  0  0
  7  9  1  0  0  0  0
  7 10  1  0  0  0  0
 10 11  1  0  0  0  0
  1 12  1  0  0  0  0
 10 12  1  0  0  0  0
 12 13  1  0  0  0  0
 12 14  1  0  0  0  0
 10 15  1  0  0  0  0
 15 16  1  0  0  0  0
M  END
> <VConfSearch Rank>
914

> <Conf_Id>
33

> <Delta U+W>
0.015

> <U+W>
3.025

> <U>
5.843

> <W>
-2.819

> <W(PB)>
-4.568

> <W(SA)>
1.750

> <Valence>
13.789

> <Coulomb>
-8.574

> <VdW>
0.628

> <VdW6>
-3.284

> <VdW12>
3.913

> <Bond>
0.054

> <Angle>
4.033

> <Pdih>
9.702

> <Idih>
0.000

> <Tether>
0.000

$$$$
VeraChem MOL file


 16 16  0  0  0  0  0  0  0  0999 V2000     
   18.1011   18.9591   22.4378 C   0  0  0  0  0  0  0  0  0  0  0  0
   17.9488   20.0279   22.6418 H   0  0  0  0  0  0  0  0  0  0  0  0
   17.1135   18.4781   22.4252 H   0  0  0  0  0  0  0  0  0  0  0  0
   19.0186   18.3440   23.5171 C   0  0  0  0  0  0  0  0  0  0  0  0
   19.3094   19.1148   24.2440 H   0  0  0  0  0  0  0  0  0  0  0  0
   18.5112   17.5405   24.0684 H   0  0  0  0  0  0  0  0  0  0  0  0
   20.2647   17.8095   22.7795 C   0  0  0  0  0  0  0  0  0  0  0  0
   20.1509   16.7322   22.6002 H   0  0  0  0  0  0  0  0  0  0  0  0
   21.1861   17.9563   23.3586 H   0  0  0  0  0  0  0  0  0  0  0  0
   20.3045   18.5379   21.4293 C   0  0  0  0  0  0  0  0  0  0  0  0
   20.8068   17.9351   20.6590 H   0  0  0  0  0  0  0  0  0  0  0  0
   18.8267   18.7721   21.0884 C   0  0  0  0  0  0  0  0  0  0  0  0
   18.6855   19.6300   20.4174 H   0  0  0  0  0  0  0  0  0  0  0  0
   18.4326   17.8821   20.5802 H   0  0  0  0  0  0  0  0  0  0  0  0
   20.9511   19.7916   21.5931 O   0  0  0  0  0  0  0  0  0  0  0  0
   20.4402   20.2526   22.2900 H   0  0  0  0  0  0  0  0  0  0  0  0
  1  2  1  0  0  0  0
  1  3  1  0  0  0  0
  1  4  1  0  0  0  0
  4  5  1  0  0  0  0
  4  6  1  0  0  0  0
  4  7  1  0  0  0  0
  7  8  1  0  0  0  0
  7  9  1  0  0  0  0
  7 10  1  0  0  0  0
 10 11  1  0  0  0  0
  1 12  1  0  0  0  0
 10 12  1  0  0  0  0
 12 13  1  0  0  0  0
 12 14  1  0  0  0  0
 10 15  1  0  0  0  0
 15 16  1  0  0  0  0
M  END
> <VConfSearch Rank>
915

> <Conf_Id>
20

> <Delta U+W>
-0.483

> <U+W>
2.527

> <U>
4.508

> <W>
-1.981

> <W(PB)>
-3.712

> <W(SA)>
1.732

> <Valence>
14.705

> <Coulomb>
-10.687

> <VdW>
0.490

> <VdW6>
-3.745

> <VdW12>
4.235

> <Bond>
0.068

> <Angle>
3.901

> <Pdih>
10.737

> <Idih>
0.000

> <Tether>
0.000

$$$$
VeraChem MOL file


 16 16  0  0  0  0  0  0  0  0999 V2000     
   19.9006   19.5295   23.2459 C   0  0  0  0  0  0  0  0  0  0  0  0
   20.3744   18.9331   24.0379 H   0  0  0  0  0  0  0  0  0  0  0  0
   20.0830   20.5915   23.4590 H   0  0  0  0  0  0  0  0  0  0  0  0
   18.4044   19.1944   23.1750 C   0  0  0  0  0  0  0  0  0  0  0  0
   17.9586   19.0602   24.1700 H   0  0  0  0  0  0  0  0  0  0  0  0
   17.8676   20.0062   22.6646 H   0  0  0  0  0  0  0  0  0  0  0  0
   18.3388   17.9119   22.3257 C   0  0  0  0  0  0  0  0  0  0  0  0
   17.3915   17.8432   21.7755 H   0  0  0  0  0  0  0  0  0  0  0  0
   18.4107   17.0358   22.9845 H   0  0  0  0  0  0  0  0  0  0  0  0
   19.5484   17.9618   21.3686 C   0  0  0  0  0  0  0  0  0  0  0  0
   19.2112   18.1929   20.3476 H   0  0  0  0  0  0  0  0  0  0  0  0
   20.4567   19.1012   21.8753 C   0  0  0  0  0  0  0  0  0  0  0  0
   21.5094   18.7960   21.9436 H   0  0  0  0  0  0  0  0  0  0  0  0
   20.3984   19.9440   21.1743 H   0  0  0  0  0  0  0  0  0  0  0  0
   20.2501   16.7246   21.3992 O   0  0  0  0  0  0  0  0  0  0  0  0
   19.6258   16.0393   21.0797 H   0  0  0  0  0  0  0  0  0  0  0  0
  1  2  1  0  0  0  0
  1  3  1  0  0  0  0
  1  4  1  0  0  0  0
  4  5  1  0  0  0  0
  4  6  1  0  0  0  0
  4  7  1  0  0  0  0
  7  8  1  0  0  0  0
  7  9  1  0  0  0  0
  7 10  1  0  0  0  0
 10 11  1  0  0  0  0
  1 12  1  0  0  0  0
 10 12  1  0  0  0  0
 12 13  1  0  0  0  0
 12 14  1  0  0  0  0
 10 15  1  0  0  0  0
 15 16  1  0  0  0  0
M  END
> <VConfSearch Rank>
916

> <Conf_Id>
59

> <Delta U+W>
0.000

> <U+W>
3.010

> <U>
5.843

> <W>
-2.833

> <W(PB)>
-4.568

> <W(SA)>
1.735

> <Valence>
13.789

> <Coulomb>
-8.574

> <VdW>
0.628

> <VdW6>
-3.284

> <VdW12>
3.912

> <Bond>
0.054

> <Angle>
4.034

> <Pdih>
9.702

> <Idih>
0.000

> <Tether>
0.000

$$$$
VeraChem MOL file


 16 16  0  0  0  0  0  0  0  0999 V2000     
   20.4687   19.4349   21.7007 C   0  0  0  0  0  0  0  0  0  0  0  0
   20.6949   20.4990   21.5484 H   0  0  0  0  0  0  0  0  0  0  0  0
   21.3470   18.8497   21.3943 H   0  0  0  0  0  0  0  0  0  0  0  0
   19.2402   18.9788   20.9017 C   0  0  0  0  0  0  0  0  0  0  0  0
   18.4712   19.7634   20.9287 H   0  0  0  0  0  0  0  0  0  0  0  0
   19.4785   18.7666   19.8505 H   0  0  0  0  0  0  0  0  0  0  0  0
   18.7331   17.7336   21.6522 C   0  0  0  0  0  0  0  0  0  0  0  0
   19.2147   16.8356   21.2437 H   0  0  0  0  0  0  0  0  0  0  0  0
   17.6475   17.6094   21.5422 H   0  0  0  0  0  0  0  0  0  0  0  0
   19.1565   17.9054   23.1256 C   0  0  0  0  0  0  0  0  0  0  0  0
   19.6811   16.9988   23.4609 H   0  0  0  0  0  0  0  0  0  0  0  0
   20.1143   19.1149   23.1644 C   0  0  0  0  0  0  0  0  0  0  0  0
   19.6136   19.9826   23.6150 H   0  0  0  0  0  0  0  0  0  0  0  0
   21.0129   18.8990   23.7567 H   0  0  0  0  0  0  0  0  0  0  0  0
   18.0157   18.1563   23.9378 O   0  0  0  0  0  0  0  0  0  0  0  0
   18.3428   18.2678   24.8554 H   0  0  0  0  0  0  0  0  0  0  0  0
  1  2  1  0  0  0  0
  1  3  1  0  0  0  0
  1  4  1  0  0  0  0
  4  5  1  0  0  0  0
  4  6  1  0  0  0  0
  4  7  1  0  0  0  0
  7  8  1  0  0  0  0
  7  9  1  0  0  0  0
  7 10  1  0  0  0  0
 10 11  1  0  0  0  0
  1 12  1  0  0  0  0
 10 12  1  0  0  0  0
 12 13  1  0  0  0  0
 12 14  1  0  0  0  0
 10 15  1  0  0  0  0
 15 16  1  0  0  0  0
M  END
> <VConfSearch Rank>
917

> <Conf_Id>
33

> <Delta U+W>
0.015

> <U+W>
3.025

> <U>
5.843

> <W>
-2.819

> <W(PB)>
-4.568

> <W(SA)>
1.750

> <Valence>
13.789

> <Coulomb>
-8.574

> <VdW>
0.628

> <VdW6>
-3.284

> <VdW12>
3.913

> <Bond>
0.054

> <Angle>
4.033

> <Pdih>
9.702

> <Idih>
0.000

> <Tether>
0.000

$$$$
VeraChem MOL file


 16 16  0  0  0  0  0  0  0  0999 V2000     
   18.1522   18.8898   21.8068 C   0  0  0  0  0  0  0  0  0  0  0  0
   18.1118   19.7277   21.0972 H   0  0  0  0  0  0  0  0  0  0  0  0
   17.1304   18.5041   21.9257 H   0  0  0  0  0  0  0  0  0  0  0  0
   18.7386   19.3691   23.1527 C   0  0  0  0  0  0  0  0  0  0  0  0
   18.9809   20.4392   23.0948 H   0  0  0  0  0  0  0  0  0  0  0  0
   18.0238   19.2333   23.9759 H   0  0  0  0  0  0  0  0  0  0  0  0
   20.0213   18.5440   23.3899 C   0  0  0  0  0  0  0  0  0  0  0  0
   19.7976   17.7021   24.0582 H   0  0  0  0  0  0  0  0  0  0  0  0
   20.8182   19.1383   23.8564 H   0  0  0  0  0  0  0  0  0  0  0  0
   20.4334   17.9948   22.0174 C   0  0  0  0  0  0  0  0  0  0  0  0
   20.9922   17.0524   22.1099 H   0  0  0  0  0  0  0  0  0  0  0  0
   19.1020   17.7921   21.2818 C   0  0  0  0  0  0  0  0  0  0  0  0
   19.2196   17.8304   20.1906 H   0  0  0  0  0  0  0  0  0  0  0  0
   18.6988   16.8040   21.5400 H   0  0  0  0  0  0  0  0  0  0  0  0
   21.2014   18.9741   21.3332 O   0  0  0  0  0  0  0  0  0  0  0  0
   20.6295   19.7684   21.2993 H   0  0  0  0  0  0  0  0  0  0  0  0
  1  2  1  0  0  0  0
  1  3  1  0  0  0  0
  1  4  1  0  0  0  0
  4  5  1  0  0  0  0
  4  6  1  0  0  0  0
  4  7  1  0  0  0  0
  7  8  1  0  0  0  0
  7  9  1  0  0  0  0
  7 10  1  0  0  0  0
 10 11  1  0  0  0  0
  1 12  1  0  0  0  0
 10 12  1  0  0  0  0
 12 13  1  0  0  0  0
 12 14  1  0  0  0  0
 10 15  1  0  0  0  0
 15 16  1  0  0  0  0
M  END
> <VConfSearch Rank>
918

> <Conf_Id>
20

> <Delta U+W>
-0.483

> <U+W>
2.527

> <U>
4.508

> <W>
-1.981

> <W(PB)>
-3.712

> <W(SA)>
1.732

> <Valence>
14.705

> <Coulomb>
-10.687

> <VdW>
0.490

> <VdW6>
-3.745

> <VdW12>
4.235

> <Bond>
0.068

> <Angle>
3.901

> <Pdih>
10.737

> <Idih>
0.000

> <Tether>
0.000

$$$$
VeraChem MOL file


 16 16  0  0  0  0  0  0  0  0999 V2000     
   19.2591   17.4317   21.3954 C   0  0  0  0  0  0  0  0  0  0  0  0
   18.7994   17.8470   20.4877 H   0  0  0  0  0  0  0  0  0  0  0  0
   19.4976   16.3759   21.2082 H   0  0  0  0  0  0  0  0  0  0  0  0
   18.3063   17.6153   22.5847 C   0  0  0  0  0  0  0  0  0  0  0  0
   17.2573   17.4381   22.3111 H   0  0  0  0  0  0  0  0  0  0  0  0
   18.5758   16.9133   23.3860 H   0  0  0  0  0  0  0  0  0  0  0  0
   18.5533   19.0609   23.0537 C   0  0  0  0  0  0  0  0  0  0  0  0
   18.3646   19.1714   24.1293 H   0  0  0  0  0  0  0  0  0  0  0  0
   17.8716   19.7373   22.5203 H   0  0  0  0  0  0  0  0  0  0  0  0
   20.0188   19.3891   22.6982 C   0  0  0  0  0  0  0  0  0  0  0  0
   20.6341   19.3984   23.6097 H   0  0  0  0  0  0  0  0  0  0  0  0
   20.5038   18.2583   21.7676 C   0  0  0  0  0  0  0  0  0  0  0  0
   21.0150   18.6434   20.8752 H   0  0  0  0  0  0  0  0  0  0  0  0
   21.2162   17.6262   22.3135 H   0  0  0  0  0  0  0  0  0  0  0  0
   20.0927   20.6417   22.0280 O   0  0  0  0  0  0  0  0  0  0  0  0
   19.7642   21.3176   22.6579 H   0  0  0  0  0  0  0  0  0  0  0  0
  1  2  1  0  0  0  0
  1  3  1  0  0  0  0
  1  4  1  0  0  0  0
  4  5  1  0  0  0  0
  4  6  1  0  0  0  0
  4  7  1  0  0  0  0
  7  8  1  0  0  0  0
  7  9  1  0  0  0  0
  7 10  1  0  0  0  0
 10 11  1  0  0  0  0
  1 12  1  0  0  0  0
 10 12  1  0  0  0  0
 12 13  1  0  0  0  0
 12 14  1  0  0  0  0
 10 15  1  0  0  0  0
 15 16  1  0  0  0  0
M  END
> <VConfSearch Rank>
919

> <Conf_Id>
59

> <Delta U+W>
0.000

> <U+W>
3.010

> <U>
5.843

> <W>
-2.833

> <W(PB)>
-4.568

> <W(SA)>
1.735

> <Valence>
13.789

> <Coulomb>
-8.574

> <VdW>
0.628

> <VdW6>
-3.284

> <VdW12>
3.912

> <Bond>
0.054

> <Angle>
4.034

> <Pdih>
9.702

> <Idih>
0.000

> <Tether>
0.000

$$$$
VeraChem MOL file


 16 16  0  0  0  0  0  0  0  0999 V2000     
   19.3901   18.2702   23.6851 C   0  0  0  0  0  0  0  0  0  0  0  0
   18.6601   18.2490   24.5058 H   0  0  0  0  0  0  0  0  0  0  0  0
   20.3106   17.7800   24.0314 H   0  0  0  0  0  0  0  0  0  0  0  0
   19.7083   19.6990   23.2234 C   0  0  0  0  0  0  0  0  0  0  0  0
   18.7875   20.2987   23.2203 H   0  0  0  0  0  0  0  0  0  0  0  0
   20.4409   20.1965   23.8734 H   0  0  0  0  0  0  0  0  0  0  0  0
   20.2202   19.5325   21.7807 C   0  0  0  0  0  0  0  0  0  0  0  0
   21.3091   19.3939   21.7898 H   0  0  0  0  0  0  0  0  0  0  0  0
   20.0016   20.4183   21.1694 H   0  0  0  0  0  0  0  0  0  0  0  0
   19.5554   18.2573   21.2225 C   0  0  0  0  0  0  0  0  0  0  0  0
   20.3290   17.5993   20.8004 H   0  0  0  0  0  0  0  0  0  0  0  0
   18.8690   17.5655   22.4192 C   0  0  0  0  0  0  0  0  0  0  0  0
   17.7793   17.6896   22.3568 H   0  0  0  0  0  0  0  0  0  0  0  0
   19.0851   16.4896   22.4415 H   0  0  0  0  0  0  0  0  0  0  0  0
   18.5911   18.5992   20.2340 O   0  0  0  0  0  0  0  0  0  0  0  0
   18.1951   17.7573   19.9244 H   0  0  0  0  0  0  0  0  0  0  0  0
  1  2  1  0  0  0  0
  1  3  1  0  0  0  0
  1  4  1  0  0  0  0
  4  5  1  0  0  0  0
  4  6  1  0  0  0  0
  4  7  1  0  0  0  0
  7  8  1  0  0  0  0
  7  9  1  0  0  0  0
  7 10  1  0  0  0  0
 10 11  1  0  0  0  0
  1 12  1  0  0  0  0
 10 12  1  0  0  0  0
 12 13  1  0  0  0  0
 12 14  1  0  0  0  0
 10 15  1  0  0  0  0
 15 16  1  0  0  0  0
M  END
> <VConfSearch Rank>
920

> <Conf_Id>
33

> <Delta U+W>
0.015

> <U+W>
3.025

> <U>
5.843

> <W>
-2.819

> <W(PB)>
-4.568

> <W(SA)>
1.750

> <Valence>
13.789

> <Coulomb>
-8.574

> <VdW>
0.628

> <VdW6>
-3.284

> <VdW12>
3.913

> <Bond>
0.054

> <Angle>
4.033

> <Pdih>
9.702

> <Idih>
0.000

> <Tether>
0.000

$$$$
VeraChem MOL file


 16 16  0  0  0  0  0  0  0  0999 V2000     
   20.4141   18.2026   22.9969 C   0  0  0  0  0  0  0  0  0  0  0  0
   20.8244   18.9728   23.6644 H   0  0  0  0  0  0  0  0  0  0  0  0
   20.9924   17.2820   23.1551 H   0  0  0  0  0  0  0  0  0  0  0  0
   20.4967   18.6801   21.5305 C   0  0  0  0  0  0  0  0  0  0  0  0
   20.9479   19.6810   21.4883 H   0  0  0  0  0  0  0  0  0  0  0  0
   21.1174   18.0087   20.9215 H   0  0  0  0  0  0  0  0  0  0  0  0
   19.0469   18.7261   21.0029 C   0  0  0  0  0  0  0  0  0  0  0  0
   18.8311   17.8068   20.4426 H   0  0  0  0  0  0  0  0  0  0  0  0
   18.8760   19.5761   20.3289 H   0  0  0  0  0  0  0  0  0  0  0  0
   18.1446   18.7772   22.2431 C   0  0  0  0  0  0  0  0  0  0  0  0
   17.1573   18.3362   22.0437 H   0  0  0  0  0  0  0  0  0  0  0  0
   18.9176   17.9768   23.2999 C   0  0  0  0  0  0  0  0  0  0  0  0
   18.6508   18.2727   24.3232 H   0  0  0  0  0  0  0  0  0  0  0  0
   18.6770   16.9114   23.1867 H   0  0  0  0  0  0  0  0  0  0  0  0
   18.0197   20.1242   22.6755 O   0  0  0  0  0  0  0  0  0  0  0  0
   18.9380   20.4293   22.8268 H   0  0  0  0  0  0  0  0  0  0  0  0
  1  2  1  0  0  0  0
  1  3  1  0  0  0  0
  1  4  1  0  0  0  0
  4  5  1  0  0  0  0
  4  6  1  0  0  0  0
  4  7  1  0  0  0  0
  7  8  1  0  0  0  0
  7  9  1  0  0  0  0
  7 10  1  0  0  0  0
 10 11  1  0  0  0  0
  1 12  1  0  0  0  0
 10 12  1  0  0  0  0
 12 13  1  0  0  0  0
 12 14  1  0  0  0  0
 10 15  1  0  0  0  0
 15 16  1  0  0  0  0
M  END
> <VConfSearch Rank>
921

> <Conf_Id>
20

> <Delta U+W>
-0.483

> <U+W>
2.527

> <U>
4.508

> <W>
-1.981

> <W(PB)>
-3.712

> <W(SA)>
1.732

> <Valence>
14.705

> <Coulomb>
-10.687

> <VdW>
0.490

> <VdW6>
-3.745

> <VdW12>
4.235

> <Bond>
0.068

> <Angle>
3.901

> <Pdih>
10.737

> <Idih>
0.000

> <Tether>
0.000

$$$$
VeraChem MOL file


 16 16  0  0  0  0  0  0  0  0999 V2000     
   18.1706   17.9505   22.8967 C   0  0  0  0  0  0  0  0  0  0  0  0
   17.5676   17.6235   22.0382 H   0  0  0  0  0  0  0  0  0  0  0  0
   17.6578   17.6380   23.8165 H   0  0  0  0  0  0  0  0  0  0  0  0
   18.3798   19.4696   22.8294 C   0  0  0  0  0  0  0  0  0  0  0  0
   17.4787   20.0012   22.4947 H   0  0  0  0  0  0  0  0  0  0  0  0
   18.6534   19.8494   23.8237 H   0  0  0  0  0  0  0  0  0  0  0  0
   19.5615   19.6510   21.8592 C   0  0  0  0  0  0  0  0  0  0  0  0
   20.1371   20.5559   22.0929 H   0  0  0  0  0  0  0  0  0  0  0  0
   19.1782   19.7501   20.8345 H   0  0  0  0  0  0  0  0  0  0  0  0
   20.4271   18.3796   21.9857 C   0  0  0  0  0  0  0  0  0  0  0  0
   21.3495   18.6059   22.5402 H   0  0  0  0  0  0  0  0  0  0  0  0
   19.5888   17.3610   22.7853 C   0  0  0  0  0  0  0  0  0  0  0  0
   19.5783   16.3688   22.3146 H   0  0  0  0  0  0  0  0  0  0  0  0
   20.0215   17.2499   23.7881 H   0  0  0  0  0  0  0  0  0  0  0  0
   20.7295   17.8612   20.6958 O   0  0  0  0  0  0  0  0  0  0  0  0
   21.2502   18.5499   20.2309 H   0  0  0  0  0  0  0  0  0  0  0  0
  1  2  1  0  0  0  0
  1  3  1  0  0  0  0
  1  4  1  0  0  0  0
  4  5  1  0  0  0  0
  4  6  1  0  0  0  0
  4  7  1  0  0  0  0
  7  8  1  0  0  0  0
  7  9  1  0  0  0  0
  7 10  1  0  0  0  0
 10 11  1  0  0  0  0
  1 12  1  0  0  0  0
 10 12  1  0  0  0  0
 12 13  1  0  0  0  0
 12 14  1  0  0  0  0
 10 15  1  0  0  0  0
 15 16  1  0  0  0  0
M  END
> <VConfSearch Rank>
922

> <Conf_Id>
59

> <Delta U+W>
0.000

> <U+W>
3.010

> <U>
5.843

> <W>
-2.833

> <W(PB)>
-4.568

> <W(SA)>
1.735

> <Valence>
13.789

> <Coulomb>
-8.574

> <VdW>
0.628

> <VdW6>
-3.284

> <VdW12>
3.912

> <Bond>
0.054

> <Angle>
4.034

> <Pdih>
9.702

> <Idih>
0.000

> <Tether>
0.000

$$$$
VeraChem MOL file


 16 16  0  0  0  0  0  0  0  0999 V2000     
   20.7233   18.8514   21.6702 C   0  0  0  0  0  0  0  0  0  0  0  0
   21.1447   18.9984   20.6664 H   0  0  0  0  0  0  0  0  0  0  0  0
   21.5115   19.0586   22.4074 H   0  0  0  0  0  0  0  0  0  0  0  0
   20.1857   17.4285   21.8753 C   0  0  0  0  0  0  0  0  0  0  0  0
   19.6813   17.0899   20.9595 H   0  0  0  0  0  0  0  0  0  0  0  0
   20.9811   16.7101   22.1158 H   0  0  0  0  0  0  0  0  0  0  0  0
   19.1549   17.5661   23.0109 C   0  0  0  0  0  0  0  0  0  0  0  0
   19.6510   17.4168   23.9788 H   0  0  0  0  0  0  0  0  0  0  0  0
   18.3569   16.8165   22.9257 H   0  0  0  0  0  0  0  0  0  0  0  0
   18.6131   19.0088   22.9406 C   0  0  0  0  0  0  0  0  0  0  0  0
   18.6888   19.4741   23.9343 H   0  0  0  0  0  0  0  0  0  0  0  0
   19.5100   19.7614   21.9352 C   0  0  0  0  0  0  0  0  0  0  0  0
   18.9691   19.9290   20.9939 H   0  0  0  0  0  0  0  0  0  0  0  0
   19.8198   20.7397   22.3247 H   0  0  0  0  0  0  0  0  0  0  0  0
   17.2644   19.0047   22.4880 O   0  0  0  0  0  0  0  0  0  0  0  0
   16.9770   19.9416   22.4518 H   0  0  0  0  0  0  0  0  0  0  0  0
  1  2  1  0  0  0  0
  1  3  1  0  0  0  0
  1  4  1  0  0  0  0
  4  5  1  0  0  0  0
  4  6  1  0  0  0  0
  4  7  1  0  0  0  0
  7  8  1  0  0  0  0
  7  9  1  0  0  0  0
  7 10  1  0  0  0  0
 10 11  1  0  0  0  0
  1 12  1  0  0  0  0
 10 12  1  0  0  0  0
 12 13  1  0  0  0  0
 12 14  1  0  0  0  0
 10 15  1  0  0  0  0
 15 16  1  0  0  0  0
M  END
> <VConfSearch Rank>
923

> <Conf_Id>
33

> <Delta U+W>
0.015

> <U+W>
3.025

> <U>
5.843

> <W>
-2.819

> <W(PB)>
-4.568

> <W(SA)>
1.750

> <Valence>
13.789

> <Coulomb>
-8.574

> <VdW>
0.628

> <VdW6>
-3.284

> <VdW12>
3.913

> <Bond>
0.054

> <Angle>
4.033

> <Pdih>
9.702

> <Idih>
0.000

> <Tether>
0.000

$$$$
VeraChem MOL file


 16 16  0  0  0  0  0  0  0  0999 V2000     
   19.8201   19.5056   21.3704 C   0  0  0  0  0  0  0  0  0  0  0  0
   20.9082   19.4928   21.2186 H   0  0  0  0  0  0  0  0  0  0  0  0
   19.3998   20.2727   20.7056 H   0  0  0  0  0  0  0  0  0  0  0  0
   19.4999   19.8009   22.8520 C   0  0  0  0  0  0  0  0  0  0  0  0
   20.4330   19.9321   23.4171 H   0  0  0  0  0  0  0  0  0  0  0  0
   18.9112   20.7220   22.9622 H   0  0  0  0  0  0  0  0  0  0  0  0
   18.7219   18.5784   23.3838 C   0  0  0  0  0  0  0  0  0  0  0  0
   17.6446   18.7884   23.3553 H   0  0  0  0  0  0  0  0  0  0  0  0
   18.9876   18.3350   24.4212 H   0  0  0  0  0  0  0  0  0  0  0  0
   19.0306   17.4256   22.4190 C   0  0  0  0  0  0  0  0  0  0  0  0
   18.2109   16.6935   22.3880 H   0  0  0  0  0  0  0  0  0  0  0  0
   19.2225   18.1162   21.0621 C   0  0  0  0  0  0  0  0  0  0  0  0
   19.8577   17.5312   20.3837 H   0  0  0  0  0  0  0  0  0  0  0  0
   18.2426   18.2368   20.5816 H   0  0  0  0  0  0  0  0  0  0  0  0
   20.2488   16.8061   22.8050 O   0  0  0  0  0  0  0  0  0  0  0  0
   20.9123   17.5266   22.8046 H   0  0  0  0  0  0  0  0  0  0  0  0
  1  2  1  0  0  0  0
  1  3  1  0  0  0  0
  1  4  1  0  0  0  0
  4  5  1  0  0  0  0
  4  6  1  0  0  0  0
  4  7  1  0  0  0  0
  7  8  1  0  0  0  0
  7  9  1  0  0  0  0
  7 10  1  0  0  0  0
 10 11  1  0  0  0  0
  1 12  1  0  0  0  0
 10 12  1  0  0  0  0
 12 13  1  0  0  0  0
 12 14  1  0  0  0  0
 10 15  1  0  0  0  0
 15 16  1  0  0  0  0
M  END
> <VConfSearch Rank>
924

> <Conf_Id>
20

> <Delta U+W>
-0.483

> <U+W>
2.527

> <U>
4.508

> <W>
-1.981

> <W(PB)>
-3.712

> <W(SA)>
1.732

> <Valence>
14.705

> <Coulomb>
-10.687

> <VdW>
0.490

> <VdW6>
-3.745

> <VdW12>
4.235

> <Bond>
0.068

> <Angle>
3.901

> <Pdih>
10.737

> <Idih>
0.000

> <Tether>
0.000

$$$$
VeraChem MOL file


 16 16  0  0  0  0  0  0  0  0999 V2000     
   19.5273   18.6958   23.7512 C   0  0  0  0  0  0  0  0  0  0  0  0
   19.3322   17.6948   24.1605 H   0  0  0  0  0  0  0  0  0  0  0  0
   19.8184   19.3557   24.5797 H   0  0  0  0  0  0  0  0  0  0  0  0
   18.2815   19.2002   23.0100 C   0  0  0  0  0  0  0  0  0  0  0  0
   17.3506   18.9385   23.5311 H   0  0  0  0  0  0  0  0  0  0  0  0
   18.3259   20.2941   22.9143 H   0  0  0  0  0  0  0  0  0  0  0  0
   18.3756   18.5512   21.6169 C   0  0  0  0  0  0  0  0  0  0  0  0
   17.8962   19.1743   20.8509 H   0  0  0  0  0  0  0  0  0  0  0  0
   17.8613   17.5807   21.6329 H   0  0  0  0  0  0  0  0  0  0  0  0
   19.8791   18.3550   21.3292 C   0  0  0  0  0  0  0  0  0  0  0  0
   20.2187   19.0895   20.5843 H   0  0  0  0  0  0  0  0  0  0  0  0
   20.6129   18.6053   22.6629 C   0  0  0  0  0  0  0  0  0  0  0  0
   21.3470   17.8202   22.8884 H   0  0  0  0  0  0  0  0  0  0  0  0
   21.1529   19.5591   22.6008 H   0  0  0  0  0  0  0  0  0  0  0  0
   20.1232   17.0287   20.8762 O   0  0  0  0  0  0  0  0  0  0  0  0
   19.6271   16.9223   20.0371 H   0  0  0  0  0  0  0  0  0  0  0  0
  1  2  1  0  0  0  0
  1  3  1  0  0  0  0
  1  4  1  0  0  0  0
  4  5  1  0  0  0  0
  4  6  1  0  0  0  0
  4  7  1  0  0  0  0
  7  8  1  0  0  0  0
  7  9  1  0  0  0  0
  7 10  1  0  0  0  0
 10 11  1  0  0  0  0
  1 12  1  0  0  0  0
 10 12  1  0  0  0  0
 12 13  1  0  0  0  0
 12 14  1  0  0  0  0
 10 15  1  0  0  0  0
 15 16  1  0  0  0  0
M  END
> <VConfSearch Rank>
925

> <Conf_Id>
59

> <Delta U+W>
0.000

> <U+W>
3.010

> <U>
5.843

> <W>
-2.833

> <W(PB)>
-4.568

> <W(SA)>
1.735

> <Valence>
13.789

> <Coulomb>
-8.574

> <VdW>
0.628

> <VdW6>
-3.284

> <VdW12>
3.912

> <Bond>
0.054

> <Angle>
4.034

> <Pdih>
9.702

> <Idih>
0.000

> <Tether>
0.000

$$$$
VeraChem MOL file


 16 16  0  0  0  0  0  0  0  0999 V2000     
   20.2974   19.4886   21.5322 C   0  0  0  0  0  0  0  0  0  0  0  0
   21.2397   19.4549   20.9686 H   0  0  0  0  0  0  0  0  0  0  0  0
   19.8286   20.4675   21.3595 H   0  0  0  0  0  0  0  0  0  0  0  0
   20.5093   19.2761   23.0374 C   0  0  0  0  0  0  0  0  0  0  0  0
   21.2736   18.5025   23.1961 H   0  0  0  0  0  0  0  0  0  0  0  0
   20.8353   20.1920   23.5487 H   0  0  0  0  0  0  0  0  0  0  0  0
   19.1486   18.7693   23.5502 C   0  0  0  0  0  0  0  0  0  0  0  0
   18.5283   19.6227   23.8539 H   0  0  0  0  0  0  0  0  0  0  0  0
   19.2644   18.1134   24.4233 H   0  0  0  0  0  0  0  0  0  0  0  0
   18.4712   18.0518   22.3644 C   0  0  0  0  0  0  0  0  0  0  0  0
   17.4543   18.4493   22.2322 H   0  0  0  0  0  0  0  0  0  0  0  0
   19.3273   18.3664   21.1195 C   0  0  0  0  0  0  0  0  0  0  0  0
   19.9033   17.4804   20.8198 H   0  0  0  0  0  0  0  0  0  0  0  0
   18.7046   18.6679   20.2673 H   0  0  0  0  0  0  0  0  0  0  0  0
   18.4372   16.6484   22.5949 O   0  0  0  0  0  0  0  0  0  0  0  0
   18.0095   16.2448   21.8102 H   0  0  0  0  0  0  0  0  0  0  0  0
  1  2  1  0  0  0  0
  1  3  1  0  0  0  0
  1  4  1  0  0  0  0
  4  5  1  0  0  0  0
  4  6  1  0  0  0  0
  4  7  1  0  0  0  0
  7  8  1  0  0  0  0
  7  9  1  0  0  0  0
  7 10  1  0  0  0  0
 10 11  1  0  0  0  0
  1 12  1  0  0  0  0
 10 12  1  0  0  0  0
 12 13  1  0  0  0  0
 12 14  1  0  0  0  0
 10 15  1  0  0  0  0
 15 16  1  0  0  0  0
M  END
> <VConfSearch Rank>
926

> <Conf_Id>
33

> <Delta U+W>
0.015

> <U+W>
3.025

> <U>
5.843

> <W>
-2.819

> <W(PB)>
-4.568

> <W(SA)>
1.750

> <Valence>
13.789

> <Coulomb>
-8.574

> <VdW>
0.628

> <VdW6>
-3.284

> <VdW12>
3.913

> <Bond>
0.054

> <Angle>
4.033

> <Pdih>
9.702

> <Idih>
0.000

> <Tether>
0.000

$$$$
VeraChem MOL file


 16 16  0  0  0  0  0  0  0  0999 V2000     
   18.6005   18.7405   21.1797 C   0  0  0  0  0  0  0  0  0  0  0  0
   19.1208   19.1221   20.2904 H   0  0  0  0  0  0  0  0  0  0  0  0
   17.5541   18.5561   20.9001 H   0  0  0  0  0  0  0  0  0  0  0  0
   18.7086   19.7641   22.3310 C   0  0  0  0  0  0  0  0  0  0  0  0
   19.2804   20.6415   21.9986 H   0  0  0  0  0  0  0  0  0  0  0  0
   17.7188   20.1144   22.6544 H   0  0  0  0  0  0  0  0  0  0  0  0
   19.4482   19.0508   23.4828 C   0  0  0  0  0  0  0  0  0  0  0  0
   18.7171   18.6692   24.2076 H   0  0  0  0  0  0  0  0  0  0  0  0
   20.1305   19.7237   24.0192 H   0  0  0  0  0  0  0  0  0  0  0  0
   20.1839   17.8644   22.8453 C   0  0  0  0  0  0  0  0  0  0  0  0
   20.3248   17.0431   23.5626 H   0  0  0  0  0  0  0  0  0  0  0  0
   19.2777   17.4467   21.6794 C   0  0  0  0  0  0  0  0  0  0  0  0
   19.8338   16.9338   20.8834 H   0  0  0  0  0  0  0  0  0  0  0  0
   18.5129   16.7531   22.0530 H   0  0  0  0  0  0  0  0  0  0  0  0
   21.4313   18.3087   22.3322 O   0  0  0  0  0  0  0  0  0  0  0  0
   21.2082   19.0315   21.7103 H   0  0  0  0  0  0  0  0  0  0  0  0
  1  2  1  0  0  0  0
  1  3  1  0  0  0  0
  1  4  1  0  0  0  0
  4  5  1  0  0  0  0
  4  6  1  0  0  0  0
  4  7  1  0  0  0  0
  7  8  1  0  0  0  0
  7  9  1  0  0  0  0
  7 10  1  0  0  0  0
 10 11  1  0  0  0  0
  1 12  1  0  0  0  0
 10 12  1  0  0  0  0
 12 13  1  0  0  0  0
 12 14  1  0  0  0  0
 10 15  1  0  0  0  0
 15 16  1  0  0  0  0
M  END
> <VConfSearch Rank>
927

> <Conf_Id>
20

> <Delta U+W>
-0.483

> <U+W>
2.527

> <U>
4.508

> <W>
-1.981

> <W(PB)>
-3.712

> <W(SA)>
1.732

> <Valence>
14.705

> <Coulomb>
-10.687

> <VdW>
0.490

> <VdW6>
-3.745

> <VdW12>
4.235

> <Bond>
0.068

> <Angle>
3.901

> <Pdih>
10.737

> <Idih>
0.000

> <Tether>
0.000

$$$$
VeraChem MOL file


 16 16  0  0  0  0  0  0  0  0999 V2000     
   19.7469   19.9483   22.1775 C   0  0  0  0  0  0  0  0  0  0  0  0
   18.8172   20.5176   22.3160 H   0  0  0  0  0  0  0  0  0  0  0  0
   20.5723   20.6624   22.0532 H   0  0  0  0  0  0  0  0  0  0  0  0
   19.5994   19.0076   20.9737 C   0  0  0  0  0  0  0  0  0  0  0  0
   19.0552   19.4753   20.1419 H   0  0  0  0  0  0  0  0  0  0  0  0
   20.5940   18.7127   20.6110 H   0  0  0  0  0  0  0  0  0  0  0  0
   18.8644   17.7774   21.5367 C   0  0  0  0  0  0  0  0  0  0  0  0
   19.1313   16.8649   20.9882 H   0  0  0  0  0  0  0  0  0  0  0  0
   17.7803   17.9254   21.4381 H   0  0  0  0  0  0  0  0  0  0  0  0
   19.2574   17.6797   23.0259 C   0  0  0  0  0  0  0  0  0  0  0  0
   19.9597   16.8468   23.1759 H   0  0  0  0  0  0  0  0  0  0  0  0
   19.9593   19.0076   23.3779 C   0  0  0  0  0  0  0  0  0  0  0  0
   19.5767   19.4473   24.3087 H   0  0  0  0  0  0  0  0  0  0  0  0
   21.0324   18.8203   23.5139 H   0  0  0  0  0  0  0  0  0  0  0  0
   18.0962   17.5103   23.8300 O   0  0  0  0  0  0  0  0  0  0  0  0
   17.6868   16.6619   23.5577 H   0  0  0  0  0  0  0  0  0  0  0  0
  1  2  1  0  0  0  0
  1  3  1  0  0  0  0
  1  4  1  0  0  0  0
  4  5  1  0  0  0  0
  4  6  1  0  0  0  0
  4  7  1  0  0  0  0
  7  8  1  0  0  0  0
  7  9  1  0  0  0  0
  7 10  1  0  0  0  0
 10 11  1  0  0  0  0
  1 12  1  0  0  0  0
 10 12  1  0  0  0  0
 12 13  1  0  0  0  0
 12 14  1  0  0  0  0
 10 15  1  0  0  0  0
 15 16  1  0  0  0  0
M  END
> <VConfSearch Rank>
928

> <Conf_Id>
59

> <Delta U+W>
0.000

> <U+W>
3.010

> <U>
5.843

> <W>
-2.833

> <W(PB)>
-4.568

> <W(SA)>
1.735

> <Valence>
13.789

> <Coulomb>
-8.574

> <VdW>
0.628

> <VdW6>
-3.284

> <VdW12>
3.912

> <Bond>
0.054

> <Angle>
4.034

> <Pdih>
9.702

> <Idih>
0.000

> <Tether>
0.000

$$$$
VeraChem MOL file


 16 16  0  0  0  0  0  0  0  0999 V2000     
   20.2669   17.4360   22.4069 C   0  0  0  0  0  0  0  0  0  0  0  0
   20.8114   16.8718   23.1763 H   0  0  0  0  0  0  0  0  0  0  0  0
   20.2763   16.8482   21.4785 H   0  0  0  0  0  0  0  0  0  0  0  0
   20.8841   18.8175   22.1495 C   0  0  0  0  0  0  0  0  0  0  0  0
   21.2039   19.2614   23.1026 H   0  0  0  0  0  0  0  0  0  0  0  0
   21.7556   18.7700   21.4825 H   0  0  0  0  0  0  0  0  0  0  0  0
   19.7329   19.6489   21.5539 C   0  0  0  0  0  0  0  0  0  0  0  0
   19.7337   19.5492   20.4607 H   0  0  0  0  0  0  0  0  0  0  0  0
   19.8393   20.7157   21.7920 H   0  0  0  0  0  0  0  0  0  0  0  0
   18.4246   19.0520   22.1125 C   0  0  0  0  0  0  0  0  0  0  0  0
   17.7363   18.8433   21.2806 H   0  0  0  0  0  0  0  0  0  0  0  0
   18.8140   17.7362   22.8187 C   0  0  0  0  0  0  0  0  0  0  0  0
   18.7636   17.8600   23.9091 H   0  0  0  0  0  0  0  0  0  0  0  0
   18.1407   16.9149   22.5412 H   0  0  0  0  0  0  0  0  0  0  0  0
   17.8327   19.9516   23.0422 O   0  0  0  0  0  0  0  0  0  0  0  0
   17.0166   19.5191   23.3714 H   0  0  0  0  0  0  0  0  0  0  0  0
  1  2  1  0  0  0  0
  1  3  1  0  0  0  0
  1  4  1  0  0  0  0
  4  5  1  0  0  0  0
  4  6  1  0  0  0  0
  4  7  1  0  0  0  0
  7  8  1  0  0  0  0
  7  9  1  0  0  0  0
  7 10  1  0  0  0  0
 10 11  1  0  0  0  0
  1 12  1  0  0  0  0
 10 12  1  0  0  0  0
 12 13  1  0  0  0  0
 12 14  1  0  0  0  0
 10 15  1  0  0  0  0
 15 16  1  0  0  0  0
M  END
> <VConfSearch Rank>
929

> <Conf_Id>
33

> <Delta U+W>
0.015

> <U+W>
3.025

> <U>
5.843

> <W>
-2.819

> <W(PB)>
-4.568

> <W(SA)>
1.750

> <Valence>
13.789

> <Coulomb>
-8.574

> <VdW>
0.628

> <VdW6>
-3.284

> <VdW12>
3.913

> <Bond>
0.054

> <Angle>
4.033

> <Pdih>
9.702

> <Idih>
0.000

> <Tether>
0.000

$$$$
VeraChem MOL file


 16 16  0  0  0  0  0  0  0  0999 V2000     
   18.6497   18.2708   23.3254 C   0  0  0  0  0  0  0  0  0  0  0  0
   19.2257   17.8032   24.1358 H   0  0  0  0  0  0  0  0  0  0  0  0
   17.6040   18.3378   23.6554 H   0  0  0  0  0  0  0  0  0  0  0  0
   18.7852   17.4340   22.0344 C   0  0  0  0  0  0  0  0  0  0  0  0
   19.4259   16.5610   22.2204 H   0  0  0  0  0  0  0  0  0  0  0  0
   17.8102   17.0643   21.6886 H   0  0  0  0  0  0  0  0  0  0  0  0
   19.4340   18.3568   20.9808 C   0  0  0  0  0  0  0  0  0  0  0  0
   18.6537   18.7856   20.3384 H   0  0  0  0  0  0  0  0  0  0  0  0
   20.1404   17.8186   20.3347 H   0  0  0  0  0  0  0  0  0  0  0  0
   20.1108   19.4884   21.7659 C   0  0  0  0  0  0  0  0  0  0  0  0
   20.1708   20.4125   21.1731 H   0  0  0  0  0  0  0  0  0  0  0  0
   19.2207   19.6681   23.0030 C   0  0  0  0  0  0  0  0  0  0  0  0
   19.7691   20.0994   23.8511 H   0  0  0  0  0  0  0  0  0  0  0  0
   18.3984   20.3519   22.7544 H   0  0  0  0  0  0  0  0  0  0  0  0
   21.4026   19.0652   22.1767 O   0  0  0  0  0  0  0  0  0  0  0  0
   21.2506   18.2461   22.6918 H   0  0  0  0  0  0  0  0  0  0  0  0
  1  2  1  0  0  0  0
  1  3  1  0  0  0  0
  1  4  1  0  0  0  0
  4  5  1  0  0  0  0
  4  6  1  0  0  0  0
  4  7  1  0  0  0  0
  7  8  1  0  0  0  0
  7  9  1  0  0  0  0
  7 10  1  0  0  0  0
 10 11  1  0  0  0  0
  1 12  1  0  0  0  0
 10 12  1  0  0  0  0
 12 13  1  0  0  0  0
 12 14  1  0  0  0  0
 10 15  1  0  0  0  0
 15 16  1  0  0  0  0
M  END
> <VConfSearch Rank>
930

> <Conf_Id>
20

> <Delta U+W>
-0.483

> <U+W>
2.527

> <U>
4.508

> <W>
-1.981

> <W(PB)>
-3.712

> <W(SA)>
1.732

> <Valence>
14.705

> <Coulomb>
-10.687

> <VdW>
0.490

> <VdW6>
-3.745

> <VdW12>
4.235

> <Bond>
0.068

> <Angle>
3.901

> <Pdih>
10.737

> <Idih>
0.000

> <Tether>
0.000

$$$$
VeraChem MOL file


 16 16  0  0  0  0  0  0  0  0999 V2000     
   19.0733   18.0567   20.9780 C   0  0  0  0  0  0  0  0  0  0  0  0
   17.9767   18.0247   20.9144 H   0  0  0  0  0  0  0  0  0  0  0  0
   19.4834   17.7590   20.0034 H   0  0  0  0  0  0  0  0  0  0  0  0
   19.5492   17.1451   22.1174 C   0  0  0  0  0  0  0  0  0  0  0  0
   18.9742   16.2107   22.1730 H   0  0  0  0  0  0  0  0  0  0  0  0
   20.6075   16.8889   21.9684 H   0  0  0  0  0  0  0  0  0  0  0  0
   19.3948   18.0044   23.3856 C   0  0  0  0  0  0  0  0  0  0  0  0
   20.1278   17.7230   24.1525 H   0  0  0  0  0  0  0  0  0  0  0  0
   18.3913   17.8537   23.8065 H   0  0  0  0  0  0  0  0  0  0  0  0
   19.5735   19.4715   22.9412 C   0  0  0  0  0  0  0  0  0  0  0  0
   20.5521   19.8485   23.2725 H   0  0  0  0  0  0  0  0  0  0  0  0
   19.5244   19.4674   21.3993 C   0  0  0  0  0  0  0  0  0  0  0  0
   18.8546   20.2416   21.0016 H   0  0  0  0  0  0  0  0  0  0  0  0
   20.5312   19.6644   21.0086 H   0  0  0  0  0  0  0  0  0  0  0  0
   18.5216   20.2743   23.4635 O   0  0  0  0  0  0  0  0  0  0  0  0
   18.5939   20.2317   24.4405 H   0  0  0  0  0  0  0  0  0  0  0  0
  1  2  1  0  0  0  0
  1  3  1  0  0  0  0
  1  4  1  0  0  0  0
  4  5  1  0  0  0  0
  4  6  1  0  0  0  0
  4  7  1  0  0  0  0
  7  8  1  0  0  0  0
  7  9  1  0  0  0  0
  7 10  1  0  0  0  0
 10 11  1  0  0  0  0
  1 12  1  0  0  0  0
 10 12  1  0  0  0  0
 12 13  1  0  0  0  0
 12 14  1  0  0  0  0
 10 15  1  0  0  0  0
 15 16  1  0  0  0  0
M  END
> <VConfSearch Rank>
931

> <Conf_Id>
59

> <Delta U+W>
0.000

> <U+W>
3.010

> <U>
5.843

> <W>
-2.833

> <W(PB)>
-4.568

> <W(SA)>
1.735

> <Valence>
13.789

> <Coulomb>
-8.574

> <VdW>
0.628

> <VdW6>
-3.284

> <VdW12>
3.912

> <Bond>
0.054

> <Angle>
4.034

> <Pdih>
9.702

> <Idih>
0.000

> <Tether>
0.000

$$$$
VeraChem MOL file


 16 16  0  0  0  0  0  0  0  0999 V2000     
   19.5937   19.9111   22.8868 C   0  0  0  0  0  0  0  0  0  0  0  0
   19.5373   20.9696   22.5985 H   0  0  0  0  0  0  0  0  0  0  0  0
   19.6810   19.8573   23.9810 H   0  0  0  0  0  0  0  0  0  0  0  0
   20.7842   19.1918   22.2379 C   0  0  0  0  0  0  0  0  0  0  0  0
   20.9019   19.5361   21.2010 H   0  0  0  0  0  0  0  0  0  0  0  0
   21.7269   19.3760   22.7708 H   0  0  0  0  0  0  0  0  0  0  0  0
   20.3860   17.7043   22.2452 C   0  0  0  0  0  0  0  0  0  0  0  0
   20.7309   17.2352   23.1758 H   0  0  0  0  0  0  0  0  0  0  0  0
   20.8420   17.1596   21.4078 H   0  0  0  0  0  0  0  0  0  0  0  0
   18.8446   17.6614   22.2016 C   0  0  0  0  0  0  0  0  0  0  0  0
   18.4760   17.0148   23.0113 H   0  0  0  0  0  0  0  0  0  0  0  0
   18.3630   19.1110   22.4225 C   0  0  0  0  0  0  0  0  0  0  0  0
   17.9880   19.5351   21.4811 H   0  0  0  0  0  0  0  0  0  0  0  0
   17.5519   19.1585   23.1605 H   0  0  0  0  0  0  0  0  0  0  0  0
   18.4027   17.1849   20.9361 O   0  0  0  0  0  0  0  0  0  0  0  0
   17.4225   17.1892   20.9605 H   0  0  0  0  0  0  0  0  0  0  0  0
  1  2  1  0  0  0  0
  1  3  1  0  0  0  0
  1  4  1  0  0  0  0
  4  5  1  0  0  0  0
  4  6  1  0  0  0  0
  4  7  1  0  0  0  0
  7  8  1  0  0  0  0
  7  9  1  0  0  0  0
  7 10  1  0  0  0  0
 10 11  1  0  0  0  0
  1 12  1  0  0  0  0
 10 12  1  0  0  0  0
 12 13  1  0  0  0  0
 12 14  1  0  0  0  0
 10 15  1  0  0  0  0
 15 16  1  0  0  0  0
M  END
> <VConfSearch Rank>
932

> <Conf_Id>
33

> <Delta U+W>
0.015

> <U+W>
3.025

> <U>
5.843

> <W>
-2.819

> <W(PB)>
-4.568

> <W(SA)>
1.750

> <Valence>
13.789

> <Coulomb>
-8.574

> <VdW>
0.628

> <VdW6>
-3.284

> <VdW12>
3.913

> <Bond>
0.054

> <Angle>
4.033

> <Pdih>
9.702

> <Idih>
0.000

> <Tether>
0.000

$$$$
VeraChem MOL file


 16 16  0  0  0  0  0  0  0  0999 V2000     
   18.3679   18.5099   23.1265 C   0  0  0  0  0  0  0  0  0  0  0  0
   18.6013   17.9236   24.0260 H   0  0  0  0  0  0  0  0  0  0  0  0
   17.3337   18.8684   23.2214 H   0  0  0  0  0  0  0  0  0  0  0  0
   18.5524   17.6354   21.8670 C   0  0  0  0  0  0  0  0  0  0  0  0
   18.8741   16.6256   22.1570 H   0  0  0  0  0  0  0  0  0  0  0  0
   17.6150   17.5373   21.3025 H   0  0  0  0  0  0  0  0  0  0  0  0
   19.6437   18.3188   21.0158 C   0  0  0  0  0  0  0  0  0  0  0  0
   19.1712   18.9280   20.2340 H   0  0  0  0  0  0  0  0  0  0  0  0
   20.3017   17.5919   20.5210 H   0  0  0  0  0  0  0  0  0  0  0  0
   20.4118   19.2422   21.9709 C   0  0  0  0  0  0  0  0  0  0  0  0
   20.8502   20.0993   21.4398 H   0  0  0  0  0  0  0  0  0  0  0  0
   19.3537   19.6895   22.9884 C   0  0  0  0  0  0  0  0  0  0  0  0
   19.7974   19.9760   23.9513 H   0  0  0  0  0  0  0  0  0  0  0  0
   18.8243   20.5654   22.5906 H   0  0  0  0  0  0  0  0  0  0  0  0
   21.4160   18.4928   22.6393 O   0  0  0  0  0  0  0  0  0  0  0  0
   20.9372   17.7598   23.0782 H   0  0  0  0  0  0  0  0  0  0  0  0
  1  2  1  0  0  0  0
  1  3  1  0  0  0  0
  1  4  1  0  0  0  0
  4  5  1  0  0  0  0
  4  6  1  0  0  0  0
  4  7  1  0  0  0  0
  7  8  1  0  0  0  0
  7  9  1  0  0  0  0
  7 10  1  0  0  0  0
 10 11  1  0  0  0  0
  1 12  1  0  0  0  0
 10 12  1  0  0  0  0
 12 13  1  0  0  0  0
 12 14  1  0  0  0  0
 10 15  1  0  0  0  0
 15 16  1  0  0  0  0
M  END
> <VConfSearch Rank>
933

> <Conf_Id>
20

> <Delta U+W>
-0.483

> <U+W>
2.527

> <U>
4.508

> <W>
-1.981

> <W(PB)>
-3.712

> <W(SA)>
1.732

> <Valence>
14.705

> <Coulomb>
-10.687

> <VdW>
0.490

> <VdW6>
-3.745

> <VdW12>
4.235

> <Bond>
0.068

> <Angle>
3.901

> <Pdih>
10.737

> <Idih>
0.000

> <Tether>
0.000

$$$$
VeraChem MOL file


 16 16  0  0  0  0  0  0  0  0999 V2000     
   19.2058   18.5158   20.8688 C   0  0  0  0  0  0  0  0  0  0  0  0
   20.1446   18.9278   20.4730 H   0  0  0  0  0  0  0  0  0  0  0  0
   18.5829   18.2019   20.0202 H   0  0  0  0  0  0  0  0  0  0  0  0
   18.5130   19.5666   21.7473 C   0  0  0  0  0  0  0  0  0  0  0  0
   18.5920   20.5792   21.3287 H   0  0  0  0  0  0  0  0  0  0  0  0
   17.4472   19.3189   21.8488 H   0  0  0  0  0  0  0  0  0  0  0  0
   19.2093   19.4419   23.1148 C   0  0  0  0  0  0  0  0  0  0  0  0
   18.5348   19.7192   23.9352 H   0  0  0  0  0  0  0  0  0  0  0  0
   20.0738   20.1190   23.1453 H   0  0  0  0  0  0  0  0  0  0  0  0
   19.6744   17.9752   23.2339 C   0  0  0  0  0  0  0  0  0  0  0  0
   19.0332   17.4336   23.9446 H   0  0  0  0  0  0  0  0  0  0  0  0
   19.5173   17.3543   21.8305 C   0  0  0  0  0  0  0  0  0  0  0  0
   20.4118   16.7993   21.5177 H   0  0  0  0  0  0  0  0  0  0  0  0
   18.6752   16.6502   21.8429 H   0  0  0  0  0  0  0  0  0  0  0  0
   21.0358   17.9236   23.6437 O   0  0  0  0  0  0  0  0  0  0  0  0
   21.0784   18.3389   24.5310 H   0  0  0  0  0  0  0  0  0  0  0  0
  1  2  1  0  0  0  0
  1  3  1  0  0  0  0
  1  4  1  0  0  0  0
  4  5  1  0  0  0  0
  4  6  1  0  0  0  0
  4  7  1  0  0  0  0
  7  8  1  0  0  0  0
  7  9  1  0  0  0  0
  7 10  1  0  0  0  0
 10 11  1  0  0  0  0
  1 12  1  0  0  0  0
 10 12  1  0  0  0  0
 12 13  1  0  0  0  0
 12 14  1  0  0  0  0
 10 15  1  0  0  0  0
 15 16  1  0  0  0  0
M  END
> <VConfSearch Rank>
934

> <Conf_Id>
59

> <Delta U+W>
0.000

> <U+W>
3.010

> <U>
5.843

> <W>
-2.833

> <W(PB)>
-4.568

> <W(SA)>
1.735

> <Valence>
13.789

> <Coulomb>
-8.574

> <VdW>
0.628

> <VdW6>
-3.284

> <VdW12>
3.912

> <Bond>
0.054

> <Angle>
4.034

> <Pdih>
9.702

> <Idih>
0.000

> <Tether>
0.000

$$$$
VeraChem MOL file


 16 16  0  0  0  0  0  0  0  0999 V2000     
   19.5328   20.0340   22.4730 C   0  0  0  0  0  0  0  0  0  0  0  0
   19.0154   20.9459   22.1452 H   0  0  0  0  0  0  0  0  0  0  0  0
   20.2562   20.3108   23.2527 H   0  0  0  0  0  0  0  0  0  0  0  0
   20.2608   19.3292   21.3202 C   0  0  0  0  0  0  0  0  0  0  0  0
   19.6423   19.3724   20.4129 H   0  0  0  0  0  0  0  0  0  0  0  0
   21.2335   19.7875   21.0957 H   0  0  0  0  0  0  0  0  0  0  0  0
   20.3933   17.8671   21.7848 C   0  0  0  0  0  0  0  0  0  0  0  0
   21.3356   17.7388   22.3331 H   0  0  0  0  0  0  0  0  0  0  0  0
   20.4045   17.1722   20.9345 H   0  0  0  0  0  0  0  0  0  0  0  0
   19.2136   17.6014   22.7427 C   0  0  0  0  0  0  0  0  0  0  0  0
   19.5964   17.1717   23.6799 H   0  0  0  0  0  0  0  0  0  0  0  0
   18.5602   18.9722   23.0182 C   0  0  0  0  0  0  0  0  0  0  0  0
   17.6018   19.0506   22.4871 H   0  0  0  0  0  0  0  0  0  0  0  0
   18.3655   19.1185   24.0884 H   0  0  0  0  0  0  0  0  0  0  0  0
   18.2747   16.7237   22.1329 O   0  0  0  0  0  0  0  0  0  0  0  0
   17.5460   16.5998   22.7772 H   0  0  0  0  0  0  0  0  0  0  0  0
  1  2  1  0  0  0  0
  1  3  1  0  0  0  0
  1  4  1  0  0  0  0
  4  5  1  0  0  0  0
  4  6  1  0  0  0  0
  4  7  1  0  0  0  0
  7  8  1  0  0  0  0
  7  9  1  0  0  0  0
  7 10  1  0  0  0  0
 10 11  1  0  0  0  0
  1 12  1  0  0  0  0
 10 12  1  0  0  0  0
 12 13  1  0  0  0  0
 12 14  1  0  0  0  0
 10 15  1  0  0  0  0
 15 16  1  0  0  0  0
M  END
> <VConfSearch Rank>
935

> <Conf_Id>
33

> <Delta U+W>
0.015

> <U+W>
3.025

> <U>
5.843

> <W>
-2.819

> <W(PB)>
-4.568

> <W(SA)>
1.750

> <Valence>
13.789

> <Coulomb>
-8.574

> <VdW>
0.628

> <VdW6>
-3.284

> <VdW12>
3.913

> <Bond>
0.054

> <Angle>
4.033

> <Pdih>
9.702

> <Idih>
0.000

> <Tether>
0.000

$$$$
VeraChem MOL file


 16 16  0  0  0  0  0  0  0  0999 V2000     
   20.2978   18.1499   23.1110 C   0  0  0  0  0  0  0  0  0  0  0  0
   19.8851   17.7409   24.0435 H   0  0  0  0  0  0  0  0  0  0  0  0
   21.3900   18.0380   23.1526 H   0  0  0  0  0  0  0  0  0  0  0  0
   19.8839   19.6298   22.9580 C   0  0  0  0  0  0  0  0  0  0  0  0
   19.2718   19.9374   23.8171 H   0  0  0  0  0  0  0  0  0  0  0  0
   20.7596   20.2921   22.9186 H   0  0  0  0  0  0  0  0  0  0  0  0
   19.0600   19.7216   21.6561 C   0  0  0  0  0  0  0  0  0  0  0  0
   19.7057   20.0639   20.8366 H   0  0  0  0  0  0  0  0  0  0  0  0
   18.2245   20.4293   21.7412 H   0  0  0  0  0  0  0  0  0  0  0  0
   18.5842   18.2945   21.3526 C   0  0  0  0  0  0  0  0  0  0  0  0
   18.4295   18.1401   20.2751 H   0  0  0  0  0  0  0  0  0  0  0  0
   19.7094   17.4031   21.8950 C   0  0  0  0  0  0  0  0  0  0  0  0
   19.3541   16.3973   22.1563 H   0  0  0  0  0  0  0  0  0  0  0  0
   20.4819   17.2943   21.1224 H   0  0  0  0  0  0  0  0  0  0  0  0
   17.3912   18.0350   22.0780 O   0  0  0  0  0  0  0  0  0  0  0  0
   17.6229   18.1966   23.0158 H   0  0  0  0  0  0  0  0  0  0  0  0
  1  2  1  0  0  0  0
  1  3  1  0  0  0  0
  1  4  1  0  0  0  0
  4  5  1  0  0  0  0
  4  6  1  0  0  0  0
  4  7  1  0  0  0  0
  7  8  1  0  0  0  0
  7  9  1  0  0  0  0
  7 10  1  0  0  0  0
 10 11  1  0  0  0  0
  1 12  1  0  0  0  0
 10 12  1  0  0  0  0
 12 13  1  0  0  0  0
 12 14  1  0  0  0  0
 10 15  1  0  0  0  0
 15 16  1  0  0  0  0
M  END
> <VConfSearch Rank>
936

> <Conf_Id>
20

> <Delta U+W>
-0.483

> <U+W>
2.527

> <U>
4.508

> <W>
-1.981

> <W(PB)>
-3.712

> <W(SA)>
1.732

> <Valence>
14.705

> <Coulomb>
-10.687

> <VdW>
0.490

> <VdW6>
-3.745

> <VdW12>
4.235

> <Bond>
0.068

> <Angle>
3.901

> <Pdih>
10.737

> <Idih>
0.000

> <Tether>
0.000

$$$$
VeraChem MOL file


 16 16  0  0  0  0  0  0  0  0999 V2000     
   19.9573   18.2005   23.5907 C   0  0  0  0  0  0  0  0  0  0  0  0
   19.1077   17.9822   24.2528 H   0  0  0  0  0  0  0  0  0  0  0  0
   20.8850   18.0076   24.1464 H   0  0  0  0  0  0  0  0  0  0  0  0
   19.8625   19.6493   23.0931 C   0  0  0  0  0  0  0  0  0  0  0  0
   19.5233   20.3394   23.8776 H   0  0  0  0  0  0  0  0  0  0  0  0
   20.8485   19.9851   22.7429 H   0  0  0  0  0  0  0  0  0  0  0  0
   18.8831   19.5836   21.9069 C   0  0  0  0  0  0  0  0  0  0  0  0
   19.0980   20.3641   21.1656 H   0  0  0  0  0  0  0  0  0  0  0  0
   17.8588   19.7384   22.2726 H   0  0  0  0  0  0  0  0  0  0  0  0
   19.0271   18.1713   21.3017 C   0  0  0  0  0  0  0  0  0  0  0  0
   19.5728   18.2243   20.3483 H   0  0  0  0  0  0  0  0  0  0  0  0
   19.8487   17.3466   22.3139 C   0  0  0  0  0  0  0  0  0  0  0  0
   19.3954   16.3677   22.5196 H   0  0  0  0  0  0  0  0  0  0  0  0
   20.8510   17.1703   21.9023 H   0  0  0  0  0  0  0  0  0  0  0  0
   17.7449   17.5837   21.1159 O   0  0  0  0  0  0  0  0  0  0  0  0
   17.2654   18.1514   20.4761 H   0  0  0  0  0  0  0  0  0  0  0  0
  1  2  1  0  0  0  0
  1  3  1  0  0  0  0
  1  4  1  0  0  0  0
  4  5  1  0  0  0  0
  4  6  1  0  0  0  0
  4  7  1  0  0  0  0
  7  8  1  0  0  0  0
  7  9  1  0  0  0  0
  7 10  1  0  0  0  0
 10 11  1  0  0  0  0
  1 12  1  0  0  0  0
 10 12  1  0  0  0  0
 12 13  1  0  0  0  0
 12 14  1  0  0  0  0
 10 15  1  0  0  0  0
 15 16  1  0  0  0  0
M  END
> <VConfSearch Rank>
937

> <Conf_Id>
59

> <Delta U+W>
0.000

> <U+W>
3.010

> <U>
5.843

> <W>
-2.833

> <W(PB)>
-4.568

> <W(SA)>
1.735

> <Valence>
13.789

> <Coulomb>
-8.574

> <VdW>
0.628

> <VdW6>
-3.284

> <VdW12>
3.912

> <Bond>
0.054

> <Angle>
4.034

> <Pdih>
9.702

> <Idih>
0.000

> <Tether>
0.000

$$$$
VeraChem MOL file


 16 16  0  0  0  0  0  0  0  0999 V2000     
   19.4332   20.0041   21.9419 C   0  0  0  0  0  0  0  0  0  0  0  0
   18.7143   20.7761   21.6355 H   0  0  0  0  0  0  0  0  0  0  0  0
   20.4000   20.4909   22.1317 H   0  0  0  0  0  0  0  0  0  0  0  0
   19.6054   18.9113   20.8780 C   0  0  0  0  0  0  0  0  0  0  0  0
   18.6297   18.6760   20.4306 H   0  0  0  0  0  0  0  0  0  0  0  0
   20.2893   19.2134   20.0732 H   0  0  0  0  0  0  0  0  0  0  0  0
   20.1220   17.6899   21.6605 C   0  0  0  0  0  0  0  0  0  0  0  0
   21.2193   17.7059   21.6861 H   0  0  0  0  0  0  0  0  0  0  0  0
   19.8128   16.7474   21.1891 H   0  0  0  0  0  0  0  0  0  0  0  0
   19.5832   17.8293   23.0993 C   0  0  0  0  0  0  0  0  0  0  0  0
   20.4154   17.7245   23.8106 H   0  0  0  0  0  0  0  0  0  0  0  0
   18.9764   19.2446   23.2009 C   0  0  0  0  0  0  0  0  0  0  0  0
   17.8794   19.1885   23.2133 H   0  0  0  0  0  0  0  0  0  0  0  0
   19.2981   19.7567   24.1170 H   0  0  0  0  0  0  0  0  0  0  0  0
   18.5834   16.8477   23.3460 O   0  0  0  0  0  0  0  0  0  0  0  0
   18.2707   16.9895   24.2645 H   0  0  0  0  0  0  0  0  0  0  0  0
  1  2  1  0  0  0  0
  1  3  1  0  0  0  0
  1  4  1  0  0  0  0
  4  5  1  0  0  0  0
  4  6  1  0  0  0  0
  4  7  1  0  0  0  0
  7  8  1  0  0  0  0
  7  9  1  0  0  0  0
  7 10  1  0  0  0  0
 10 11  1  0  0  0  0
  1 12  1  0  0  0  0
 10 12  1  0  0  0  0
 12 13  1  0  0  0  0
 12 14  1  0  0  0  0
 10 15  1  0  0  0  0
 15 16  1  0  0  0  0
M  END
> <VConfSearch Rank>
938

> <Conf_Id>
33

> <Delta U+W>
0.015

> <U+W>
3.025

> <U>
5.843

> <W>
-2.819

> <W(PB)>
-4.568

> <W(SA)>
1.750

> <Valence>
13.789

> <Coulomb>
-8.574

> <VdW>
0.628

> <VdW6>
-3.284

> <VdW12>
3.913

> <Bond>
0.054

> <Angle>
4.033

> <Pdih>
9.702

> <Idih>
0.000

> <Tether>
0.000

$$$$
VeraChem MOL file


 16 16  0  0  0  0  0  0  0  0999 V2000     
   20.0384   18.3362   23.3869 C   0  0  0  0  0  0  0  0  0  0  0  0
   19.5788   17.5484   23.9996 H   0  0  0  0  0  0  0  0  0  0  0  0
   20.9525   18.6662   23.8991 H   0  0  0  0  0  0  0  0  0  0  0  0
   19.0425   19.5010   23.1957 C   0  0  0  0  0  0  0  0  0  0  0  0
   18.1014   19.2774   23.7168 H   0  0  0  0  0  0  0  0  0  0  0  0
   19.4362   20.4406   23.6071 H   0  0  0  0  0  0  0  0  0  0  0  0
   18.7956   19.6209   21.6768 C   0  0  0  0  0  0  0  0  0  0  0  0
   19.4343   20.4121   21.2626 H   0  0  0  0  0  0  0  0  0  0  0  0
   17.7533   19.8764   21.4434 H   0  0  0  0  0  0  0  0  0  0  0  0
   19.2137   18.2745   21.0706 C   0  0  0  0  0  0  0  0  0  0  0  0
   19.5433   18.3854   20.0275 H   0  0  0  0  0  0  0  0  0  0  0  0
   20.3568   17.7967   21.9762 C   0  0  0  0  0  0  0  0  0  0  0  0
   20.4685   16.7043   21.9637 H   0  0  0  0  0  0  0  0  0  0  0  0
   21.2995   18.2331   21.6207 H   0  0  0  0  0  0  0  0  0  0  0  0
   18.1296   17.3621   21.1651 O   0  0  0  0  0  0  0  0  0  0  0  0
   17.9073   17.3284   22.1183 H   0  0  0  0  0  0  0  0  0  0  0  0
  1  2  1  0  0  0  0
  1  3  1  0  0  0  0
  1  4  1  0  0  0  0
  4  5  1  0  0  0  0
  4  6  1  0  0  0  0
  4  7  1  0  0  0  0
  7  8  1  0  0  0  0
  7  9  1  0  0  0  0
  7 10  1  0  0  0  0
 10 11  1  0  0  0  0
  1 12  1  0  0  0  0
 10 12  1  0  0  0  0
 12 13  1  0  0  0  0
 12 14  1  0  0  0  0
 10 15  1  0  0  0  0
 15 16  1  0  0  0  0
M  END
> <VConfSearch Rank>
939

> <Conf_Id>
20

> <Delta U+W>
-0.483

> <U+W>
2.527

> <U>
4.508

> <W>
-1.981

> <W(PB)>
-3.712

> <W(SA)>
1.732

> <Valence>
14.705

> <Coulomb>
-10.687

> <VdW>
0.490

> <VdW6>
-3.745

> <VdW12>
4.235

> <Bond>
0.068

> <Angle>
3.901

> <Pdih>
10.737

> <Idih>
0.000

> <Tether>
0.000

$$$$
VeraChem MOL file


 16 16  0  0  0  0  0  0  0  0999 V2000     
   19.2143   17.1628   21.9177 C   0  0  0  0  0  0  0  0  0  0  0  0
   18.3087   16.8126   22.4324 H   0  0  0  0  0  0  0  0  0  0  0  0
   19.5897   16.3452   21.2873 H   0  0  0  0  0  0  0  0  0  0  0  0
   20.2478   17.6264   22.9533 C   0  0  0  0  0  0  0  0  0  0  0  0
   20.2766   16.9735   23.8363 H   0  0  0  0  0  0  0  0  0  0  0  0
   21.2484   17.6344   22.4991 H   0  0  0  0  0  0  0  0  0  0  0  0
   19.8223   19.0645   23.3018 C   0  0  0  0  0  0  0  0  0  0  0  0
   20.6840   19.6777   23.5957 H   0  0  0  0  0  0  0  0  0  0  0  0
   19.1208   19.0412   24.1468 H   0  0  0  0  0  0  0  0  0  0  0  0
   19.1269   19.6289   22.0449 C   0  0  0  0  0  0  0  0  0  0  0  0
   19.7838   20.3564   21.5460 H   0  0  0  0  0  0  0  0  0  0  0  0
   18.8884   18.4293   21.1048 C   0  0  0  0  0  0  0  0  0  0  0  0
   17.8631   18.4049   20.7121 H   0  0  0  0  0  0  0  0  0  0  0  0
   19.5717   18.5038   20.2489 H   0  0  0  0  0  0  0  0  0  0  0  0
   17.8867   20.2297   22.3981 O   0  0  0  0  0  0  0  0  0  0  0  0
   18.0964   20.9740   23.0011 H   0  0  0  0  0  0  0  0  0  0  0  0
  1  2  1  0  0  0  0
  1  3  1  0  0  0  0
  1  4  1  0  0  0  0
  4  5  1  0  0  0  0
  4  6  1  0  0  0  0
  4  7  1  0  0  0  0
  7  8  1  0  0  0  0
  7  9  1  0  0  0  0
  7 10  1  0  0  0  0
 10 11  1  0  0  0  0
  1 12  1  0  0  0  0
 10 12  1  0  0  0  0
 12 13  1  0  0  0  0
 12 14  1  0  0  0  0
 10 15  1  0  0  0  0
 15 16  1  0  0  0  0
M  END
> <VConfSearch Rank>
940

> <Conf_Id>
59

> <Delta U+W>
0.000

> <U+W>
3.010

> <U>
5.843

> <W>
-2.833

> <W(PB)>
-4.568

> <W(SA)>
1.735

> <Valence>
13.789

> <Coulomb>
-8.574

> <VdW>
0.628

> <VdW6>
-3.284

> <VdW12>
3.912

> <Bond>
0.054

> <Angle>
4.034

> <Pdih>
9.702

> <Idih>
0.000

> <Tether>
0.000

$$$$
VeraChem MOL file


 16 16  0  0  0  0  0  0  0  0999 V2000     
   18.7256   19.0589   21.1377 C   0  0  0  0  0  0  0  0  0  0  0  0
   18.8957   19.2505   20.0695 H   0  0  0  0  0  0  0  0  0  0  0  0
   17.6472   19.1386   21.3336 H   0  0  0  0  0  0  0  0  0  0  0  0
   19.4876   20.0428   22.0361 C   0  0  0  0  0  0  0  0  0  0  0  0
   20.4845   20.2309   21.6136 H   0  0  0  0  0  0  0  0  0  0  0  0
   18.9694   21.0060   22.1374 H   0  0  0  0  0  0  0  0  0  0  0  0
   19.6281   19.3067   23.3812 C   0  0  0  0  0  0  0  0  0  0  0  0
   18.7657   19.5383   24.0198 H   0  0  0  0  0  0  0  0  0  0  0  0
   20.5342   19.6164   23.9189 H   0  0  0  0  0  0  0  0  0  0  0  0
   19.6250   17.7980   23.0594 C   0  0  0  0  0  0  0  0  0  0  0  0
   18.8783   17.2936   23.6899 H   0  0  0  0  0  0  0  0  0  0  0  0
   19.2328   17.6716   21.5722 C   0  0  0  0  0  0  0  0  0  0  0  0
   20.1098   17.4001   20.9689 H   0  0  0  0  0  0  0  0  0  0  0  0
   18.4675   16.8994   21.4210 H   0  0  0  0  0  0  0  0  0  0  0  0
   20.9193   17.2480   23.2742 O   0  0  0  0  0  0  0  0  0  0  0  0
   20.8621   16.2963   23.0449 H   0  0  0  0  0  0  0  0  0  0  0  0
  1  2  1  0  0  0  0
  1  3  1  0  0  0  0
  1  4  1  0  0  0  0
  4  5  1  0  0  0  0
  4  6  1  0  0  0  0
  4  7  1  0  0  0  0
  7  8  1  0  0  0  0
  7  9  1  0  0  0  0
  7 10  1  0  0  0  0
 10 11  1  0  0  0  0
  1 12  1  0  0  0  0
 10 12  1  0  0  0  0
 12 13  1  0  0  0  0
 12 14  1  0  0  0  0
 10 15  1  0  0  0  0
 15 16  1  0  0  0  0
M  END
> <VConfSearch Rank>
941

> <Conf_Id>
33

> <Delta U+W>
0.015

> <U+W>
3.025

> <U>
5.843

> <W>
-2.819

> <W(PB)>
-4.568

> <W(SA)>
1.750

> <Valence>
13.789

> <Coulomb>
-8.574

> <VdW>
0.628

> <VdW6>
-3.284

> <VdW12>
3.913

> <Bond>
0.054

> <Angle>
4.033

> <Pdih>
9.702

> <Idih>
0.000

> <Tether>
0.000

$$$$
VeraChem MOL file


 16 16  0  0  0  0  0  0  0  0999 V2000     
   18.8030   17.9299   23.2537 C   0  0  0  0  0  0  0  0  0  0  0  0
   18.0160   18.4836   23.7841 H   0  0  0  0  0  0  0  0  0  0  0  0
   18.8736   16.9326   23.7091 H   0  0  0  0  0  0  0  0  0  0  0  0
   20.1409   18.6951   23.3519 C   0  0  0  0  0  0  0  0  0  0  0  0
   20.0017   19.6185   23.9308 H   0  0  0  0  0  0  0  0  0  0  0  0
   20.9116   18.0976   23.8578 H   0  0  0  0  0  0  0  0  0  0  0  0
   20.5602   19.0309   21.9049 C   0  0  0  0  0  0  0  0  0  0  0  0
   21.2849   18.2859   21.5507 H   0  0  0  0  0  0  0  0  0  0  0  0
   21.0322   20.0194   21.8271 H   0  0  0  0  0  0  0  0  0  0  0  0
   19.2848   18.9274   21.0578 C   0  0  0  0  0  0  0  0  0  0  0  0
   19.5122   18.6642   20.0147 H   0  0  0  0  0  0  0  0  0  0  0  0
   18.4648   17.8311   21.7510 C   0  0  0  0  0  0  0  0  0  0  0  0
   17.3883   17.9326   21.5590 H   0  0  0  0  0  0  0  0  0  0  0  0
   18.7816   16.8523   21.3672 H   0  0  0  0  0  0  0  0  0  0  0  0
   18.5762   20.1561   21.1274 O   0  0  0  0  0  0  0  0  0  0  0  0
   18.4199   20.3064   22.0824 H   0  0  0  0  0  0  0  0  0  0  0  0
  1  2  1  0  0  0  0
  1  3  1  0  0  0  0
  1  4  1  0  0  0  0
  4  5  1  0  0  0  0
  4  6  1  0  0  0  0
  4  7  1  0  0  0  0
  7  8  1  0  0  0  0
  7  9  1  0  0  0  0
  7 10  1  0  0  0  0
 10 11  1  0  0  0  0
  1 12  1  0  0  0  0
 10 12  1  0  0  0  0
 12 13  1  0  0  0  0
 12 14  1  0  0  0  0
 10 15  1  0  0  0  0
 15 16  1  0  0  0  0
M  END
> <VConfSearch Rank>
942

> <Conf_Id>
20

> <Delta U+W>
-0.483

> <U+W>
2.527

> <U>
4.508

> <W>
-1.981

> <W(PB)>
-3.712

> <W(SA)>
1.732

> <Valence>
14.705

> <Coulomb>
-10.687

> <VdW>
0.490

> <VdW6>
-3.745

> <VdW12>
4.235

> <Bond>
0.068

> <Angle>
3.901

> <Pdih>
10.737

> <Idih>
0.000

> <Tether>
0.000

$$$$
VeraChem MOL file


 16 16  0  0  0  0  0  0  0  0999 V2000     
   19.6171   19.8830   21.7843 C   0  0  0  0  0  0  0  0  0  0  0  0
   18.6910   20.1676   21.2656 H   0  0  0  0  0  0  0  0  0  0  0  0
   20.3144   20.7302   21.7333 H   0  0  0  0  0  0  0  0  0  0  0  0
   20.1929   18.6106   21.1477 C   0  0  0  0  0  0  0  0  0  0  0  0
   20.0963   18.6102   20.0534 H   0  0  0  0  0  0  0  0  0  0  0  0
   21.2591   18.5217   21.3986 H   0  0  0  0  0  0  0  0  0  0  0  0
   19.4055   17.4628   21.8059 C   0  0  0  0  0  0  0  0  0  0  0  0
   20.0043   16.5445   21.8593 H   0  0  0  0  0  0  0  0  0  0  0  0
   18.5096   17.2472   21.2077 H   0  0  0  0  0  0  0  0  0  0  0  0
   19.0036   17.9605   23.2103 C   0  0  0  0  0  0  0  0  0  0  0  0
   19.6164   17.4624   23.9757 H   0  0  0  0  0  0  0  0  0  0  0  0
   19.2921   19.4758   23.2333 C   0  0  0  0  0  0  0  0  0  0  0  0
   18.4504   20.0543   23.6367 H   0  0  0  0  0  0  0  0  0  0  0  0
   20.1638   19.6645   23.8734 H   0  0  0  0  0  0  0  0  0  0  0  0
   17.6200   17.7210   23.4387 O   0  0  0  0  0  0  0  0  0  0  0  0
   17.4930   16.7494   23.4024 H   0  0  0  0  0  0  0  0  0  0  0  0
  1  2  1  0  0  0  0
  1  3  1  0  0  0  0
  1  4  1  0  0  0  0
  4  5  1  0  0  0  0
  4  6  1  0  0  0  0
  4  7  1  0  0  0  0
  7  8  1  0  0  0  0
  7  9  1  0  0  0  0
  7 10  1  0  0  0  0
 10 11  1  0  0  0  0
  1 12  1  0  0  0  0
 10 12  1  0  0  0  0
 12 13  1  0  0  0  0
 12 14  1  0  0  0  0
 10 15  1  0  0  0  0
 15 16  1  0  0  0  0
M  END
> <VConfSearch Rank>
943

> <Conf_Id>
59

> <Delta U+W>
0.000

> <U+W>
3.010

> <U>
5.843

> <W>
-2.833

> <W(PB)>
-4.568

> <W(SA)>
1.735

> <Valence>
13.789

> <Coulomb>
-8.574

> <VdW>
0.628

> <VdW6>
-3.284

> <VdW12>
3.912

> <Bond>
0.054

> <Angle>
4.034

> <Pdih>
9.702

> <Idih>
0.000

> <Tether>
0.000

$$$$
VeraChem MOL file


 16 16  0  0  0  0  0  0  0  0999 V2000     
   19.0337   19.9733   22.4743 C   0  0  0  0  0  0  0  0  0  0  0  0
   19.3815   20.9894   22.2433 H   0  0  0  0  0  0  0  0  0  0  0  0
   18.0096   20.0416   22.8669 H   0  0  0  0  0  0  0  0  0  0  0  0
   19.9330   19.2669   23.4980 C   0  0  0  0  0  0  0  0  0  0  0  0
   20.9854   19.5061   23.2907 H   0  0  0  0  0  0  0  0  0  0  0  0
   19.7089   19.5667   24.5307 H   0  0  0  0  0  0  0  0  0  0  0  0
   19.6878   17.7662   23.2554 C   0  0  0  0  0  0  0  0  0  0  0  0
   18.8587   17.4215   23.8869 H   0  0  0  0  0  0  0  0  0  0  0  0
   20.5720   17.1660   23.5085 H   0  0  0  0  0  0  0  0  0  0  0  0
   19.2857   17.6202   21.7733 C   0  0  0  0  0  0  0  0  0  0  0  0
   18.3533   17.0409   21.7052 H   0  0  0  0  0  0  0  0  0  0  0  0
   19.0586   19.0511   21.2416 C   0  0  0  0  0  0  0  0  0  0  0  0
   19.8857   19.3480   20.5824 H   0  0  0  0  0  0  0  0  0  0  0  0
   18.1263   19.1247   20.6668 H   0  0  0  0  0  0  0  0  0  0  0  0
   20.3278   16.9846   21.0426 O   0  0  0  0  0  0  0  0  0  0  0  0
   20.0248   16.9287   20.1116 H   0  0  0  0  0  0  0  0  0  0  0  0
  1  2  1  0  0  0  0
  1  3  1  0  0  0  0
  1  4  1  0  0  0  0
  4  5  1  0  0  0  0
  4  6  1  0  0  0  0
  4  7  1  0  0  0  0
  7  8  1  0  0  0  0
  7  9  1  0  0  0  0
  7 10  1  0  0  0  0
 10 11  1  0  0  0  0
  1 12  1  0  0  0  0
 10 12  1  0  0  0  0
 12 13  1  0  0  0  0
 12 14  1  0  0  0  0
 10 15  1  0  0  0  0
 15 16  1  0  0  0  0
M  END
> <VConfSearch Rank>
944

> <Conf_Id>
33

> <Delta U+W>
0.015

> <U+W>
3.025

> <U>
5.843

> <W>
-2.819

> <W(PB)>
-4.568

> <W(SA)>
1.750

> <Valence>
13.789

> <Coulomb>
-8.574

> <VdW>
0.628

> <VdW6>
-3.284

> <VdW12>
3.913

> <Bond>
0.054

> <Angle>
4.033

> <Pdih>
9.702

> <Idih>
0.000

> <Tether>
0.000

$$$$
VeraChem MOL file


 16 16  0  0  0  0  0  0  0  0999 V2000     
   20.6043   18.6483   22.7876 C   0  0  0  0  0  0  0  0  0  0  0  0
   21.2500   17.8094   22.4935 H   0  0  0  0  0  0  0  0  0  0  0  0
   21.1903   19.3057   23.4444 H   0  0  0  0  0  0  0  0  0  0  0  0
   19.3413   18.1148   23.4985 C   0  0  0  0  0  0  0  0  0  0  0  0
   19.3763   17.0178   23.5494 H   0  0  0  0  0  0  0  0  0  0  0  0
   19.2661   18.4940   24.5269 H   0  0  0  0  0  0  0  0  0  0  0  0
   18.1356   18.5710   22.6495 C   0  0  0  0  0  0  0  0  0  0  0  0
   17.7056   19.4834   23.0834 H   0  0  0  0  0  0  0  0  0  0  0  0
   17.3421   17.8127   22.6122 H   0  0  0  0  0  0  0  0  0  0  0  0
   18.6945   18.8965   21.2578 C   0  0  0  0  0  0  0  0  0  0  0  0
   18.0851   19.6540   20.7442 H   0  0  0  0  0  0  0  0  0  0  0  0
   20.1143   19.4078   21.5364 C   0  0  0  0  0  0  0  0  0  0  0  0
   20.7829   19.2684   20.6764 H   0  0  0  0  0  0  0  0  0  0  0  0
   20.0697   20.4831   21.7541 H   0  0  0  0  0  0  0  0  0  0  0  0
   18.7691   17.7024   20.4928 O   0  0  0  0  0  0  0  0  0  0  0  0
   19.3245   17.0944   21.0229 H   0  0  0  0  0  0  0  0  0  0  0  0
  1  2  1  0  0  0  0
  1  3  1  0  0  0  0
  1  4  1  0  0  0  0
  4  5  1  0  0  0  0
  4  6  1  0  0  0  0
  4  7  1  0  0  0  0
  7  8  1  0  0  0  0
  7  9  1  0  0  0  0
  7 10  1  0  0  0  0
 10 11  1  0  0  0  0
  1 12  1  0  0  0  0
 10 12  1  0  0  0  0
 12 13  1  0  0  0  0
 12 14  1  0  0  0  0
 10 15  1  0  0  0  0
 15 16  1  0  0  0  0
M  END
> <VConfSearch Rank>
945

> <Conf_Id>
20

> <Delta U+W>
-0.483

> <U+W>
2.527

> <U>
4.508

> <W>
-1.981

> <W(PB)>
-3.712

> <W(SA)>
1.732

> <Valence>
14.705

> <Coulomb>
-10.687

> <VdW>
0.490

> <VdW6>
-3.745

> <VdW12>
4.235

> <Bond>
0.068

> <Angle>
3.901

> <Pdih>
10.737

> <Idih>
0.000

> <Tether>
0.000

$$$$
VeraChem MOL file


 16 16  0  0  0  0  0  0  0  0999 V2000     
   19.6446   17.1420   22.5080 C   0  0  0  0  0  0  0  0  0  0  0  0
   20.0057   17.0647   23.5431 H   0  0  0  0  0  0  0  0  0  0  0  0
   19.5992   16.1301   22.0829 H   0  0  0  0  0  0  0  0  0  0  0  0
   20.5676   18.0725   21.7094 C   0  0  0  0  0  0  0  0  0  0  0  0
   21.6267   17.9298   21.9640 H   0  0  0  0  0  0  0  0  0  0  0  0
   20.4440   17.8820   20.6342 H   0  0  0  0  0  0  0  0  0  0  0  0
   20.0694   19.4894   22.0481 C   0  0  0  0  0  0  0  0  0  0  0  0
   20.2528   20.1874   21.2211 H   0  0  0  0  0  0  0  0  0  0  0  0
   20.6074   19.8625   22.9302 H   0  0  0  0  0  0  0  0  0  0  0  0
   18.5629   19.3585   22.3565 C   0  0  0  0  0  0  0  0  0  0  0  0
   17.9715   19.7678   21.5245 H   0  0  0  0  0  0  0  0  0  0  0  0
   18.2765   17.8486   22.4906 C   0  0  0  0  0  0  0  0  0  0  0  0
   17.6889   17.6139   23.3882 H   0  0  0  0  0  0  0  0  0  0  0  0
   17.7004   17.5146   21.6179 H   0  0  0  0  0  0  0  0  0  0  0  0
   18.2508   20.0270   23.5728 O   0  0  0  0  0  0  0  0  0  0  0  0
   18.4612   20.9748   23.4348 H   0  0  0  0  0  0  0  0  0  0  0  0
  1  2  1  0  0  0  0
  1  3  1  0  0  0  0
  1  4  1  0  0  0  0
  4  5  1  0  0  0  0
  4  6  1  0  0  0  0
  4  7  1  0  0  0  0
  7  8  1  0  0  0  0
  7  9  1  0  0  0  0
  7 10  1  0  0  0  0
 10 11  1  0  0  0  0
  1 12  1  0  0  0  0
 10 12  1  0  0  0  0
 12 13  1  0  0  0  0
 12 14  1  0  0  0  0
 10 15  1  0  0  0  0
 15 16  1  0  0  0  0
M  END
> <VConfSearch Rank>
946

> <Conf_Id>
59

> <Delta U+W>
0.000

> <U+W>
3.010

> <U>
5.843

> <W>
-2.833

> <W(PB)>
-4.568

> <W(SA)>
1.735

> <Valence>
13.789

> <Coulomb>
-8.574

> <VdW>
0.628

> <VdW6>
-3.284

> <VdW12>
3.912

> <Bond>
0.054

> <Angle>
4.034

> <Pdih>
9.702

> <Idih>
0.000

> <Tether>
0.000

$$$$
VeraChem MOL file


 16 16  0  0  0  0  0  0  0  0999 V2000     
   18.5233   19.2341   23.1931 C   0  0  0  0  0  0  0  0  0  0  0  0
   17.8213   20.0788   23.2134 H   0  0  0  0  0  0  0  0  0  0  0  0
   18.3749   18.6421   24.1070 H   0  0  0  0  0  0  0  0  0  0  0  0
   19.9857   19.6921   23.1064 C   0  0  0  0  0  0  0  0  0  0  0  0
   20.0630   20.5503   22.4244 H   0  0  0  0  0  0  0  0  0  0  0  0
   20.3903   19.9909   24.0829 H   0  0  0  0  0  0  0  0  0  0  0  0
   20.7318   18.4868   22.5051 C   0  0  0  0  0  0  0  0  0  0  0  0
   21.0836   17.8312   23.3123 H   0  0  0  0  0  0  0  0  0  0  0  0
   21.6093   18.8027   21.9253 H   0  0  0  0  0  0  0  0  0  0  0  0
   19.7067   17.7195   21.6447 C   0  0  0  0  0  0  0  0  0  0  0  0
   19.7150   16.6575   21.9304 H   0  0  0  0  0  0  0  0  0  0  0  0
   18.3279   18.3394   21.9554 C   0  0  0  0  0  0  0  0  0  0  0  0
   17.9887   18.9555   21.1116 H   0  0  0  0  0  0  0  0  0  0  0  0
   17.5694   17.5665   22.1349 H   0  0  0  0  0  0  0  0  0  0  0  0
   20.0135   17.8718   20.2639 O   0  0  0  0  0  0  0  0  0  0  0  0
   19.3281   17.3767   19.7673 H   0  0  0  0  0  0  0  0  0  0  0  0
  1  2  1  0  0  0  0
  1  3  1  0  0  0  0
  1  4  1  0  0  0  0
  4  5  1  0  0  0  0
  4  6  1  0  0  0  0
  4  7  1  0  0  0  0
  7  8  1  0  0  0  0
  7  9  1  0  0  0  0
  7 10  1  0  0  0  0
 10 11  1  0  0  0  0
  1 12  1  0  0  0  0
 10 12  1  0  0  0  0
 12 13  1  0  0  0  0
 12 14  1  0  0  0  0
 10 15  1  0  0  0  0
 15 16  1  0  0  0  0
M  END
> <VConfSearch Rank>
947

> <Conf_Id>
33

> <Delta U+W>
0.015

> <U+W>
3.025

> <U>
5.843

> <W>
-2.819

> <W(PB)>
-4.568

> <W(SA)>
1.750

> <Valence>
13.789

> <Coulomb>
-8.574

> <VdW>
0.628

> <VdW6>
-3.284

> <VdW12>
3.913

> <Bond>
0.054

> <Angle>
4.033

> <Pdih>
9.702

> <Idih>
0.000

> <Tether>
0.000

$$$$
VeraChem MOL file


 16 16  0  0  0  0  0  0  0  0999 V2000     
   20.5659   18.0272   22.4438 C   0  0  0  0  0  0  0  0  0  0  0  0
   20.5507   17.1848   23.1489 H   0  0  0  0  0  0  0  0  0  0  0  0
   21.5946   18.1329   22.0728 H   0  0  0  0  0  0  0  0  0  0  0  0
   20.0823   19.3124   23.1505 C   0  0  0  0  0  0  0  0  0  0  0  0
   19.8341   19.0922   24.1980 H   0  0  0  0  0  0  0  0  0  0  0  0
   20.8577   20.0907   23.1483 H   0  0  0  0  0  0  0  0  0  0  0  0
   18.8230   19.7818   22.3915 C   0  0  0  0  0  0  0  0  0  0  0  0
   19.0984   20.5647   21.6726 H   0  0  0  0  0  0  0  0  0  0  0  0
   18.0625   20.1993   23.0650 H   0  0  0  0  0  0  0  0  0  0  0  0
   18.3091   18.5574   21.6224 C   0  0  0  0  0  0  0  0  0  0  0  0
   17.7609   18.8501   20.7153 H   0  0  0  0  0  0  0  0  0  0  0  0
   19.5813   17.7690   21.2835 C   0  0  0  0  0  0  0  0  0  0  0  0
   19.3813   16.6991   21.1377 H   0  0  0  0  0  0  0  0  0  0  0  0
   20.0049   18.1601   20.3490 H   0  0  0  0  0  0  0  0  0  0  0  0
   17.4895   17.7765   22.4799 O   0  0  0  0  0  0  0  0  0  0  0  0
   18.0555   17.5655   23.2507 H   0  0  0  0  0  0  0  0  0  0  0  0
  1  2  1  0  0  0  0
  1  3  1  0  0  0  0
  1  4  1  0  0  0  0
  4  5  1  0  0  0  0
  4  6  1  0  0  0  0
  4  7  1  0  0  0  0
  7  8  1  0  0  0  0
  7  9  1  0  0  0  0
  7 10  1  0  0  0  0
 10 11  1  0  0  0  0
  1 12  1  0  0  0  0
 10 12  1  0  0  0  0
 12 13  1  0  0  0  0
 12 14  1  0  0  0  0
 10 15  1  0  0  0  0
 15 16  1  0  0  0  0
M  END
> <VConfSearch Rank>
948

> <Conf_Id>
20

> <Delta U+W>
-0.483

> <U+W>
2.527

> <U>
4.508

> <W>
-1.981

> <W(PB)>
-3.712

> <W(SA)>
1.732

> <Valence>
14.705

> <Coulomb>
-10.687

> <VdW>
0.490

> <VdW6>
-3.745

> <VdW12>
4.235

> <Bond>
0.068

> <Angle>
3.901

> <Pdih>
10.737

> <Idih>
0.000

> <Tether>
0.000

$$$$
VeraChem MOL file


 16 16  0  0  0  0  0  0  0  0999 V2000     
   19.3886   19.4502   23.4586 C   0  0  0  0  0  0  0  0  0  0  0  0
   19.2228   18.8028   24.3310 H   0  0  0  0  0  0  0  0  0  0  0  0
   19.5612   20.4739   23.8176 H   0  0  0  0  0  0  0  0  0  0  0  0
   18.1841   19.3561   22.5120 C   0  0  0  0  0  0  0  0  0  0  0  0
   17.2292   19.3156   23.0535 H   0  0  0  0  0  0  0  0  0  0  0  0
   18.1661   20.2320   21.8486 H   0  0  0  0  0  0  0  0  0  0  0  0
   18.4441   18.0827   21.6865 C   0  0  0  0  0  0  0  0  0  0  0  0
   17.9958   18.1541   20.6872 H   0  0  0  0  0  0  0  0  0  0  0  0
   17.9942   17.2205   22.1974 H   0  0  0  0  0  0  0  0  0  0  0  0
   19.9768   17.9192   21.6104 C   0  0  0  0  0  0  0  0  0  0  0  0
   20.3335   18.1794   20.6031 H   0  0  0  0  0  0  0  0  0  0  0  0
   20.5708   18.9099   22.6329 C   0  0  0  0  0  0  0  0  0  0  0  0
   21.3309   18.4426   23.2730 H   0  0  0  0  0  0  0  0  0  0  0  0
   21.0513   19.7363   22.0931 H   0  0  0  0  0  0  0  0  0  0  0  0
   20.3457   16.5870   21.9467 O   0  0  0  0  0  0  0  0  0  0  0  0
   19.9345   16.0032   21.2747 H   0  0  0  0  0  0  0  0  0  0  0  0
  1  2  1  0  0  0  0
  1  3  1  0  0  0  0
  1  4  1  0  0  0  0
  4  5  1  0  0  0  0
  4  6  1  0  0  0  0
  4  7  1  0  0  0  0
  7  8  1  0  0  0  0
  7  9  1  0  0  0  0
  7 10  1  0  0  0  0
 10 11  1  0  0  0  0
  1 12  1  0  0  0  0
 10 12  1  0  0  0  0
 12 13  1  0  0  0  0
 12 14  1  0  0  0  0
 10 15  1  0  0  0  0
 15 16  1  0  0  0  0
M  END
> <VConfSearch Rank>
949

> <Conf_Id>
59

> <Delta U+W>
0.000

> <U+W>
3.010

> <U>
5.843

> <W>
-2.833

> <W(PB)>
-4.568

> <W(SA)>
1.735

> <Valence>
13.789

> <Coulomb>
-8.574

> <VdW>
0.628

> <VdW6>
-3.284

> <VdW12>
3.912

> <Bond>
0.054

> <Angle>
4.034

> <Pdih>
9.702

> <Idih>
0.000

> <Tether>
0.000

$$$$
VeraChem MOL file


 16 16  0  0  0  0  0  0  0  0999 V2000     
   19.1947   17.5018   23.1649 C   0  0  0  0  0  0  0  0  0  0  0  0
   19.6392   16.5341   23.4346 H   0  0  0  0  0  0  0  0  0  0  0  0
   18.3664   17.7045   23.8580 H   0  0  0  0  0  0  0  0  0  0  0  0
   18.6763   17.5239   21.7204 C   0  0  0  0  0  0  0  0  0  0  0  0
   19.3790   16.9863   21.0686 H   0  0  0  0  0  0  0  0  0  0  0  0
   17.6879   17.0547   21.6221 H   0  0  0  0  0  0  0  0  0  0  0  0
   18.6589   19.0160   21.3402 C   0  0  0  0  0  0  0  0  0  0  0  0
   17.6839   19.4503   21.5969 H   0  0  0  0  0  0  0  0  0  0  0  0
   18.8154   19.1606   20.2629 H   0  0  0  0  0  0  0  0  0  0  0  0
   19.7524   19.6986   22.1876 C   0  0  0  0  0  0  0  0  0  0  0  0
   19.3226   20.5712   22.7007 H   0  0  0  0  0  0  0  0  0  0  0  0
   20.2161   18.6524   23.2231 C   0  0  0  0  0  0  0  0  0  0  0  0
   21.2107   18.2690   22.9577 H   0  0  0  0  0  0  0  0  0  0  0  0
   20.2786   19.0826   24.2310 H   0  0  0  0  0  0  0  0  0  0  0  0
   20.8427   20.0874   21.3605 O   0  0  0  0  0  0  0  0  0  0  0  0
   21.5081   20.5025   21.9491 H   0  0  0  0  0  0  0  0  0  0  0  0
  1  2  1  0  0  0  0
  1  3  1  0  0  0  0
  1  4  1  0  0  0  0
  4  5  1  0  0  0  0
  4  6  1  0  0  0  0
  4  7  1  0  0  0  0
  7  8  1  0  0  0  0
  7  9  1  0  0  0  0
  7 10  1  0  0  0  0
 10 11  1  0  0  0  0
  1 12  1  0  0  0  0
 10 12  1  0  0  0  0
 12 13  1  0  0  0  0
 12 14  1  0  0  0  0
 10 15  1  0  0  0  0
 15 16  1  0  0  0  0
M  END
> <VConfSearch Rank>
950

> <Conf_Id>
33

> <Delta U+W>
0.015

> <U+W>
3.025

> <U>
5.843

> <W>
-2.819

> <W(PB)>
-4.568

> <W(SA)>
1.750

> <Valence>
13.789

> <Coulomb>
-8.574

> <VdW>
0.628

> <VdW6>
-3.284

> <VdW12>
3.913

> <Bond>
0.054

> <Angle>
4.033

> <Pdih>
9.702

> <Idih>
0.000

> <Tether>
0.000

$$$$
VeraChem MOL file


 16 16  0  0  0  0  0  0  0  0999 V2000     
   20.5077   18.4447   22.9523 C   0  0  0  0  0  0  0  0  0  0  0  0
   20.6207   19.1315   23.8024 H   0  0  0  0  0  0  0  0  0  0  0  0
   21.3875   17.7868   22.9360 H   0  0  0  0  0  0  0  0  0  0  0  0
   20.3760   19.2494   21.6408 C   0  0  0  0  0  0  0  0  0  0  0  0
   20.4264   20.3257   21.8560 H   0  0  0  0  0  0  0  0  0  0  0  0
   21.1864   19.0118   20.9380 H   0  0  0  0  0  0  0  0  0  0  0  0
   18.9995   18.8892   21.0426 C   0  0  0  0  0  0  0  0  0  0  0  0
   19.1244   18.1132   20.2758 H   0  0  0  0  0  0  0  0  0  0  0  0
   18.5129   19.7521   20.5686 H   0  0  0  0  0  0  0  0  0  0  0  0
   18.1696   18.3171   22.1998 C   0  0  0  0  0  0  0  0  0  0  0  0
   17.4096   17.6083   21.8409 H   0  0  0  0  0  0  0  0  0  0  0  0
   19.2063   17.6274   23.0967 C   0  0  0  0  0  0  0  0  0  0  0  0
   18.8724   17.5575   24.1406 H   0  0  0  0  0  0  0  0  0  0  0  0
   19.3720   16.6059   22.7298 H   0  0  0  0  0  0  0  0  0  0  0  0
   17.5679   19.3853   22.9165 O   0  0  0  0  0  0  0  0  0  0  0  0
   18.3126   19.9579   23.1932 H   0  0  0  0  0  0  0  0  0  0  0  0
  1  2  1  0  0  0  0
  1  3  1  0  0  0  0
  1  4  1  0  0  0  0
  4  5  1  0  0  0  0
  4  6  1  0  0  0  0
  4  7  1  0  0  0  0
  7  8  1  0  0  0  0
  7  9  1  0  0  0  0
  7 10  1  0  0  0  0
 10 11  1  0  0  0  0
  1 12  1  0  0  0  0
 10 12  1  0  0  0  0
 12 13  1  0  0  0  0
 12 14  1  0  0  0  0
 10 15  1  0  0  0  0
 15 16  1  0  0  0  0
M  END
> <VConfSearch Rank>
951

> <Conf_Id>
20

> <Delta U+W>
-0.483

> <U+W>
2.527

> <U>
4.508

> <W>
-1.981

> <W(PB)>
-3.712

> <W(SA)>
1.732

> <Valence>
14.705

> <Coulomb>
-10.687

> <VdW>
0.490

> <VdW6>
-3.745

> <VdW12>
4.235

> <Bond>
0.068

> <Angle>
3.901

> <Pdih>
10.737

> <Idih>
0.000

> <Tether>
0.000

$$$$
VeraChem MOL file


 16 16  0  0  0  0  0  0  0  0999 V2000     
   18.0901   18.2955   21.6515 C   0  0  0  0  0  0  0  0  0  0  0  0
   18.1884   18.7576   20.6594 H   0  0  0  0  0  0  0  0  0  0  0  0
   17.1146   17.7931   21.7020 H   0  0  0  0  0  0  0  0  0  0  0  0
   18.2539   19.3681   22.7371 C   0  0  0  0  0  0  0  0  0  0  0  0
   17.7650   20.3141   22.4671 H   0  0  0  0  0  0  0  0  0  0  0  0
   17.8148   19.0109   23.6790 H   0  0  0  0  0  0  0  0  0  0  0  0
   19.7776   19.5211   22.8976 C   0  0  0  0  0  0  0  0  0  0  0  0
   20.0447   19.8276   23.9172 H   0  0  0  0  0  0  0  0  0  0  0  0
   20.1398   20.2947   22.2069 H   0  0  0  0  0  0  0  0  0  0  0  0
   20.3924   18.1522   22.5374 C   0  0  0  0  0  0  0  0  0  0  0  0
   20.7366   17.6425   23.4491 H   0  0  0  0  0  0  0  0  0  0  0  0
   19.2632   17.3262   21.8874 C   0  0  0  0  0  0  0  0  0  0  0  0
   19.5834   16.8444   20.9540 H   0  0  0  0  0  0  0  0  0  0  0  0
   18.9532   16.5348   22.5821 H   0  0  0  0  0  0  0  0  0  0  0  0
   21.4662   18.3225   21.6198 O   0  0  0  0  0  0  0  0  0  0  0  0
   22.1457   18.8602   22.0788 H   0  0  0  0  0  0  0  0  0  0  0  0
  1  2  1  0  0  0  0
  1  3  1  0  0  0  0
  1  4  1  0  0  0  0
  4  5  1  0  0  0  0
  4  6  1  0  0  0  0
  4  7  1  0  0  0  0
  7  8  1  0  0  0  0
  7  9  1  0  0  0  0
  7 10  1  0  0  0  0
 10 11  1  0  0  0  0
  1 12  1  0  0  0  0
 10 12  1  0  0  0  0
 12 13  1  0  0  0  0
 12 14  1  0  0  0  0
 10 15  1  0  0  0  0
 15 16  1  0  0  0  0
M  END
> <VConfSearch Rank>
952

> <Conf_Id>
59

> <Delta U+W>
0.000

> <U+W>
3.010

> <U>
5.843

> <W>
-2.833

> <W(PB)>
-4.568

> <W(SA)>
1.735

> <Valence>
13.789

> <Coulomb>
-8.574

> <VdW>
0.628

> <VdW6>
-3.284

> <VdW12>
3.912

> <Bond>
0.054

> <Angle>
4.034

> <Pdih>
9.702

> <Idih>
0.000

> <Tether>
0.000

$$$$
VeraChem MOL file


 16 16  0  0  0  0  0  0  0  0999 V2000     
   20.7995   18.9843   21.9659 C   0  0  0  0  0  0  0  0  0  0  0  0
   21.8264   18.6412   22.1515 H   0  0  0  0  0  0  0  0  0  0  0  0
   20.8361   19.7904   21.2199 H   0  0  0  0  0  0  0  0  0  0  0  0
   20.1138   19.4922   23.2416 C   0  0  0  0  0  0  0  0  0  0  0  0
   20.3844   18.8452   24.0877 H   0  0  0  0  0  0  0  0  0  0  0  0
   20.4015   20.5227   23.4907 H   0  0  0  0  0  0  0  0  0  0  0  0
   18.6080   19.3567   22.9498 C   0  0  0  0  0  0  0  0  0  0  0  0
   18.2362   20.2836   22.4940 H   0  0  0  0  0  0  0  0  0  0  0  0
   18.0322   19.1822   23.8685 H   0  0  0  0  0  0  0  0  0  0  0  0
   18.4584   18.2029   21.9369 C   0  0  0  0  0  0  0  0  0  0  0  0
   17.8528   18.5439   21.0845 H   0  0  0  0  0  0  0  0  0  0  0  0
   19.8850   17.8516   21.4644 C   0  0  0  0  0  0  0  0  0  0  0  0
   20.2092   16.9000   21.9072 H   0  0  0  0  0  0  0  0  0  0  0  0
   19.9347   17.7497   20.3726 H   0  0  0  0  0  0  0  0  0  0  0  0
   17.8571   17.0756   22.5627 O   0  0  0  0  0  0  0  0  0  0  0  0
   17.7974   16.3738   21.8805 H   0  0  0  0  0  0  0  0  0  0  0  0
  1  2  1  0  0  0  0
  1  3  1  0  0  0  0
  1  4  1  0  0  0  0
  4  5  1  0  0  0  0
  4  6  1  0  0  0  0
  4  7  1  0  0  0  0
  7  8  1  0  0  0  0
  7  9  1  0  0  0  0
  7 10  1  0  0  0  0
 10 11  1  0  0  0  0
  1 12  1  0  0  0  0
 10 12  1  0  0  0  0
 12 13  1  0  0  0  0
 12 14  1  0  0  0  0
 10 15  1  0  0  0  0
 15 16  1  0  0  0  0
M  END
> <VConfSearch Rank>
953

> <Conf_Id>
33

> <Delta U+W>
0.015

> <U+W>
3.025

> <U>
5.843

> <W>
-2.819

> <W(PB)>
-4.568

> <W(SA)>
1.750

> <Valence>
13.789

> <Coulomb>
-8.574

> <VdW>
0.628

> <VdW6>
-3.284

> <VdW12>
3.913

> <Bond>
0.054

> <Angle>
4.033

> <Pdih>
9.702

> <Idih>
0.000

> <Tether>
0.000

$$$$
VeraChem MOL file


 16 16  0  0  0  0  0  0  0  0999 V2000     
   18.9236   17.4051   22.6131 C   0  0  0  0  0  0  0  0  0  0  0  0
   19.2388   17.0799   23.6142 H   0  0  0  0  0  0  0  0  0  0  0  0
   18.2873   16.6153   22.1910 H   0  0  0  0  0  0  0  0  0  0  0  0
   20.1641   17.6669   21.7312 C   0  0  0  0  0  0  0  0  0  0  0  0
   21.0795   17.4673   22.3051 H   0  0  0  0  0  0  0  0  0  0  0  0
   20.1761   17.0146   20.8472 H   0  0  0  0  0  0  0  0  0  0  0  0
   20.1047   19.1541   21.3225 C   0  0  0  0  0  0  0  0  0  0  0  0
   19.6670   19.2417   20.3193 H   0  0  0  0  0  0  0  0  0  0  0  0
   21.0995   19.6182   21.2947 H   0  0  0  0  0  0  0  0  0  0  0  0
   19.1732   19.8359   22.3338 C   0  0  0  0  0  0  0  0  0  0  0  0
   18.6784   20.7161   21.8985 H   0  0  0  0  0  0  0  0  0  0  0  0
   18.1605   18.7437   22.7032 C   0  0  0  0  0  0  0  0  0  0  0  0
   17.7184   18.9049   23.6955 H   0  0  0  0  0  0  0  0  0  0  0  0
   17.3445   18.7510   21.9686 H   0  0  0  0  0  0  0  0  0  0  0  0
   19.9182   20.1931   23.4889 O   0  0  0  0  0  0  0  0  0  0  0  0
   20.3180   19.3561   23.8031 H   0  0  0  0  0  0  0  0  0  0  0  0
  1  2  1  0  0  0  0
  1  3  1  0  0  0  0
  1  4  1  0  0  0  0
  4  5  1  0  0  0  0
  4  6  1  0  0  0  0
  4  7  1  0  0  0  0
  7  8  1  0  0  0  0
  7  9  1  0  0  0  0
  7 10  1  0  0  0  0
 10 11  1  0  0  0  0
  1 12  1  0  0  0  0
 10 12  1  0  0  0  0
 12 13  1  0  0  0  0
 12 14  1  0  0  0  0
 10 15  1  0  0  0  0
 15 16  1  0  0  0  0
M  END
> <VConfSearch Rank>
954

> <Conf_Id>
20

> <Delta U+W>
-0.483

> <U+W>
2.527

> <U>
4.508

> <W>
-1.981

> <W(PB)>
-3.712

> <W(SA)>
1.732

> <Valence>
14.705

> <Coulomb>
-10.687

> <VdW>
0.490

> <VdW6>
-3.745

> <VdW12>
4.235

> <Bond>
0.068

> <Angle>
3.901

> <Pdih>
10.737

> <Idih>
0.000

> <Tether>
0.000

$$$$
VeraChem MOL file


 16 16  0  0  0  0  0  0  0  0999 V2000     
   19.4268   18.2983   20.8846 C   0  0  0  0  0  0  0  0  0  0  0  0
   20.2565   17.5882   20.7624 H   0  0  0  0  0  0  0  0  0  0  0  0
   18.9712   18.4679   19.8996 H   0  0  0  0  0  0  0  0  0  0  0  0
   19.9483   19.5943   21.5203 C   0  0  0  0  0  0  0  0  0  0  0  0
   20.9319   19.8860   21.1276 H   0  0  0  0  0  0  0  0  0  0  0  0
   19.2427   20.4131   21.3223 H   0  0  0  0  0  0  0  0  0  0  0  0
   19.9860   19.2925   23.0296 C   0  0  0  0  0  0  0  0  0  0  0  0
   19.8357   20.2027   23.6245 H   0  0  0  0  0  0  0  0  0  0  0  0
   20.9679   18.8760   23.2924 H   0  0  0  0  0  0  0  0  0  0  0  0
   18.8763   18.2529   23.2931 C   0  0  0  0  0  0  0  0  0  0  0  0
   18.0266   18.7304   23.8026 H   0  0  0  0  0  0  0  0  0  0  0  0
   18.4205   17.7440   21.9099 C   0  0  0  0  0  0  0  0  0  0  0  0
   18.3621   16.6482   21.8675 H   0  0  0  0  0  0  0  0  0  0  0  0
   17.4194   18.1400   21.6949 H   0  0  0  0  0  0  0  0  0  0  0  0
   19.3873   17.1752   24.0684 O   0  0  0  0  0  0  0  0  0  0  0  0
   19.6704   17.5557   24.9267 H   0  0  0  0  0  0  0  0  0  0  0  0
  1  2  1  0  0  0  0
  1  3  1  0  0  0  0
  1  4  1  0  0  0  0
  4  5  1  0  0  0  0
  4  6  1  0  0  0  0
  4  7  1  0  0  0  0
  7  8  1  0  0  0  0
  7  9  1  0  0  0  0
  7 10  1  0  0  0  0
 10 11  1  0  0  0  0
  1 12  1  0  0  0  0
 10 12  1  0  0  0  0
 12 13  1  0  0  0  0
 12 14  1  0  0  0  0
 10 15  1  0  0  0  0
 15 16  1  0  0  0  0
M  END
> <VConfSearch Rank>
955

> <Conf_Id>
59

> <Delta U+W>
0.000

> <U+W>
3.010

> <U>
5.843

> <W>
-2.833

> <W(PB)>
-4.568

> <W(SA)>
1.735

> <Valence>
13.789

> <Coulomb>
-8.574

> <VdW>
0.628

> <VdW6>
-3.284

> <VdW12>
3.912

> <Bond>
0.054

> <Angle>
4.034

> <Pdih>
9.702

> <Idih>
0.000

> <Tether>
0.000

$$$$
VeraChem MOL file


 16 16  0  0  0  0  0  0  0  0999 V2000     
   19.6542   19.1753   23.5972 C   0  0  0  0  0  0  0  0  0  0  0  0
   20.2198   18.9671   24.5156 H   0  0  0  0  0  0  0  0  0  0  0  0
   19.1989   20.1709   23.6925 H   0  0  0  0  0  0  0  0  0  0  0  0
   18.5609   18.1305   23.3351 C   0  0  0  0  0  0  0  0  0  0  0  0
   18.9380   17.1306   23.5914 H   0  0  0  0  0  0  0  0  0  0  0  0
   17.6525   18.3170   23.9239 H   0  0  0  0  0  0  0  0  0  0  0  0
   18.3055   18.2123   21.8188 C   0  0  0  0  0  0  0  0  0  0  0  0
   17.5174   18.9495   21.6172 H   0  0  0  0  0  0  0  0  0  0  0  0
   17.9725   17.2480   21.4123 H   0  0  0  0  0  0  0  0  0  0  0  0
   19.6223   18.6952   21.1764 C   0  0  0  0  0  0  0  0  0  0  0  0
   19.4138   19.5549   20.5229 H   0  0  0  0  0  0  0  0  0  0  0  0
   20.5407   19.1262   22.3393 C   0  0  0  0  0  0  0  0  0  0  0  0
   21.3402   18.3873   22.4869 H   0  0  0  0  0  0  0  0  0  0  0  0
   21.0119   20.0978   22.1425 H   0  0  0  0  0  0  0  0  0  0  0  0
   20.2256   17.6379   20.4403 O   0  0  0  0  0  0  0  0  0  0  0  0
   21.0585   17.9953   20.0660 H   0  0  0  0  0  0  0  0  0  0  0  0
  1  2  1  0  0  0  0
  1  3  1  0  0  0  0
  1  4  1  0  0  0  0
  4  5  1  0  0  0  0
  4  6  1  0  0  0  0
  4  7  1  0  0  0  0
  7  8  1  0  0  0  0
  7  9  1  0  0  0  0
  7 10  1  0  0  0  0
 10 11  1  0  0  0  0
  1 12  1  0  0  0  0
 10 12  1  0  0  0  0
 12 13  1  0  0  0  0
 12 14  1  0  0  0  0
 10 15  1  0  0  0  0
 15 16  1  0  0  0  0
M  END
> <VConfSearch Rank>
956

> <Conf_Id>
33

> <Delta U+W>
0.015

> <U+W>
3.025

> <U>
5.843

> <W>
-2.819

> <W(PB)>
-4.568

> <W(SA)>
1.750

> <Valence>
13.789

> <Coulomb>
-8.574

> <VdW>
0.628

> <VdW6>
-3.284

> <VdW12>
3.913

> <Bond>
0.054

> <Angle>
4.033

> <Pdih>
9.702

> <Idih>
0.000

> <Tether>
0.000

$$$$
VeraChem MOL file


 16 16  0  0  0  0  0  0  0  0999 V2000     
   18.4225   19.5280   22.4291 C   0  0  0  0  0  0  0  0  0  0  0  0
   17.4060   19.1158   22.4924 H   0  0  0  0  0  0  0  0  0  0  0  0
   18.3482   20.6177   22.5473 H   0  0  0  0  0  0  0  0  0  0  0  0
   19.0609   19.1457   21.0759 C   0  0  0  0  0  0  0  0  0  0  0  0
   18.3530   18.5495   20.4838 H   0  0  0  0  0  0  0  0  0  0  0  0
   19.3216   20.0356   20.4866 H   0  0  0  0  0  0  0  0  0  0  0  0
   20.3167   18.3107   21.4047 C   0  0  0  0  0  0  0  0  0  0  0  0
   21.2049   18.9555   21.3721 H   0  0  0  0  0  0  0  0  0  0  0  0
   20.4715   17.4923   20.6891 H   0  0  0  0  0  0  0  0  0  0  0  0
   20.1241   17.8001   22.8390 C   0  0  0  0  0  0  0  0  0  0  0  0
   21.0876   17.6310   23.3411 H   0  0  0  0  0  0  0  0  0  0  0  0
   19.3172   18.9106   23.5249 C   0  0  0  0  0  0  0  0  0  0  0  0
   18.7337   18.5356   24.3763 H   0  0  0  0  0  0  0  0  0  0  0  0
   20.0106   19.6726   23.9048 H   0  0  0  0  0  0  0  0  0  0  0  0
   19.3512   16.6091   22.8116 O   0  0  0  0  0  0  0  0  0  0  0  0
   18.5220   16.8540   22.3514 H   0  0  0  0  0  0  0  0  0  0  0  0
  1  2  1  0  0  0  0
  1  3  1  0  0  0  0
  1  4  1  0  0  0  0
  4  5  1  0  0  0  0
  4  6  1  0  0  0  0
  4  7  1  0  0  0  0
  7  8  1  0  0  0  0
  7  9  1  0  0  0  0
  7 10  1  0  0  0  0
 10 11  1  0  0  0  0
  1 12  1  0  0  0  0
 10 12  1  0  0  0  0
 12 13  1  0  0  0  0
 12 14  1  0  0  0  0
 10 15  1  0  0  0  0
 15 16  1  0  0  0  0
M  END
> <VConfSearch Rank>
957

> <Conf_Id>
20

> <Delta U+W>
-0.483

> <U+W>
2.527

> <U>
4.508

> <W>
-1.981

> <W(PB)>
-3.712

> <W(SA)>
1.732

> <Valence>
14.705

> <Coulomb>
-10.687

> <VdW>
0.490

> <VdW6>
-3.745

> <VdW12>
4.235

> <Bond>
0.068

> <Angle>
3.901

> <Pdih>
10.737

> <Idih>
0.000

> <Tether>
0.000

$$$$
VeraChem MOL file


 16 16  0  0  0  0  0  0  0  0999 V2000     
   19.8432   17.2448   22.7193 C   0  0  0  0  0  0  0  0  0  0  0  0
   20.1796   17.3750   23.7573 H   0  0  0  0  0  0  0  0  0  0  0  0
   19.9605   16.1864   22.4497 H   0  0  0  0  0  0  0  0  0  0  0  0
   20.6435   18.1763   21.7986 C   0  0  0  0  0  0  0  0  0  0  0  0
   21.7036   18.2332   22.0808 H   0  0  0  0  0  0  0  0  0  0  0  0
   20.5825   17.8141   20.7629 H   0  0  0  0  0  0  0  0  0  0  0  0
   19.9318   19.5365   21.9176 C   0  0  0  0  0  0  0  0  0  0  0  0
   20.0359   20.1255   20.9972 H   0  0  0  0  0  0  0  0  0  0  0  0
   20.3815   20.1112   22.7387 H   0  0  0  0  0  0  0  0  0  0  0  0
   18.4522   19.2273   22.2289 C   0  0  0  0  0  0  0  0  0  0  0  0
   17.8330   19.4170   21.3401 H   0  0  0  0  0  0  0  0  0  0  0  0
   18.3872   17.7276   22.5847 C   0  0  0  0  0  0  0  0  0  0  0  0
   17.8131   17.5414   23.5021 H   0  0  0  0  0  0  0  0  0  0  0  0
   17.8938   17.1868   21.7667 H   0  0  0  0  0  0  0  0  0  0  0  0
   18.0077   20.0122   23.3290 O   0  0  0  0  0  0  0  0  0  0  0  0
   18.0804   20.9503   23.0529 H   0  0  0  0  0  0  0  0  0  0  0  0
  1  2  1  0  0  0  0
  1  3  1  0  0  0  0
  1  4  1  0  0  0  0
  4  5  1  0  0  0  0
  4  6  1  0  0  0  0
  4  7  1  0  0  0  0
  7  8  1  0  0  0  0
  7  9  1  0  0  0  0
  7 10  1  0  0  0  0
 10 11  1  0  0  0  0
  1 12  1  0  0  0  0
 10 12  1  0  0  0  0
 12 13  1  0  0  0  0
 12 14  1  0  0  0  0
 10 15  1  0  0  0  0
 15 16  1  0  0  0  0
M  END
> <VConfSearch Rank>
958

> <Conf_Id>
59

> <Delta U+W>
0.000

> <U+W>
3.010

> <U>
5.843

> <W>
-2.833

> <W(PB)>
-4.568

> <W(SA)>
1.735

> <Valence>
13.789

> <Coulomb>
-8.574

> <VdW>
0.628

> <VdW6>
-3.284

> <VdW12>
3.912

> <Bond>
0.054

> <Angle>
4.034

> <Pdih>
9.702

> <Idih>
0.000

> <Tether>
0.000

$$$$
VeraChem MOL file


 16 16  0  0  0  0  0  0  0  0999 V2000     
   18.0544   18.5662   22.6165 C   0  0  0  0  0  0  0  0  0  0  0  0
   17.3947   18.7176   23.4818 H   0  0  0  0  0  0  0  0  0  0  0  0
   17.4266   18.4498   21.7221 H   0  0  0  0  0  0  0  0  0  0  0  0
   18.9563   17.3349   22.7781 C   0  0  0  0  0  0  0  0  0  0  0  0
   19.3084   17.2701   23.8171 H   0  0  0  0  0  0  0  0  0  0  0  0
   18.4365   16.3990   22.5319 H   0  0  0  0  0  0  0  0  0  0  0  0
   20.1505   17.6069   21.8449 C   0  0  0  0  0  0  0  0  0  0  0  0
   19.9376   17.2028   20.8467 H   0  0  0  0  0  0  0  0  0  0  0  0
   21.0675   17.1261   22.2110 H   0  0  0  0  0  0  0  0  0  0  0  0
   20.2921   19.1399   21.7473 C   0  0  0  0  0  0  0  0  0  0  0  0
   20.3307   19.4345   20.6884 H   0  0  0  0  0  0  0  0  0  0  0  0
   19.0353   19.7359   22.4158 C   0  0  0  0  0  0  0  0  0  0  0  0
   19.2920   20.1665   23.3933 H   0  0  0  0  0  0  0  0  0  0  0  0
   18.5912   20.5312   21.8033 H   0  0  0  0  0  0  0  0  0  0  0  0
   21.4628   19.5691   22.4322 O   0  0  0  0  0  0  0  0  0  0  0  0
   21.4960   20.5454   22.3479 H   0  0  0  0  0  0  0  0  0  0  0  0
  1  2  1  0  0  0  0
  1  3  1  0  0  0  0
  1  4  1  0  0  0  0
  4  5  1  0  0  0  0
  4  6  1  0  0  0  0
  4  7  1  0  0  0  0
  7  8  1  0  0  0  0
  7  9  1  0  0  0  0
  7 10  1  0  0  0  0
 10 11  1  0  0  0  0
  1 12  1  0  0  0  0
 10 12  1  0  0  0  0
 12 13  1  0  0  0  0
 12 14  1  0  0  0  0
 10 15  1  0  0  0  0
 15 16  1  0  0  0  0
M  END
> <VConfSearch Rank>
959

> <Conf_Id>
33

> <Delta U+W>
0.015

> <U+W>
3.025

> <U>
5.843

> <W>
-2.819

> <W(PB)>
-4.568

> <W(SA)>
1.750

> <Valence>
13.789

> <Coulomb>
-8.574

> <VdW>
0.628

> <VdW6>
-3.284

> <VdW12>
3.913

> <Bond>
0.054

> <Angle>
4.033

> <Pdih>
9.702

> <Idih>
0.000

> <Tether>
0.000

$$$$
VeraChem MOL file


 16 16  0  0  0  0  0  0  0  0999 V2000     
   20.1647   19.5525   22.7859 C   0  0  0  0  0  0  0  0  0  0  0  0
   19.6332   20.4620   23.0986 H   0  0  0  0  0  0  0  0  0  0  0  0
   21.2280   19.6885   23.0263 H   0  0  0  0  0  0  0  0  0  0  0  0
   19.9502   19.3121   21.2755 C   0  0  0  0  0  0  0  0  0  0  0  0
   19.3159   20.1056   20.8571 H   0  0  0  0  0  0  0  0  0  0  0  0
   20.9015   19.3212   20.7260 H   0  0  0  0  0  0  0  0  0  0  0  0
   19.2477   17.9438   21.1456 C   0  0  0  0  0  0  0  0  0  0  0  0
   19.9926   17.1688   20.9218 H   0  0  0  0  0  0  0  0  0  0  0  0
   18.5022   17.9336   20.3393 H   0  0  0  0  0  0  0  0  0  0  0  0
   18.6241   17.6542   22.5175 C   0  0  0  0  0  0  0  0  0  0  0  0
   18.5358   16.5738   22.7019 H   0  0  0  0  0  0  0  0  0  0  0  0
   19.5848   18.3200   23.5119 C   0  0  0  0  0  0  0  0  0  0  0  0
   19.0885   18.5874   24.4543 H   0  0  0  0  0  0  0  0  0  0  0  0
   20.3956   17.6185   23.7485 H   0  0  0  0  0  0  0  0  0  0  0  0
   17.3554   18.2872   22.5976 O   0  0  0  0  0  0  0  0  0  0  0  0
   17.5317   19.2344   22.4219 H   0  0  0  0  0  0  0  0  0  0  0  0
  1  2  1  0  0  0  0
  1  3  1  0  0  0  0
  1  4  1  0  0  0  0
  4  5  1  0  0  0  0
  4  6  1  0  0  0  0
  4  7  1  0  0  0  0
  7  8  1  0  0  0  0
  7  9  1  0  0  0  0
  7 10  1  0  0  0  0
 10 11  1  0  0  0  0
  1 12  1  0  0  0  0
 10 12  1  0  0  0  0
 12 13  1  0  0  0  0
 12 14  1  0  0  0  0
 10 15  1  0  0  0  0
 15 16  1  0  0  0  0
M  END
> <VConfSearch Rank>
960

> <Conf_Id>
20

> <Delta U+W>
-0.483

> <U+W>
2.527

> <U>
4.508

> <W>
-1.981

> <W(PB)>
-3.712

> <W(SA)>
1.732

> <Valence>
14.705

> <Coulomb>
-10.687

> <VdW>
0.490

> <VdW6>
-3.745

> <VdW12>
4.235

> <Bond>
0.068

> <Angle>
3.901

> <Pdih>
10.737

> <Idih>
0.000

> <Tether>
0.000

$$$$
VeraChem MOL file


 16 16  0  0  0  0  0  0  0  0999 V2000     
   18.8504   18.0058   23.5613 C   0  0  0  0  0  0  0  0  0  0  0  0
   19.6207   18.2399   24.3092 H   0  0  0  0  0  0  0  0  0  0  0  0
   18.0113   17.5155   24.0733 H   0  0  0  0  0  0  0  0  0  0  0  0
   19.4558   17.1290   22.4565 C   0  0  0  0  0  0  0  0  0  0  0  0
   20.1515   16.3773   22.8536 H   0  0  0  0  0  0  0  0  0  0  0  0
   18.6532   16.6046   21.9193 H   0  0  0  0  0  0  0  0  0  0  0  0
   20.1490   18.1276   21.5116 C   0  0  0  0  0  0  0  0  0  0  0  0
   20.1693   17.7552   20.4793 H   0  0  0  0  0  0  0  0  0  0  0  0
   21.1876   18.2751   21.8376 H   0  0  0  0  0  0  0  0  0  0  0  0
   19.3610   19.4499   21.6223 C   0  0  0  0  0  0  0  0  0  0  0  0
   18.7574   19.6053   20.7162 H   0  0  0  0  0  0  0  0  0  0  0  0
   18.4242   19.2969   22.8384 C   0  0  0  0  0  0  0  0  0  0  0  0
   18.4643   20.1668   23.5075 H   0  0  0  0  0  0  0  0  0  0  0  0
   17.3903   19.1964   22.4834 H   0  0  0  0  0  0  0  0  0  0  0  0
   20.2543   20.5384   21.8250 O   0  0  0  0  0  0  0  0  0  0  0  0
   20.8293   20.5817   21.0319 H   0  0  0  0  0  0  0  0  0  0  0  0
  1  2  1  0  0  0  0
  1  3  1  0  0  0  0
  1  4  1  0  0  0  0
  4  5  1  0  0  0  0
  4  6  1  0  0  0  0
  4  7  1  0  0  0  0
  7  8  1  0  0  0  0
  7  9  1  0  0  0  0
  7 10  1  0  0  0  0
 10 11  1  0  0  0  0
  1 12  1  0  0  0  0
 10 12  1  0  0  0  0
 12 13  1  0  0  0  0
 12 14  1  0  0  0  0
 10 15  1  0  0  0  0
 15 16  1  0  0  0  0
M  END
> <VConfSearch Rank>
961

> <Conf_Id>
59

> <Delta U+W>
0.000

> <U+W>
3.010

> <U>
5.843

> <W>
-2.833

> <W(PB)>
-4.568

> <W(SA)>
1.735

> <Valence>
13.789

> <Coulomb>
-8.574

> <VdW>
0.628

> <VdW6>
-3.284

> <VdW12>
3.912

> <Bond>
0.054

> <Angle>
4.034

> <Pdih>
9.702

> <Idih>
0.000

> <Tether>
0.000

$$$$
VeraChem MOL file


 16 16  0  0  0  0  0  0  0  0999 V2000     
   20.3546   18.3520   23.3778 C   0  0  0  0  0  0  0  0  0  0  0  0
   20.6579   18.7993   24.3343 H   0  0  0  0  0  0  0  0  0  0  0  0
   20.8156   17.3573   23.3023 H   0  0  0  0  0  0  0  0  0  0  0  0
   20.7730   19.2077   22.1743 C   0  0  0  0  0  0  0  0  0  0  0  0
   20.6272   20.2711   22.4100 H   0  0  0  0  0  0  0  0  0  0  0  0
   21.8256   19.0576   21.8984 H   0  0  0  0  0  0  0  0  0  0  0  0
   19.8058   18.7913   21.0508 C   0  0  0  0  0  0  0  0  0  0  0  0
   20.2362   17.9544   20.4855 H   0  0  0  0  0  0  0  0  0  0  0  0
   19.6274   19.6139   20.3454 H   0  0  0  0  0  0  0  0  0  0  0  0
   18.5088   18.3189   21.7396 C   0  0  0  0  0  0  0  0  0  0  0  0
   18.2327   17.3270   21.3530 H   0  0  0  0  0  0  0  0  0  0  0  0
   18.8254   18.2288   23.2474 C   0  0  0  0  0  0  0  0  0  0  0  0
   18.3468   19.0573   23.7870 H   0  0  0  0  0  0  0  0  0  0  0  0
   18.4604   17.2887   23.6808 H   0  0  0  0  0  0  0  0  0  0  0  0
   17.4633   19.2566   21.5127 O   0  0  0  0  0  0  0  0  0  0  0  0
   16.6719   18.9138   21.9792 H   0  0  0  0  0  0  0  0  0  0  0  0
  1  2  1  0  0  0  0
  1  3  1  0  0  0  0
  1  4  1  0  0  0  0
  4  5  1  0  0  0  0
  4  6  1  0  0  0  0
  4  7  1  0  0  0  0
  7  8  1  0  0  0  0
  7  9  1  0  0  0  0
  7 10  1  0  0  0  0
 10 11  1  0  0  0  0
  1 12  1  0  0  0  0
 10 12  1  0  0  0  0
 12 13  1  0  0  0  0
 12 14  1  0  0  0  0
 10 15  1  0  0  0  0
 15 16  1  0  0  0  0
M  END
> <VConfSearch Rank>
962

> <Conf_Id>
33

> <Delta U+W>
0.015

> <U+W>
3.025

> <U>
5.843

> <W>
-2.819

> <W(PB)>
-4.568

> <W(SA)>
1.750

> <Valence>
13.789

> <Coulomb>
-8.574

> <VdW>
0.628

> <VdW6>
-3.284

> <VdW12>
3.913

> <Bond>
0.054

> <Angle>
4.033

> <Pdih>
9.702

> <Idih>
0.000

> <Tether>
0.000

$$$$
VeraChem MOL file


 16 16  0  0  0  0  0  0  0  0999 V2000     
   18.4914   19.5870   22.0476 C   0  0  0  0  0  0  0  0  0  0  0  0
   17.8390   19.4258   21.1784 H   0  0  0  0  0  0  0  0  0  0  0  0
   18.1958   20.5365   22.5146 H   0  0  0  0  0  0  0  0  0  0  0  0
   19.9687   19.6108   21.5983 C   0  0  0  0  0  0  0  0  0  0  0  0
   20.0313   19.4622   20.5115 H   0  0  0  0  0  0  0  0  0  0  0  0
   20.4463   20.5724   21.8313 H   0  0  0  0  0  0  0  0  0  0  0  0
   20.6694   18.4503   22.3364 C   0  0  0  0  0  0  0  0  0  0  0  0
   21.1810   18.8378   23.2273 H   0  0  0  0  0  0  0  0  0  0  0  0
   21.4210   17.9520   21.7097 H   0  0  0  0  0  0  0  0  0  0  0  0
   19.5545   17.4932   22.7788 C   0  0  0  0  0  0  0  0  0  0  0  0
   19.8379   16.9310   23.6803 H   0  0  0  0  0  0  0  0  0  0  0  0
   18.3551   18.4138   23.0412 C   0  0  0  0  0  0  0  0  0  0  0  0
   17.3965   17.8884   22.9359 H   0  0  0  0  0  0  0  0  0  0  0  0
   18.4161   18.7947   24.0693 H   0  0  0  0  0  0  0  0  0  0  0  0
   19.2427   16.6121   21.7095 O   0  0  0  0  0  0  0  0  0  0  0  0
   19.0051   17.1956   20.9597 H   0  0  0  0  0  0  0  0  0  0  0  0
  1  2  1  0  0  0  0
  1  3  1  0  0  0  0
  1  4  1  0  0  0  0
  4  5  1  0  0  0  0
  4  6  1  0  0  0  0
  4  7  1  0  0  0  0
  7  8  1  0  0  0  0
  7  9  1  0  0  0  0
  7 10  1  0  0  0  0
 10 11  1  0  0  0  0
  1 12  1  0  0  0  0
 10 12  1  0  0  0  0
 12 13  1  0  0  0  0
 12 14  1  0  0  0  0
 10 15  1  0  0  0  0
 15 16  1  0  0  0  0
M  END
> <VConfSearch Rank>
963

> <Conf_Id>
20

> <Delta U+W>
-0.483

> <U+W>
2.527

> <U>
4.508

> <W>
-1.981

> <W(PB)>
-3.712

> <W(SA)>
1.732

> <Valence>
14.705

> <Coulomb>
-10.687

> <VdW>
0.490

> <VdW6>
-3.745

> <VdW12>
4.235

> <Bond>
0.068

> <Angle>
3.901

> <Pdih>
10.737

> <Idih>
0.000

> <Tether>
0.000

$$$$
VeraChem MOL file


 16 16  0  0  0  0  0  0  0  0999 V2000     
   18.4134   17.9041   23.2080 C   0  0  0  0  0  0  0  0  0  0  0  0
   19.0331   17.3042   23.8890 H   0  0  0  0  0  0  0  0  0  0  0  0
   17.3649   17.8061   23.5204 H   0  0  0  0  0  0  0  0  0  0  0  0
   18.6403   17.4399   21.7627 C   0  0  0  0  0  0  0  0  0  0  0  0
   18.7302   16.3479   21.6837 H   0  0  0  0  0  0  0  0  0  0  0  0
   17.7980   17.7617   21.1346 H   0  0  0  0  0  0  0  0  0  0  0  0
   19.9248   18.1668   21.3240 C   0  0  0  0  0  0  0  0  0  0  0  0
   19.9314   18.3518   20.2421 H   0  0  0  0  0  0  0  0  0  0  0  0
   20.7959   17.5423   21.5649 H   0  0  0  0  0  0  0  0  0  0  0  0
   19.9738   19.4849   22.1252 C   0  0  0  0  0  0  0  0  0  0  0  0
   19.7311   20.3334   21.4690 H   0  0  0  0  0  0  0  0  0  0  0  0
   18.8971   19.3660   23.2236 C   0  0  0  0  0  0  0  0  0  0  0  0
   19.2767   19.6557   24.2125 H   0  0  0  0  0  0  0  0  0  0  0  0
   18.0607   20.0334   22.9786 H   0  0  0  0  0  0  0  0  0  0  0  0
   21.2580   19.6544   22.7134 O   0  0  0  0  0  0  0  0  0  0  0  0
   21.9002   19.7127   21.9747 H   0  0  0  0  0  0  0  0  0  0  0  0
  1  2  1  0  0  0  0
  1  3  1  0  0  0  0
  1  4  1  0  0  0  0
  4  5  1  0  0  0  0
  4  6  1  0  0  0  0
  4  7  1  0  0  0  0
  7  8  1  0  0  0  0
  7  9  1  0  0  0  0
  7 10  1  0  0  0  0
 10 11  1  0  0  0  0
  1 12  1  0  0  0  0
 10 12  1  0  0  0  0
 12 13  1  0  0  0  0
 12 14  1  0  0  0  0
 10 15  1  0  0  0  0
 15 16  1  0  0  0  0
M  END
> <VConfSearch Rank>
964

> <Conf_Id>
59

> <Delta U+W>
0.000

> <U+W>
3.010

> <U>
5.843

> <W>
-2.833

> <W(PB)>
-4.568

> <W(SA)>
1.735

> <Valence>
13.789

> <Coulomb>
-8.574

> <VdW>
0.628

> <VdW6>
-3.284

> <VdW12>
3.912

> <Bond>
0.054

> <Angle>
4.034

> <Pdih>
9.702

> <Idih>
0.000

> <Tether>
0.000

$$$$
VeraChem MOL file


 16 16  0  0  0  0  0  0  0  0999 V2000     
   18.1014   18.6586   22.7762 C   0  0  0  0  0  0  0  0  0  0  0  0
   17.3881   19.3866   23.1862 H   0  0  0  0  0  0  0  0  0  0  0  0
   17.5646   17.7173   22.5931 H   0  0  0  0  0  0  0  0  0  0  0  0
   19.2836   18.4034   23.7212 C   0  0  0  0  0  0  0  0  0  0  0  0
   19.5951   19.3496   24.1852 H   0  0  0  0  0  0  0  0  0  0  0  0
   19.0352   17.6931   24.5214 H   0  0  0  0  0  0  0  0  0  0  0  0
   20.4058   17.8853   22.8029 C   0  0  0  0  0  0  0  0  0  0  0  0
   20.3483   16.7913   22.7321 H   0  0  0  0  0  0  0  0  0  0  0  0
   21.3993   18.1427   23.1939 H   0  0  0  0  0  0  0  0  0  0  0  0
   20.1495   18.4938   21.4088 C   0  0  0  0  0  0  0  0  0  0  0  0
   20.1564   17.6924   20.6557 H   0  0  0  0  0  0  0  0  0  0  0  0
   18.7535   19.1488   21.4704 C   0  0  0  0  0  0  0  0  0  0  0  0
   18.8472   20.2429   21.4996 H   0  0  0  0  0  0  0  0  0  0  0  0
   18.1455   18.8859   20.5952 H   0  0  0  0  0  0  0  0  0  0  0  0
   21.1382   19.4726   21.1114 O   0  0  0  0  0  0  0  0  0  0  0  0
   20.9210   19.8316   20.2251 H   0  0  0  0  0  0  0  0  0  0  0  0
  1  2  1  0  0  0  0
  1  3  1  0  0  0  0
  1  4  1  0  0  0  0
  4  5  1  0  0  0  0
  4  6  1  0  0  0  0
  4  7  1  0  0  0  0
  7  8  1  0  0  0  0
  7  9  1  0  0  0  0
  7 10  1  0  0  0  0
 10 11  1  0  0  0  0
  1 12  1  0  0  0  0
 10 12  1  0  0  0  0
 12 13  1  0  0  0  0
 12 14  1  0  0  0  0
 10 15  1  0  0  0  0
 15 16  1  0  0  0  0
M  END
> <VConfSearch Rank>
965

> <Conf_Id>
33

> <Delta U+W>
0.015

> <U+W>
3.025

> <U>
5.843

> <W>
-2.819

> <W(PB)>
-4.568

> <W(SA)>
1.750

> <Valence>
13.789

> <Coulomb>
-8.574

> <VdW>
0.628

> <VdW6>
-3.284

> <VdW12>
3.913

> <Bond>
0.054

> <Angle>
4.033

> <Pdih>
9.702

> <Idih>
0.000

> <Tether>
0.000

$$$$
VeraChem MOL file


 16 16  0  0  0  0  0  0  0  0999 V2000     
   18.7051   18.6870   23.4096 C   0  0  0  0  0  0  0  0  0  0  0  0
   19.3262   18.9374   24.2806 H   0  0  0  0  0  0  0  0  0  0  0  0
   17.6679   18.5867   23.7577 H   0  0  0  0  0  0  0  0  0  0  0  0
   19.2144   17.3824   22.7589 C   0  0  0  0  0  0  0  0  0  0  0  0
   20.0814   17.0008   23.3156 H   0  0  0  0  0  0  0  0  0  0  0  0
   18.4433   16.5999   22.7656 H   0  0  0  0  0  0  0  0  0  0  0  0
   19.6248   17.7444   21.3156 C   0  0  0  0  0  0  0  0  0  0  0  0
   18.8083   17.4894   20.6272 H   0  0  0  0  0  0  0  0  0  0  0  0
   20.5203   17.1994   20.9884 H   0  0  0  0  0  0  0  0  0  0  0  0
   19.8322   19.2648   21.3013 C   0  0  0  0  0  0  0  0  0  0  0  0
   19.6460   19.6892   20.3042 H   0  0  0  0  0  0  0  0  0  0  0  0
   18.8257   19.7882   22.3347 C   0  0  0  0  0  0  0  0  0  0  0  0
   19.1303   20.7537   22.7602 H   0  0  0  0  0  0  0  0  0  0  0  0
   17.8533   19.9308   21.8449 H   0  0  0  0  0  0  0  0  0  0  0  0
   21.1499   19.5613   21.7401 O   0  0  0  0  0  0  0  0  0  0  0  0
   21.2227   19.1484   22.6252 H   0  0  0  0  0  0  0  0  0  0  0  0
  1  2  1  0  0  0  0
  1  3  1  0  0  0  0
  1  4  1  0  0  0  0
  4  5  1  0  0  0  0
  4  6  1  0  0  0  0
  4  7  1  0  0  0  0
  7  8  1  0  0  0  0
  7  9  1  0  0  0  0
  7 10  1  0  0  0  0
 10 11  1  0  0  0  0
  1 12  1  0  0  0  0
 10 12  1  0  0  0  0
 12 13  1  0  0  0  0
 12 14  1  0  0  0  0
 10 15  1  0  0  0  0
 15 16  1  0  0  0  0
M  END
> <VConfSearch Rank>
966

> <Conf_Id>
20

> <Delta U+W>
-0.483

> <U+W>
2.527

> <U>
4.508

> <W>
-1.981

> <W(PB)>
-3.712

> <W(SA)>
1.732

> <Valence>
14.705

> <Coulomb>
-10.687

> <VdW>
0.490

> <VdW6>
-3.745

> <VdW12>
4.235

> <Bond>
0.068

> <Angle>
3.901

> <Pdih>
10.737

> <Idih>
0.000

> <Tether>
0.000

$$$$
VeraChem MOL file


 16 16  0  0  0  0  0  0  0  0999 V2000     
   18.8130   18.5004   20.9674 C   0  0  0  0  0  0  0  0  0  0  0  0
   18.4738   19.5243   20.7570 H   0  0  0  0  0  0  0  0  0  0  0  0
   18.6521   17.8926   20.0667 H   0  0  0  0  0  0  0  0  0  0  0  0
   18.0619   17.9503   22.1877 C   0  0  0  0  0  0  0  0  0  0  0  0
   17.0029   18.2421   22.1931 H   0  0  0  0  0  0  0  0  0  0  0  0
   18.1159   16.8527   22.1910 H   0  0  0  0  0  0  0  0  0  0  0  0
   18.8311   18.5133   23.3968 C   0  0  0  0  0  0  0  0  0  0  0  0
   18.7606   17.8441   24.2640 H   0  0  0  0  0  0  0  0  0  0  0  0
   18.3998   19.4824   23.6824 H   0  0  0  0  0  0  0  0  0  0  0  0
   20.2931   18.6934   22.9366 C   0  0  0  0  0  0  0  0  0  0  0  0
   20.9276   17.9154   23.3857 H   0  0  0  0  0  0  0  0  0  0  0  0
   20.2897   18.5258   21.4031 C   0  0  0  0  0  0  0  0  0  0  0  0
   20.8474   19.3240   20.8953 H   0  0  0  0  0  0  0  0  0  0  0  0
   20.7661   17.5706   21.1464 H   0  0  0  0  0  0  0  0  0  0  0  0
   20.7620   19.9899   23.2874 O   0  0  0  0  0  0  0  0  0  0  0  0
   20.7325   20.0444   24.2660 H   0  0  0  0  0  0  0  0  0  0  0  0
  1  2  1  0  0  0  0
  1  3  1  0  0  0  0
  1  4  1  0  0  0  0
  4  5  1  0  0  0  0
  4  6  1  0  0  0  0
  4  7  1  0  0  0  0
  7  8  1  0  0  0  0
  7  9  1  0  0  0  0
  7 10  1  0  0  0  0
 10 11  1  0  0  0  0
  1 12  1  0  0  0  0
 10 12  1  0  0  0  0
 12 13  1  0  0  0  0
 12 14  1  0  0  0  0
 10 15  1  0  0  0  0
 15 16  1  0  0  0  0
M  END
> <VConfSearch Rank>
967

> <Conf_Id>
59

> <Delta U+W>
0.000

> <U+W>
3.010

> <U>
5.843

> <W>
-2.833

> <W(PB)>
-4.568

> <W(SA)>
1.735

> <Valence>
13.789

> <Coulomb>
-8.574

> <VdW>
0.628

> <VdW6>
-3.284

> <VdW12>
3.912

> <Bond>
0.054

> <Angle>
4.034

> <Pdih>
9.702

> <Idih>
0.000

> <Tether>
0.000

$$$$
VeraChem MOL file


 16 16  0  0  0  0  0  0  0  0999 V2000     
   18.6618   19.4996   23.0978 C   0  0  0  0  0  0  0  0  0  0  0  0
   18.7147   20.5138   23.5166 H   0  0  0  0  0  0  0  0  0  0  0  0
   17.6499   19.1082   23.2723 H   0  0  0  0  0  0  0  0  0  0  0  0
   19.6961   18.5544   23.7244 C   0  0  0  0  0  0  0  0  0  0  0  0
   20.6434   19.0914   23.8729 H   0  0  0  0  0  0  0  0  0  0  0  0
   19.3689   18.1588   24.6955 H   0  0  0  0  0  0  0  0  0  0  0  0
   19.8911   17.4458   22.6737 C   0  0  0  0  0  0  0  0  0  0  0  0
   19.1763   16.6333   22.8583 H   0  0  0  0  0  0  0  0  0  0  0  0
   20.9016   17.0182   22.7198 H   0  0  0  0  0  0  0  0  0  0  0  0
   19.5864   18.0816   21.3016 C   0  0  0  0  0  0  0  0  0  0  0  0
   18.8577   17.4565   20.7652 H   0  0  0  0  0  0  0  0  0  0  0  0
   18.9791   19.4705   21.5914 C   0  0  0  0  0  0  0  0  0  0  0  0
   19.7061   20.2602   21.3580 H   0  0  0  0  0  0  0  0  0  0  0  0
   18.0798   19.6513   20.9886 H   0  0  0  0  0  0  0  0  0  0  0  0
   20.7848   18.2177   20.5471 O   0  0  0  0  0  0  0  0  0  0  0  0
   20.5351   18.6346   19.6953 H   0  0  0  0  0  0  0  0  0  0  0  0
  1  2  1  0  0  0  0
  1  3  1  0  0  0  0
  1  4  1  0  0  0  0
  4  5  1  0  0  0  0
  4  6  1  0  0  0  0
  4  7  1  0  0  0  0
  7  8  1  0  0  0  0
  7  9  1  0  0  0  0
  7 10  1  0  0  0  0
 10 11  1  0  0  0  0
  1 12  1  0  0  0  0
 10 12  1  0  0  0  0
 12 13  1  0  0  0  0
 12 14  1  0  0  0  0
 10 15  1  0  0  0  0
 15 16  1  0  0  0  0
M  END
> <VConfSearch Rank>
968

> <Conf_Id>
33

> <Delta U+W>
0.015

> <U+W>
3.025

> <U>
5.843

> <W>
-2.819

> <W(PB)>
-4.568

> <W(SA)>
1.750

> <Valence>
13.789

> <Coulomb>
-8.574

> <VdW>
0.628

> <VdW6>
-3.284

> <VdW12>
3.913

> <Bond>
0.054

> <Angle>
4.033

> <Pdih>
9.702

> <Idih>
0.000

> <Tether>
0.000

$$$$
VeraChem MOL file


 16 16  0  0  0  0  0  0  0  0999 V2000     
   18.0509   18.7619   22.2690 C   0  0  0  0  0  0  0  0  0  0  0  0
   17.6829   19.4700   23.0242 H   0  0  0  0  0  0  0  0  0  0  0  0
   17.1812   18.3862   21.7127 H   0  0  0  0  0  0  0  0  0  0  0  0
   18.8238   17.6153   22.9566 C   0  0  0  0  0  0  0  0  0  0  0  0
   18.8290   17.7679   24.0447 H   0  0  0  0  0  0  0  0  0  0  0  0
   18.3591   16.6396   22.7591 H   0  0  0  0  0  0  0  0  0  0  0  0
   20.2643   17.6656   22.4043 C   0  0  0  0  0  0  0  0  0  0  0  0
   20.3719   16.9335   21.5931 H   0  0  0  0  0  0  0  0  0  0  0  0
   21.0128   17.4266   23.1715 H   0  0  0  0  0  0  0  0  0  0  0  0
   20.4504   19.0765   21.8302 C   0  0  0  0  0  0  0  0  0  0  0  0
   21.1911   19.0883   21.0176 H   0  0  0  0  0  0  0  0  0  0  0  0
   19.0530   19.4613   21.3261 C   0  0  0  0  0  0  0  0  0  0  0  0
   18.9066   20.5492   21.2960 H   0  0  0  0  0  0  0  0  0  0  0  0
   18.9244   19.0785   20.3050 H   0  0  0  0  0  0  0  0  0  0  0  0
   20.8304   19.9602   22.8749 O   0  0  0  0  0  0  0  0  0  0  0  0
   20.1201   19.8832   23.5448 H   0  0  0  0  0  0  0  0  0  0  0  0
  1  2  1  0  0  0  0
  1  3  1  0  0  0  0
  1  4  1  0  0  0  0
  4  5  1  0  0  0  0
  4  6  1  0  0  0  0
  4  7  1  0  0  0  0
  7  8  1  0  0  0  0
  7  9  1  0  0  0  0
  7 10  1  0  0  0  0
 10 11  1  0  0  0  0
  1 12  1  0  0  0  0
 10 12  1  0  0  0  0
 12 13  1  0  0  0  0
 12 14  1  0  0  0  0
 10 15  1  0  0  0  0
 15 16  1  0  0  0  0
M  END
> <VConfSearch Rank>
969

> <Conf_Id>
20

> <Delta U+W>
-0.483

> <U+W>
2.527

> <U>
4.508

> <W>
-1.981

> <W(PB)>
-3.712

> <W(SA)>
1.732

> <Valence>
14.705

> <Coulomb>
-10.687

> <VdW>
0.490

> <VdW6>
-3.745

> <VdW12>
4.235

> <Bond>
0.068

> <Angle>
3.901

> <Pdih>
10.737

> <Idih>
0.000

> <Tether>
0.000

$$$$
VeraChem MOL file


 16 16  0  0  0  0  0  0  0  0999 V2000     
   19.1303   19.9615   22.0294 C   0  0  0  0  0  0  0  0  0  0  0  0
   18.8050   20.3958   22.9850 H   0  0  0  0  0  0  0  0  0  0  0  0
   19.1996   20.7705   21.2896 H   0  0  0  0  0  0  0  0  0  0  0  0
   18.1488   18.8608   21.6041 C   0  0  0  0  0  0  0  0  0  0  0  0
   17.1042   19.1281   21.8146 H   0  0  0  0  0  0  0  0  0  0  0  0
   18.2455   18.6760   20.5252 H   0  0  0  0  0  0  0  0  0  0  0  0
   18.6047   17.6169   22.3886 C   0  0  0  0  0  0  0  0  0  0  0  0
   18.3697   16.6921   21.8461 H   0  0  0  0  0  0  0  0  0  0  0  0
   18.0813   17.5842   23.3539 H   0  0  0  0  0  0  0  0  0  0  0  0
   20.1240   17.7747   22.6093 C   0  0  0  0  0  0  0  0  0  0  0  0
   20.6734   17.0849   21.9522 H   0  0  0  0  0  0  0  0  0  0  0  0
   20.4700   19.2283   22.2257 C   0  0  0  0  0  0  0  0  0  0  0  0
   21.0939   19.7219   22.9828 H   0  0  0  0  0  0  0  0  0  0  0  0
   21.0304   19.2256   21.2817 H   0  0  0  0  0  0  0  0  0  0  0  0
   20.4492   17.5366   23.9737 O   0  0  0  0  0  0  0  0  0  0  0  0
   20.1997   16.6077   24.1643 H   0  0  0  0  0  0  0  0  0  0  0  0
  1  2  1  0  0  0  0
  1  3  1  0  0  0  0
  1  4  1  0  0  0  0
  4  5  1  0  0  0  0
  4  6  1  0  0  0  0
  4  7  1  0  0  0  0
  7  8  1  0  0  0  0
  7  9  1  0  0  0  0
  7 10  1  0  0  0  0
 10 11  1  0  0  0  0
  1 12  1  0  0  0  0
 10 12  1  0  0  0  0
 12 13  1  0  0  0  0
 12 14  1  0  0  0  0
 10 15  1  0  0  0  0
 15 16  1  0  0  0  0
M  END
> <VConfSearch Rank>
970

> <Conf_Id>
59

> <Delta U+W>
0.000

> <U+W>
3.010

> <U>
5.843

> <W>
-2.833

> <W(PB)>
-4.568

> <W(SA)>
1.735

> <Valence>
13.789

> <Coulomb>
-8.574

> <VdW>
0.628

> <VdW6>
-3.284

> <VdW12>
3.912

> <Bond>
0.054

> <Angle>
4.034

> <Pdih>
9.702

> <Idih>
0.000

> <Tether>
0.000

$$$$
VeraChem MOL file


 16 16  0  0  0  0  0  0  0  0999 V2000     
   19.2449   19.6446   21.3168 C   0  0  0  0  0  0  0  0  0  0  0  0
   19.8032   20.4580   20.8337 H   0  0  0  0  0  0  0  0  0  0  0  0
   18.2752   19.5449   20.8095 H   0  0  0  0  0  0  0  0  0  0  0  0
   19.0207   19.8990   22.8137 C   0  0  0  0  0  0  0  0  0  0  0  0
   19.9247   20.3457   23.2508 H   0  0  0  0  0  0  0  0  0  0  0  0
   18.1765   20.5759   23.0025 H   0  0  0  0  0  0  0  0  0  0  0  0
   18.7962   18.4984   23.4130 C   0  0  0  0  0  0  0  0  0  0  0  0
   17.7260   18.2552   23.3904 H   0  0  0  0  0  0  0  0  0  0  0  0
   19.1280   18.4482   24.4587 H   0  0  0  0  0  0  0  0  0  0  0  0
   19.5567   17.5062   22.5092 C   0  0  0  0  0  0  0  0  0  0  0  0
   18.8792   16.6922   22.2127 H   0  0  0  0  0  0  0  0  0  0  0  0
   20.0003   18.3040   21.2648 C   0  0  0  0  0  0  0  0  0  0  0  0
   21.0815   18.4946   21.3003 H   0  0  0  0  0  0  0  0  0  0  0  0
   19.7845   17.7578   20.3374 H   0  0  0  0  0  0  0  0  0  0  0  0
   20.6931   16.9915   23.1930 O   0  0  0  0  0  0  0  0  0  0  0  0
   21.1418   16.3796   22.5719 H   0  0  0  0  0  0  0  0  0  0  0  0
  1  2  1  0  0  0  0
  1  3  1  0  0  0  0
  1  4  1  0  0  0  0
  4  5  1  0  0  0  0
  4  6  1  0  0  0  0
  4  7  1  0  0  0  0
  7  8  1  0  0  0  0
  7  9  1  0  0  0  0
  7 10  1  0  0  0  0
 10 11  1  0  0  0  0
  1 12  1  0  0  0  0
 10 12  1  0  0  0  0
 12 13  1  0  0  0  0
 12 14  1  0  0  0  0
 10 15  1  0  0  0  0
 15 16  1  0  0  0  0
M  END
> <VConfSearch Rank>
971

> <Conf_Id>
33

> <Delta U+W>
0.015

> <U+W>
3.025

> <U>
5.843

> <W>
-2.819

> <W(PB)>
-4.568

> <W(SA)>
1.750

> <Valence>
13.789

> <Coulomb>
-8.574

> <VdW>
0.628

> <VdW6>
-3.284

> <VdW12>
3.913

> <Bond>
0.054

> <Angle>
4.033

> <Pdih>
9.702

> <Idih>
0.000

> <Tether>
0.000

$$$$
VeraChem MOL file


 16 16  0  0  0  0  0  0  0  0999 V2000     
   18.7525   18.6032   21.0777 C   0  0  0  0  0  0  0  0  0  0  0  0
   19.3527   18.9962   20.2455 H   0  0  0  0  0  0  0  0  0  0  0  0
   17.7807   18.2925   20.6702 H   0  0  0  0  0  0  0  0  0  0  0  0
   18.5916   19.6864   22.1666 C   0  0  0  0  0  0  0  0  0  0  0  0
   19.1130   20.6040   21.8610 H   0  0  0  0  0  0  0  0  0  0  0  0
   17.5356   19.9417   22.3295 H   0  0  0  0  0  0  0  0  0  0  0  0
   19.2284   19.1139   23.4509 C   0  0  0  0  0  0  0  0  0  0  0  0
   18.4441   18.6900   24.0917 H   0  0  0  0  0  0  0  0  0  0  0  0
   19.7558   19.8821   24.0321 H   0  0  0  0  0  0  0  0  0  0  0  0
   20.1636   17.9857   22.9952 C   0  0  0  0  0  0  0  0  0  0  0  0
   20.2836   17.2199   23.7750 H   0  0  0  0  0  0  0  0  0  0  0  0
   19.4794   17.4164   21.7451 C   0  0  0  0  0  0  0  0  0  0  0  0
   20.1921   16.9296   21.0661 H   0  0  0  0  0  0  0  0  0  0  0  0
   18.7435   16.6621   22.0537 H   0  0  0  0  0  0  0  0  0  0  0  0
   21.4198   18.5382   22.6301 O   0  0  0  0  0  0  0  0  0  0  0  0
   21.2153   19.2019   21.9395 H   0  0  0  0  0  0  0  0  0  0  0  0
  1  2  1  0  0  0  0
  1  3  1  0  0  0  0
  1  4  1  0  0  0  0
  4  5  1  0  0  0  0
  4  6  1  0  0  0  0
  4  7  1  0  0  0  0
  7  8  1  0  0  0  0
  7  9  1  0  0  0  0
  7 10  1  0  0  0  0
 10 11  1  0  0  0  0
  1 12  1  0  0  0  0
 10 12  1  0  0  0  0
 12 13  1  0  0  0  0
 12 14  1  0  0  0  0
 10 15  1  0  0  0  0
 15 16  1  0  0  0  0
M  END
> <VConfSearch Rank>
972

> <Conf_Id>
20

> <Delta U+W>
-0.483

> <U+W>
2.527

> <U>
4.508

> <W>
-1.981

> <W(PB)>
-3.712

> <W(SA)>
1.732

> <Valence>
14.705

> <Coulomb>
-10.687

> <VdW>
0.490

> <VdW6>
-3.745

> <VdW12>
4.235

> <Bond>
0.068

> <Angle>
3.901

> <Pdih>
10.737

> <Idih>
0.000

> <Tether>
0.000

$$$$
VeraChem MOL file


 16 16  0  0  0  0  0  0  0  0999 V2000     
   19.6915   17.3657   23.0824 C   0  0  0  0  0  0  0  0  0  0  0  0
   20.2873   17.7328   23.9297 H   0  0  0  0  0  0  0  0  0  0  0  0
   19.5537   16.2825   23.2023 H   0  0  0  0  0  0  0  0  0  0  0  0
   20.3938   17.7250   21.7658 C   0  0  0  0  0  0  0  0  0  0  0  0
   21.4839   17.6041   21.8270 H   0  0  0  0  0  0  0  0  0  0  0  0
   20.0210   17.0781   20.9595 H   0  0  0  0  0  0  0  0  0  0  0  0
   19.9803   19.1835   21.4967 C   0  0  0  0  0  0  0  0  0  0  0  0
   19.9586   19.4024   20.4213 H   0  0  0  0  0  0  0  0  0  0  0  0
   20.7089   19.8598   21.9641 H   0  0  0  0  0  0  0  0  0  0  0  0
   18.5901   19.3674   22.1412 C   0  0  0  0  0  0  0  0  0  0  0  0
   17.8163   19.4106   21.3609 H   0  0  0  0  0  0  0  0  0  0  0  0
   18.3534   18.1255   23.0253 C   0  0  0  0  0  0  0  0  0  0  0  0
   17.9959   18.3906   24.0293 H   0  0  0  0  0  0  0  0  0  0  0  0
   17.5897   17.4921   22.5557 H   0  0  0  0  0  0  0  0  0  0  0  0
   18.5697   20.5469   22.9364 O   0  0  0  0  0  0  0  0  0  0  0  0
   18.7353   21.2985   22.3288 H   0  0  0  0  0  0  0  0  0  0  0  0
  1  2  1  0  0  0  0
  1  3  1  0  0  0  0
  1  4  1  0  0  0  0
  4  5  1  0  0  0  0
  4  6  1  0  0  0  0
  4  7  1  0  0  0  0
  7  8  1  0  0  0  0
  7  9  1  0  0  0  0
  7 10  1  0  0  0  0
 10 11  1  0  0  0  0
  1 12  1  0  0  0  0
 10 12  1  0  0  0  0
 12 13  1  0  0  0  0
 12 14  1  0  0  0  0
 10 15  1  0  0  0  0
 15 16  1  0  0  0  0
M  END
> <VConfSearch Rank>
973

> <Conf_Id>
59

> <Delta U+W>
0.000

> <U+W>
3.010

> <U>
5.843

> <W>
-2.833

> <W(PB)>
-4.568

> <W(SA)>
1.735

> <Valence>
13.789

> <Coulomb>
-8.574

> <VdW>
0.628

> <VdW6>
-3.284

> <VdW12>
3.912

> <Bond>
0.054

> <Angle>
4.034

> <Pdih>
9.702

> <Idih>
0.000

> <Tether>
0.000

$$$$
VeraChem MOL file


 16 16  0  0  0  0  0  0  0  0999 V2000     
   19.5459   19.7156   21.3790 C   0  0  0  0  0  0  0  0  0  0  0  0
   18.9971   20.1411   20.5278 H   0  0  0  0  0  0  0  0  0  0  0  0
   20.3395   20.4206   21.6631 H   0  0  0  0  0  0  0  0  0  0  0  0
   20.1625   18.3487   21.0517 C   0  0  0  0  0  0  0  0  0  0  0  0
   19.4601   17.7646   20.4409 H   0  0  0  0  0  0  0  0  0  0  0  0
   21.1081   18.4363   20.4997 H   0  0  0  0  0  0  0  0  0  0  0  0
   20.3426   17.6694   22.4218 C   0  0  0  0  0  0  0  0  0  0  0  0
   21.3332   17.9137   22.8268 H   0  0  0  0  0  0  0  0  0  0  0  0
   20.2745   16.5761   22.3431 H   0  0  0  0  0  0  0  0  0  0  0  0
   19.2604   18.2581   23.3503 C   0  0  0  0  0  0  0  0  0  0  0  0
   19.7319   18.6137   24.2780 H   0  0  0  0  0  0  0  0  0  0  0  0
   18.6326   19.4444   22.5885 C   0  0  0  0  0  0  0  0  0  0  0  0
   17.6277   19.1792   22.2326 H   0  0  0  0  0  0  0  0  0  0  0  0
   18.5404   20.3314   23.2284 H   0  0  0  0  0  0  0  0  0  0  0  0
   18.2699   17.2768   23.6330 O   0  0  0  0  0  0  0  0  0  0  0  0
   17.6063   17.7062   24.2134 H   0  0  0  0  0  0  0  0  0  0  0  0
  1  2  1  0  0  0  0
  1  3  1  0  0  0  0
  1  4  1  0  0  0  0
  4  5  1  0  0  0  0
  4  6  1  0  0  0  0
  4  7  1  0  0  0  0
  7  8  1  0  0  0  0
  7  9  1  0  0  0  0
  7 10  1  0  0  0  0
 10 11  1  0  0  0  0
  1 12  1  0  0  0  0
 10 12  1  0  0  0  0
 12 13  1  0  0  0  0
 12 14  1  0  0  0  0
 10 15  1  0  0  0  0
 15 16  1  0  0  0  0
M  END
> <VConfSearch Rank>
974

> <Conf_Id>
33

> <Delta U+W>
0.015

> <U+W>
3.025

> <U>
5.843

> <W>
-2.819

> <W(PB)>
-4.568

> <W(SA)>
1.750

> <Valence>
13.789

> <Coulomb>
-8.574

> <VdW>
0.628

> <VdW6>
-3.284

> <VdW12>
3.913

> <Bond>
0.054

> <Angle>
4.033

> <Pdih>
9.702

> <Idih>
0.000

> <Tether>
0.000

$$$$
VeraChem MOL file


 16 16  0  0  0  0  0  0  0  0999 V2000     
   20.0014   19.6477   21.6923 C   0  0  0  0  0  0  0  0  0  0  0  0
   19.3333   20.3471   21.1711 H   0  0  0  0  0  0  0  0  0  0  0  0
   21.0253   20.0359   21.6032 H   0  0  0  0  0  0  0  0  0  0  0  0
   19.8726   18.2385   21.0738 C   0  0  0  0  0  0  0  0  0  0  0  0
   19.1428   18.2561   20.2526 H   0  0  0  0  0  0  0  0  0  0  0  0
   20.8294   17.8891   20.6620 H   0  0  0  0  0  0  0  0  0  0  0  0
   19.3819   17.3080   22.2033 C   0  0  0  0  0  0  0  0  0  0  0  0
   20.2387   16.7788   22.6408 H   0  0  0  0  0  0  0  0  0  0  0  0
   18.6719   16.5525   21.8412 H   0  0  0  0  0  0  0  0  0  0  0  0
   18.7639   18.2227   23.2693 C   0  0  0  0  0  0  0  0  0  0  0  0
   18.8284   17.7765   24.2721 H   0  0  0  0  0  0  0  0  0  0  0  0
   19.5849   19.5156   23.1726 C   0  0  0  0  0  0  0  0  0  0  0  0
   19.0252   20.3913   23.5273 H   0  0  0  0  0  0  0  0  0  0  0  0
   20.4816   19.4162   23.7986 H   0  0  0  0  0  0  0  0  0  0  0  0
   17.4144   18.4987   22.9235 O   0  0  0  0  0  0  0  0  0  0  0  0
   17.4560   18.8889   22.0262 H   0  0  0  0  0  0  0  0  0  0  0  0
  1  2  1  0  0  0  0
  1  3  1  0  0  0  0
  1  4  1  0  0  0  0
  4  5  1  0  0  0  0
  4  6  1  0  0  0  0
  4  7  1  0  0  0  0
  7  8  1  0  0  0  0
  7  9  1  0  0  0  0
  7 10  1  0  0  0  0
 10 11  1  0  0  0  0
  1 12  1  0  0  0  0
 10 12  1  0  0  0  0
 12 13  1  0  0  0  0
 12 14  1  0  0  0  0
 10 15  1  0  0  0  0
 15 16  1  0  0  0  0
M  END
> <VConfSearch Rank>
975

> <Conf_Id>
20

> <Delta U+W>
-0.483

> <U+W>
2.527

> <U>
4.508

> <W>
-1.981

> <W(PB)>
-3.712

> <W(SA)>
1.732

> <Valence>
14.705

> <Coulomb>
-10.687

> <VdW>
0.490

> <VdW6>
-3.745

> <VdW12>
4.235

> <Bond>
0.068

> <Angle>
3.901

> <Pdih>
10.737

> <Idih>
0.000

> <Tether>
0.000

$$$$
VeraChem MOL file


 16 16  0  0  0  0  0  0  0  0999 V2000     
   19.1144   19.8210   21.6439 C   0  0  0  0  0  0  0  0  0  0  0  0
   19.8695   19.8709   20.8470 H   0  0  0  0  0  0  0  0  0  0  0  0
   18.4698   20.7067   21.5630 H   0  0  0  0  0  0  0  0  0  0  0  0
   19.8117   19.7261   23.0079 C   0  0  0  0  0  0  0  0  0  0  0  0
   20.7023   20.3664   23.0675 H   0  0  0  0  0  0  0  0  0  0  0  0
   19.1152   20.0316   23.8011 H   0  0  0  0  0  0  0  0  0  0  0  0
   20.1526   18.2325   23.1608 C   0  0  0  0  0  0  0  0  0  0  0  0
   20.1688   17.9307   24.2160 H   0  0  0  0  0  0  0  0  0  0  0  0
   21.1494   18.0425   22.7401 H   0  0  0  0  0  0  0  0  0  0  0  0
   19.0802   17.4581   22.3657 C   0  0  0  0  0  0  0  0  0  0  0  0
   18.3772   16.9714   23.0574 H   0  0  0  0  0  0  0  0  0  0  0  0
   18.3234   18.5054   21.5231 C   0  0  0  0  0  0  0  0  0  0  0  0
   18.2115   18.1957   20.4755 H   0  0  0  0  0  0  0  0  0  0  0  0
   17.3170   18.6410   21.9402 H   0  0  0  0  0  0  0  0  0  0  0  0
   19.6969   16.4978   21.5164 O   0  0  0  0  0  0  0  0  0  0  0  0
   20.1696   15.8679   22.1007 H   0  0  0  0  0  0  0  0  0  0  0  0
  1  2  1  0  0  0  0
  1  3  1  0  0  0  0
  1  4  1  0  0  0  0
  4  5  1  0  0  0  0
  4  6  1  0  0  0  0
  4  7  1  0  0  0  0
  7  8  1  0  0  0  0
  7  9  1  0  0  0  0
  7 10  1  0  0  0  0
 10 11  1  0  0  0  0
  1 12  1  0  0  0  0
 10 12  1  0  0  0  0
 12 13  1  0  0  0  0
 12 14  1  0  0  0  0
 10 15  1  0  0  0  0
 15 16  1  0  0  0  0
M  END
> <VConfSearch Rank>
976

> <Conf_Id>
59

> <Delta U+W>
0.000

> <U+W>
3.010

> <U>
5.843

> <W>
-2.833

> <W(PB)>
-4.568

> <W(SA)>
1.735

> <Valence>
13.789

> <Coulomb>
-8.574

> <VdW>
0.628

> <VdW6>
-3.284

> <VdW12>
3.912

> <Bond>
0.054

> <Angle>
4.034

> <Pdih>
9.702

> <Idih>
0.000

> <Tether>
0.000

$$$$
VeraChem MOL file


 16 16  0  0  0  0  0  0  0  0999 V2000     
   20.2843   19.2410   21.3062 C   0  0  0  0  0  0  0  0  0  0  0  0
   20.3043   19.4148   20.2217 H   0  0  0  0  0  0  0  0  0  0  0  0
   21.0990   19.8206   21.7621 H   0  0  0  0  0  0  0  0  0  0  0  0
   20.4445   17.7567   21.6627 C   0  0  0  0  0  0  0  0  0  0  0  0
   19.8782   17.1431   20.9482 H   0  0  0  0  0  0  0  0  0  0  0  0
   21.4933   17.4308   21.6407 H   0  0  0  0  0  0  0  0  0  0  0  0
   19.8182   17.6272   23.0634 C   0  0  0  0  0  0  0  0  0  0  0  0
   20.5874   17.7967   23.8281 H   0  0  0  0  0  0  0  0  0  0  0  0
   19.3990   16.6255   23.2279 H   0  0  0  0  0  0  0  0  0  0  0  0
   18.7492   18.7342   23.1713 C   0  0  0  0  0  0  0  0  0  0  0  0
   18.9140   19.3098   24.0938 H   0  0  0  0  0  0  0  0  0  0  0  0
   18.9402   19.6443   21.9396 C   0  0  0  0  0  0  0  0  0  0  0  0
   18.1322   19.4777   21.2142 H   0  0  0  0  0  0  0  0  0  0  0  0
   18.9302   20.7062   22.2173 H   0  0  0  0  0  0  0  0  0  0  0  0
   17.4470   18.1613   23.1611 O   0  0  0  0  0  0  0  0  0  0  0  0
   16.8117   18.9059   23.2201 H   0  0  0  0  0  0  0  0  0  0  0  0
  1  2  1  0  0  0  0
  1  3  1  0  0  0  0
  1  4  1  0  0  0  0
  4  5  1  0  0  0  0
  4  6  1  0  0  0  0
  4  7  1  0  0  0  0
  7  8  1  0  0  0  0
  7  9  1  0  0  0  0
  7 10  1  0  0  0  0
 10 11  1  0  0  0  0
  1 12  1  0  0  0  0
 10 12  1  0  0  0  0
 12 13  1  0  0  0  0
 12 14  1  0  0  0  0
 10 15  1  0  0  0  0
 15 16  1  0  0  0  0
M  END
> <VConfSearch Rank>
977

> <Conf_Id>
33

> <Delta U+W>
0.015

> <U+W>
3.025

> <U>
5.843

> <W>
-2.819

> <W(PB)>
-4.568

> <W(SA)>
1.750

> <Valence>
13.789

> <Coulomb>
-8.574

> <VdW>
0.628

> <VdW6>
-3.284

> <VdW12>
3.913

> <Bond>
0.054

> <Angle>
4.033

> <Pdih>
9.702

> <Idih>
0.000

> <Tether>
0.000

$$$$
VeraChem MOL file


 16 16  0  0  0  0  0  0  0  0999 V2000     
   19.1986   17.2952   22.1057 C   0  0  0  0  0  0  0  0  0  0  0  0
   18.6717   17.0147   21.1832 H   0  0  0  0  0  0  0  0  0  0  0  0
   19.4461   16.3693   22.6428 H   0  0  0  0  0  0  0  0  0  0  0  0
   18.3071   18.2249   22.9577 C   0  0  0  0  0  0  0  0  0  0  0  0
   17.3485   18.3935   22.4481 H   0  0  0  0  0  0  0  0  0  0  0  0
   18.0892   17.7858   23.9409 H   0  0  0  0  0  0  0  0  0  0  0  0
   19.0754   19.5558   23.1025 C   0  0  0  0  0  0  0  0  0  0  0  0
   19.6031   19.5719   24.0652 H   0  0  0  0  0  0  0  0  0  0  0  0
   18.4077   20.4272   23.0729 H   0  0  0  0  0  0  0  0  0  0  0  0
   20.1082   19.5761   21.9677 C   0  0  0  0  0  0  0  0  0  0  0  0
   20.9893   20.1779   22.2332 H   0  0  0  0  0  0  0  0  0  0  0  0
   20.4726   18.0987   21.7687 C   0  0  0  0  0  0  0  0  0  0  0  0
   20.8378   17.8935   20.7536 H   0  0  0  0  0  0  0  0  0  0  0  0
   21.2721   17.8308   22.4720 H   0  0  0  0  0  0  0  0  0  0  0  0
   19.4948   20.0698   20.7858 O   0  0  0  0  0  0  0  0  0  0  0  0
   18.7296   19.4788   20.6299 H   0  0  0  0  0  0  0  0  0  0  0  0
  1  2  1  0  0  0  0
  1  3  1  0  0  0  0
  1  4  1  0  0  0  0
  4  5  1  0  0  0  0
  4  6  1  0  0  0  0
  4  7  1  0  0  0  0
  7  8  1  0  0  0  0
  7  9  1  0  0  0  0
  7 10  1  0  0  0  0
 10 11  1  0  0  0  0
  1 12  1  0  0  0  0
 10 12  1  0  0  0  0
 12 13  1  0  0  0  0
 12 14  1  0  0  0  0
 10 15  1  0  0  0  0
 15 16  1  0  0  0  0
M  END
> <VConfSearch Rank>
978

> <Conf_Id>
20

> <Delta U+W>
-0.483

> <U+W>
2.527

> <U>
4.508

> <W>
-1.981

> <W(PB)>
-3.712

> <W(SA)>
1.732

> <Valence>
14.705

> <Coulomb>
-10.687

> <VdW>
0.490

> <VdW6>
-3.745

> <VdW12>
4.235

> <Bond>
0.068

> <Angle>
3.901

> <Pdih>
10.737

> <Idih>
0.000

> <Tether>
0.000

$$$$
VeraChem MOL file


 16 16  0  0  0  0  0  0  0  0999 V2000     
   20.7721   18.5620   22.6521 C   0  0  0  0  0  0  0  0  0  0  0  0
   21.2687   18.0619   21.8089 H   0  0  0  0  0  0  0  0  0  0  0  0
   21.5453   18.9013   23.3547 H   0  0  0  0  0  0  0  0  0  0  0  0
   19.7701   17.5990   23.3035 C   0  0  0  0  0  0  0  0  0  0  0  0
   20.1542   16.5714   23.3601 H   0  0  0  0  0  0  0  0  0  0  0  0
   19.5420   17.9373   24.3238 H   0  0  0  0  0  0  0  0  0  0  0  0
   18.5098   17.7058   22.4254 C   0  0  0  0  0  0  0  0  0  0  0  0
   17.5989   17.5101   23.0056 H   0  0  0  0  0  0  0  0  0  0  0  0
   18.5638   16.9604   21.6203 H   0  0  0  0  0  0  0  0  0  0  0  0
   18.5108   19.1317   21.8349 C   0  0  0  0  0  0  0  0  0  0  0  0
   17.7458   19.7456   22.3323 H   0  0  0  0  0  0  0  0  0  0  0  0
   19.9061   19.7216   22.1263 C   0  0  0  0  0  0  0  0  0  0  0  0
   20.3537   20.1908   21.2400 H   0  0  0  0  0  0  0  0  0  0  0  0
   19.8137   20.4934   22.9015 H   0  0  0  0  0  0  0  0  0  0  0  0
   18.2824   19.0821   20.4316 O   0  0  0  0  0  0  0  0  0  0  0  0
   17.3920   18.6912   20.3053 H   0  0  0  0  0  0  0  0  0  0  0  0
  1  2  1  0  0  0  0
  1  3  1  0  0  0  0
  1  4  1  0  0  0  0
  4  5  1  0  0  0  0
  4  6  1  0  0  0  0
  4  7  1  0  0  0  0
  7  8  1  0  0  0  0
  7  9  1  0  0  0  0
  7 10  1  0  0  0  0
 10 11  1  0  0  0  0
  1 12  1  0  0  0  0
 10 12  1  0  0  0  0
 12 13  1  0  0  0  0
 12 14  1  0  0  0  0
 10 15  1  0  0  0  0
 15 16  1  0  0  0  0
M  END
> <VConfSearch Rank>
979

> <Conf_Id>
59

> <Delta U+W>
0.000

> <U+W>
3.010

> <U>
5.843

> <W>
-2.833

> <W(PB)>
-4.568

> <W(SA)>
1.735

> <Valence>
13.789

> <Coulomb>
-8.574

> <VdW>
0.628

> <VdW6>
-3.284

> <VdW12>
3.912

> <Bond>
0.054

> <Angle>
4.034

> <Pdih>
9.702

> <Idih>
0.000

> <Tether>
0.000

$$$$
VeraChem MOL file


 16 16  0  0  0  0  0  0  0  0999 V2000     
   19.2057   19.9835   21.9466 C   0  0  0  0  0  0  0  0  0  0  0  0
   19.0863   20.6079   21.0507 H   0  0  0  0  0  0  0  0  0  0  0  0
   18.9522   20.5920   22.8258 H   0  0  0  0  0  0  0  0  0  0  0  0
   20.6325   19.4365   22.0912 C   0  0  0  0  0  0  0  0  0  0  0  0
   21.0172   19.1454   21.1039 H   0  0  0  0  0  0  0  0  0  0  0  0
   21.3221   20.1729   22.5258 H   0  0  0  0  0  0  0  0  0  0  0  0
   20.4774   18.1843   22.9739 C   0  0  0  0  0  0  0  0  0  0  0  0
   20.5784   18.4636   24.0307 H   0  0  0  0  0  0  0  0  0  0  0  0
   21.2487   17.4349   22.7515 H   0  0  0  0  0  0  0  0  0  0  0  0
   19.0518   17.6478   22.7294 C   0  0  0  0  0  0  0  0  0  0  0  0
   18.5480   17.5015   23.6960 H   0  0  0  0  0  0  0  0  0  0  0  0
   18.3159   18.7275   21.9082 C   0  0  0  0  0  0  0  0  0  0  0  0
   18.1967   18.3984   20.8669 H   0  0  0  0  0  0  0  0  0  0  0  0
   17.3166   18.9315   22.3138 H   0  0  0  0  0  0  0  0  0  0  0  0
   19.1053   16.4277   21.9998 O   0  0  0  0  0  0  0  0  0  0  0  0
   18.1777   16.1403   21.8641 H   0  0  0  0  0  0  0  0  0  0  0  0
  1  2  1  0  0  0  0
  1  3  1  0  0  0  0
  1  4  1  0  0  0  0
  4  5  1  0  0  0  0
  4  6  1  0  0  0  0
  4  7  1  0  0  0  0
  7  8  1  0  0  0  0
  7  9  1  0  0  0  0
  7 10  1  0  0  0  0
 10 11  1  0  0  0  0
  1 12  1  0  0  0  0
 10 12  1  0  0  0  0
 12 13  1  0  0  0  0
 12 14  1  0  0  0  0
 10 15  1  0  0  0  0
 15 16  1  0  0  0  0
M  END
> <VConfSearch Rank>
980

> <Conf_Id>
33

> <Delta U+W>
0.015

> <U+W>
3.025

> <U>
5.843

> <W>
-2.819

> <W(PB)>
-4.568

> <W(SA)>
1.750

> <Valence>
13.789

> <Coulomb>
-8.574

> <VdW>
0.628

> <VdW6>
-3.284

> <VdW12>
3.913

> <Bond>
0.054

> <Angle>
4.033

> <Pdih>
9.702

> <Idih>
0.000

> <Tether>
0.000

$$$$
VeraChem MOL file


 16 16  0  0  0  0  0  0  0  0999 V2000     
   19.4386   17.5247   23.0346 C   0  0  0  0  0  0  0  0  0  0  0  0
   19.3299   16.5748   22.4931 H   0  0  0  0  0  0  0  0  0  0  0  0
   19.5879   17.2875   24.0969 H   0  0  0  0  0  0  0  0  0  0  0  0
   18.1840   18.3989   22.8187 C   0  0  0  0  0  0  0  0  0  0  0  0
   17.4676   17.8718   22.1737 H   0  0  0  0  0  0  0  0  0  0  0  0
   17.6775   18.6199   23.7683 H   0  0  0  0  0  0  0  0  0  0  0  0
   18.6662   19.6947   22.1325 C   0  0  0  0  0  0  0  0  0  0  0  0
   18.7950   20.4828   22.8860 H   0  0  0  0  0  0  0  0  0  0  0  0
   17.9501   20.0611   21.3849 H   0  0  0  0  0  0  0  0  0  0  0  0
   20.0328   19.3662   21.5164 C   0  0  0  0  0  0  0  0  0  0  0  0
   20.6684   20.2603   21.4417 H   0  0  0  0  0  0  0  0  0  0  0  0
   20.6320   18.3255   22.4718 C   0  0  0  0  0  0  0  0  0  0  0  0
   21.3690   17.6804   21.9750 H   0  0  0  0  0  0  0  0  0  0  0  0
   21.1433   18.8469   23.2917 H   0  0  0  0  0  0  0  0  0  0  0  0
   19.8402   18.7735   20.2403 O   0  0  0  0  0  0  0  0  0  0  0  0
   19.2694   17.9947   20.4046 H   0  0  0  0  0  0  0  0  0  0  0  0
  1  2  1  0  0  0  0
  1  3  1  0  0  0  0
  1  4  1  0  0  0  0
  4  5  1  0  0  0  0
  4  6  1  0  0  0  0
  4  7  1  0  0  0  0
  7  8  1  0  0  0  0
  7  9  1  0  0  0  0
  7 10  1  0  0  0  0
 10 11  1  0  0  0  0
  1 12  1  0  0  0  0
 10 12  1  0  0  0  0
 12 13  1  0  0  0  0
 12 14  1  0  0  0  0
 10 15  1  0  0  0  0
 15 16  1  0  0  0  0
M  END
> <VConfSearch Rank>
981

> <Conf_Id>
20

> <Delta U+W>
-0.483

> <U+W>
2.527

> <U>
4.508

> <W>
-1.981

> <W(PB)>
-3.712

> <W(SA)>
1.732

> <Valence>
14.705

> <Coulomb>
-10.687

> <VdW>
0.490

> <VdW6>
-3.745

> <VdW12>
4.235

> <Bond>
0.068

> <Angle>
3.901

> <Pdih>
10.737

> <Idih>
0.000

> <Tether>
0.000

$$$$
VeraChem MOL file


 16 16  0  0  0  0  0  0  0  0999 V2000     
   18.3697   17.8544   21.5097 C   0  0  0  0  0  0  0  0  0  0  0  0
   17.6824   18.6372   21.1596 H   0  0  0  0  0  0  0  0  0  0  0  0
   18.0583   16.8993   21.0654 H   0  0  0  0  0  0  0  0  0  0  0  0
   18.3666   17.8159   23.0440 C   0  0  0  0  0  0  0  0  0  0  0  0
   17.3618   17.9607   23.4637 H   0  0  0  0  0  0  0  0  0  0  0  0
   18.7469   16.8448   23.3902 H   0  0  0  0  0  0  0  0  0  0  0  0
   19.3409   18.9342   23.4572 C   0  0  0  0  0  0  0  0  0  0  0  0
   19.8248   18.7104   24.4167 H   0  0  0  0  0  0  0  0  0  0  0  0
   18.7863   19.8757   23.5706 H   0  0  0  0  0  0  0  0  0  0  0  0
   20.3728   19.0556   22.3161 C   0  0  0  0  0  0  0  0  0  0  0  0
   21.3360   18.6296   22.6329 H   0  0  0  0  0  0  0  0  0  0  0  0
   19.8150   18.2326   21.1366 C   0  0  0  0  0  0  0  0  0  0  0  0
   19.8565   18.7835   20.1875 H   0  0  0  0  0  0  0  0  0  0  0  0
   20.4159   17.3214   21.0200 H   0  0  0  0  0  0  0  0  0  0  0  0
   20.5256   20.4177   21.9352 O   0  0  0  0  0  0  0  0  0  0  0  0
   20.8701   20.8925   22.7210 H   0  0  0  0  0  0  0  0  0  0  0  0
  1  2  1  0  0  0  0
  1  3  1  0  0  0  0
  1  4  1  0  0  0  0
  4  5  1  0  0  0  0
  4  6  1  0  0  0  0
  4  7  1  0  0  0  0
  7  8  1  0  0  0  0
  7  9  1  0  0  0  0
  7 10  1  0  0  0  0
 10 11  1  0  0  0  0
  1 12  1  0  0  0  0
 10 12  1  0  0  0  0
 12 13  1  0  0  0  0
 12 14  1  0  0  0  0
 10 15  1  0  0  0  0
 15 16  1  0  0  0  0
M  END
> <VConfSearch Rank>
982

> <Conf_Id>
59

> <Delta U+W>
0.000

> <U+W>
3.010

> <U>
5.843

> <W>
-2.833

> <W(PB)>
-4.568

> <W(SA)>
1.735

> <Valence>
13.789

> <Coulomb>
-8.574

> <VdW>
0.628

> <VdW6>
-3.284

> <VdW12>
3.912

> <Bond>
0.054

> <Angle>
4.034

> <Pdih>
9.702

> <Idih>
0.000

> <Tether>
0.000

$$$$
VeraChem MOL file


 16 16  0  0  0  0  0  0  0  0999 V2000     
   20.3276   17.4856   22.4491 C   0  0  0  0  0  0  0  0  0  0  0  0
   21.1716   17.0086   21.9325 H   0  0  0  0  0  0  0  0  0  0  0  0
   20.2043   16.9996   23.4270 H   0  0  0  0  0  0  0  0  0  0  0  0
   19.0203   17.3807   21.6519 C   0  0  0  0  0  0  0  0  0  0  0  0
   19.2278   17.5286   20.5830 H   0  0  0  0  0  0  0  0  0  0  0  0
   18.5306   16.4052   21.7756 H   0  0  0  0  0  0  0  0  0  0  0  0
   18.1558   18.5427   22.1750 C   0  0  0  0  0  0  0  0  0  0  0  0
   17.5538   18.1997   23.0265 H   0  0  0  0  0  0  0  0  0  0  0  0
   17.4652   18.9113   21.4048 H   0  0  0  0  0  0  0  0  0  0  0  0
   19.1325   19.6351   22.6570 C   0  0  0  0  0  0  0  0  0  0  0  0
   18.8658   19.9348   23.6810 H   0  0  0  0  0  0  0  0  0  0  0  0
   20.5383   18.9985   22.6422 C   0  0  0  0  0  0  0  0  0  0  0  0
   21.1263   19.3935   21.8025 H   0  0  0  0  0  0  0  0  0  0  0  0
   21.0876   19.2120   23.5683 H   0  0  0  0  0  0  0  0  0  0  0  0
   19.0906   20.7531   21.7782 O   0  0  0  0  0  0  0  0  0  0  0  0
   19.7345   21.4069   22.1239 H   0  0  0  0  0  0  0  0  0  0  0  0
  1  2  1  0  0  0  0
  1  3  1  0  0  0  0
  1  4  1  0  0  0  0
  4  5  1  0  0  0  0
  4  6  1  0  0  0  0
  4  7  1  0  0  0  0
  7  8  1  0  0  0  0
  7  9  1  0  0  0  0
  7 10  1  0  0  0  0
 10 11  1  0  0  0  0
  1 12  1  0  0  0  0
 10 12  1  0  0  0  0
 12 13  1  0  0  0  0
 12 14  1  0  0  0  0
 10 15  1  0  0  0  0
 15 16  1  0  0  0  0
M  END
> <VConfSearch Rank>
983

> <Conf_Id>
33

> <Delta U+W>
0.015

> <U+W>
3.025

> <U>
5.843

> <W>
-2.819

> <W(PB)>
-4.568

> <W(SA)>
1.750

> <Valence>
13.789

> <Coulomb>
-8.574

> <VdW>
0.628

> <VdW6>
-3.284

> <VdW12>
3.913

> <Bond>
0.054

> <Angle>
4.033

> <Pdih>
9.702

> <Idih>
0.000

> <Tether>
0.000

$$$$
VeraChem MOL file


 16 16  0  0  0  0  0  0  0  0999 V2000     
   19.1090   19.9129   22.3830 C   0  0  0  0  0  0  0  0  0  0  0  0
   19.7686   20.5690   21.7984 H   0  0  0  0  0  0  0  0  0  0  0  0
   18.3827   20.5504   22.9055 H   0  0  0  0  0  0  0  0  0  0  0  0
   19.9461   19.0754   23.3745 C   0  0  0  0  0  0  0  0  0  0  0  0
   21.0105   19.3269   23.2705 H   0  0  0  0  0  0  0  0  0  0  0  0
   19.6568   19.2741   24.4156 H   0  0  0  0  0  0  0  0  0  0  0  0
   19.7094   17.5954   23.0059 C   0  0  0  0  0  0  0  0  0  0  0  0
   18.9403   17.1716   23.6651 H   0  0  0  0  0  0  0  0  0  0  0  0
   20.6175   16.9881   23.1184 H   0  0  0  0  0  0  0  0  0  0  0  0
   19.1849   17.5951   21.5637 C   0  0  0  0  0  0  0  0  0  0  0  0
   18.5466   16.7221   21.3655 H   0  0  0  0  0  0  0  0  0  0  0  0
   18.3971   18.9074   21.4532 C   0  0  0  0  0  0  0  0  0  0  0  0
   18.3350   19.2694   20.4183 H   0  0  0  0  0  0  0  0  0  0  0  0
   17.3725   18.7393   21.8105 H   0  0  0  0  0  0  0  0  0  0  0  0
   20.2847   17.6329   20.6660 O   0  0  0  0  0  0  0  0  0  0  0  0
   20.7900   18.4338   20.9157 H   0  0  0  0  0  0  0  0  0  0  0  0
  1  2  1  0  0  0  0
  1  3  1  0  0  0  0
  1  4  1  0  0  0  0
  4  5  1  0  0  0  0
  4  6  1  0  0  0  0
  4  7  1  0  0  0  0
  7  8  1  0  0  0  0
  7  9  1  0  0  0  0
  7 10  1  0  0  0  0
 10 11  1  0  0  0  0
  1 12  1  0  0  0  0
 10 12  1  0  0  0  0
 12 13  1  0  0  0  0
 12 14  1  0  0  0  0
 10 15  1  0  0  0  0
 15 16  1  0  0  0  0
M  END
> <VConfSearch Rank>
984

> <Conf_Id>
20

> <Delta U+W>
-0.483

> <U+W>
2.527

> <U>
4.508

> <W>
-1.981

> <W(PB)>
-3.712

> <W(SA)>
1.732

> <Valence>
14.705

> <Coulomb>
-10.687

> <VdW>
0.490

> <VdW6>
-3.745

> <VdW12>
4.235

> <Bond>
0.068

> <Angle>
3.901

> <Pdih>
10.737

> <Idih>
0.000

> <Tether>
0.000

$$$$
VeraChem MOL file


 16 16  0  0  0  0  0  0  0  0999 V2000     
   20.0264   19.8427   22.2335 C   0  0  0  0  0  0  0  0  0  0  0  0
   19.9115   20.2856   23.2326 H   0  0  0  0  0  0  0  0  0  0  0  0
   20.6357   20.5233   21.6234 H   0  0  0  0  0  0  0  0  0  0  0  0
   18.6420   19.5877   21.6217 C   0  0  0  0  0  0  0  0  0  0  0  0
   17.9335   20.3988   21.8383 H   0  0  0  0  0  0  0  0  0  0  0  0
   18.7319   19.4922   20.5306 H   0  0  0  0  0  0  0  0  0  0  0  0
   18.1972   18.2439   22.2273 C   0  0  0  0  0  0  0  0  0  0  0  0
   17.5294   17.6991   21.5476 H   0  0  0  0  0  0  0  0  0  0  0  0
   17.6495   18.4299   23.1613 H   0  0  0  0  0  0  0  0  0  0  0  0
   19.4877   17.4475   22.5137 C   0  0  0  0  0  0  0  0  0  0  0  0
   19.6011   16.6375   21.7785 H   0  0  0  0  0  0  0  0  0  0  0  0
   20.6560   18.4431   22.3590 C   0  0  0  0  0  0  0  0  0  0  0  0
   21.3618   18.3912   23.1987 H   0  0  0  0  0  0  0  0  0  0  0  0
   21.2103   18.2048   21.4420 H   0  0  0  0  0  0  0  0  0  0  0  0
   19.4594   16.9261   23.8370 O   0  0  0  0  0  0  0  0  0  0  0  0
   18.6961   16.3122   23.8811 H   0  0  0  0  0  0  0  0  0  0  0  0
  1  2  1  0  0  0  0
  1  3  1  0  0  0  0
  1  4  1  0  0  0  0
  4  5  1  0  0  0  0
  4  6  1  0  0  0  0
  4  7  1  0  0  0  0
  7  8  1  0  0  0  0
  7  9  1  0  0  0  0
  7 10  1  0  0  0  0
 10 11  1  0  0  0  0
  1 12  1  0  0  0  0
 10 12  1  0  0  0  0
 12 13  1  0  0  0  0
 12 14  1  0  0  0  0
 10 15  1  0  0  0  0
 15 16  1  0  0  0  0
M  END
> <VConfSearch Rank>
985

> <Conf_Id>
59

> <Delta U+W>
0.000

> <U+W>
3.010

> <U>
5.843

> <W>
-2.833

> <W(PB)>
-4.568

> <W(SA)>
1.735

> <Valence>
13.789

> <Coulomb>
-8.574

> <VdW>
0.628

> <VdW6>
-3.284

> <VdW12>
3.912

> <Bond>
0.054

> <Angle>
4.034

> <Pdih>
9.702

> <Idih>
0.000

> <Tether>
0.000

$$$$
VeraChem MOL file


 16 16  0  0  0  0  0  0  0  0999 V2000     
   18.3076   18.9215   21.4829 C   0  0  0  0  0  0  0  0  0  0  0  0
   17.8019   19.7983   21.0560 H   0  0  0  0  0  0  0  0  0  0  0  0
   17.8413   18.0185   21.0648 H   0  0  0  0  0  0  0  0  0  0  0  0
   18.2205   18.8855   23.0149 C   0  0  0  0  0  0  0  0  0  0  0  0
   18.3453   19.9014   23.4148 H   0  0  0  0  0  0  0  0  0  0  0  0
   17.2592   18.4910   23.3712 H   0  0  0  0  0  0  0  0  0  0  0  0
   19.4115   18.0108   23.4480 C   0  0  0  0  0  0  0  0  0  0  0  0
   19.0975   16.9602   23.4996 H   0  0  0  0  0  0  0  0  0  0  0  0
   19.7834   18.2972   24.4408 H   0  0  0  0  0  0  0  0  0  0  0  0
   20.4883   18.1609   22.3536 C   0  0  0  0  0  0  0  0  0  0  0  0
   20.8116   17.1631   22.0228 H   0  0  0  0  0  0  0  0  0  0  0  0
   19.8181   18.9135   21.1848 C   0  0  0  0  0  0  0  0  0  0  0  0
   20.1847   19.9480   21.1381 H   0  0  0  0  0  0  0  0  0  0  0  0
   20.0341   18.4355   20.2205 H   0  0  0  0  0  0  0  0  0  0  0  0
   21.5919   18.9086   22.8505 O   0  0  0  0  0  0  0  0  0  0  0  0
   22.2359   18.9821   22.1147 H   0  0  0  0  0  0  0  0  0  0  0  0
  1  2  1  0  0  0  0
  1  3  1  0  0  0  0
  1  4  1  0  0  0  0
  4  5  1  0  0  0  0
  4  6  1  0  0  0  0
  4  7  1  0  0  0  0
  7  8  1  0  0  0  0
  7  9  1  0  0  0  0
  7 10  1  0  0  0  0
 10 11  1  0  0  0  0
  1 12  1  0  0  0  0
 10 12  1  0  0  0  0
 12 13  1  0  0  0  0
 12 14  1  0  0  0  0
 10 15  1  0  0  0  0
 15 16  1  0  0  0  0
M  END
> <VConfSearch Rank>
986

> <Conf_Id>
33

> <Delta U+W>
0.015

> <U+W>
3.025

> <U>
5.843

> <W>
-2.819

> <W(PB)>
-4.568

> <W(SA)>
1.750

> <Valence>
13.789

> <Coulomb>
-8.574

> <VdW>
0.628

> <VdW6>
-3.284

> <VdW12>
3.913

> <Bond>
0.054

> <Angle>
4.033

> <Pdih>
9.702

> <Idih>
0.000

> <Tether>
0.000

$$$$
VeraChem MOL file


 16 16  0  0  0  0  0  0  0  0999 V2000     
   18.7437   17.5167   21.8263 C   0  0  0  0  0  0  0  0  0  0  0  0
   19.1774   16.5720   22.1824 H   0  0  0  0  0  0  0  0  0  0  0  0
   17.8696   17.2700   21.2082 H   0  0  0  0  0  0  0  0  0  0  0  0
   19.7994   18.3105   21.0260 C   0  0  0  0  0  0  0  0  0  0  0  0
   20.7436   17.7496   20.9939 H   0  0  0  0  0  0  0  0  0  0  0  0
   19.4770   18.4800   19.9895 H   0  0  0  0  0  0  0  0  0  0  0  0
   19.9986   19.6477   21.7708 C   0  0  0  0  0  0  0  0  0  0  0  0
   19.3935   20.4284   21.2912 H   0  0  0  0  0  0  0  0  0  0  0  0
   21.0451   19.9802   21.7565 H   0  0  0  0  0  0  0  0  0  0  0  0
   19.4801   19.4213   23.1972 C   0  0  0  0  0  0  0  0  0  0  0  0
   19.1206   20.3564   23.6503 H   0  0  0  0  0  0  0  0  0  0  0  0
   18.3438   18.4045   23.0239 C   0  0  0  0  0  0  0  0  0  0  0  0
   18.1672   17.8186   23.9358 H   0  0  0  0  0  0  0  0  0  0  0  0
   17.4165   18.9429   22.7879 H   0  0  0  0  0  0  0  0  0  0  0  0
   20.5110   18.8411   23.9830 O   0  0  0  0  0  0  0  0  0  0  0  0
   20.7647   18.0237   23.5071 H   0  0  0  0  0  0  0  0  0  0  0  0
  1  2  1  0  0  0  0
  1  3  1  0  0  0  0
  1  4  1  0  0  0  0
  4  5  1  0  0  0  0
  4  6  1  0  0  0  0
  4  7  1  0  0  0  0
  7  8  1  0  0  0  0
  7  9  1  0  0  0  0
  7 10  1  0  0  0  0
 10 11  1  0  0  0  0
  1 12  1  0  0  0  0
 10 12  1  0  0  0  0
 12 13  1  0  0  0  0
 12 14  1  0  0  0  0
 10 15  1  0  0  0  0
 15 16  1  0  0  0  0
M  END
> <VConfSearch Rank>
987

> <Conf_Id>
20

> <Delta U+W>
-0.483

> <U+W>
2.527

> <U>
4.508

> <W>
-1.981

> <W(PB)>
-3.712

> <W(SA)>
1.732

> <Valence>
14.705

> <Coulomb>
-10.687

> <VdW>
0.490

> <VdW6>
-3.745

> <VdW12>
4.235

> <Bond>
0.068

> <Angle>
3.901

> <Pdih>
10.737

> <Idih>
0.000

> <Tether>
0.000

$$$$
VeraChem MOL file


 16 16  0  0  0  0  0  0  0  0999 V2000     
   20.1623   18.6791   23.5189 C   0  0  0  0  0  0  0  0  0  0  0  0
   21.0915   18.1355   23.2981 H   0  0  0  0  0  0  0  0  0  0  0  0
   20.2549   19.1276   24.5173 H   0  0  0  0  0  0  0  0  0  0  0  0
   18.9684   17.7201   23.4156 C   0  0  0  0  0  0  0  0  0  0  0  0
   19.1927   16.7273   23.8289 H   0  0  0  0  0  0  0  0  0  0  0  0
   18.1120   18.1354   23.9649 H   0  0  0  0  0  0  0  0  0  0  0  0
   18.6469   17.6693   21.9107 C   0  0  0  0  0  0  0  0  0  0  0  0
   17.5816   17.4720   21.7346 H   0  0  0  0  0  0  0  0  0  0  0  0
   19.2220   16.8583   21.4436 H   0  0  0  0  0  0  0  0  0  0  0  0
   19.0751   19.0328   21.3283 C   0  0  0  0  0  0  0  0  0  0  0  0
   18.1872   19.6416   21.1034 H   0  0  0  0  0  0  0  0  0  0  0  0
   19.9075   19.7309   22.4235 C   0  0  0  0  0  0  0  0  0  0  0  0
   20.8473   20.1438   22.0331 H   0  0  0  0  0  0  0  0  0  0  0  0
   19.3251   20.5630   22.8400 H   0  0  0  0  0  0  0  0  0  0  0  0
   19.8636   18.8416   20.1597 O   0  0  0  0  0  0  0  0  0  0  0  0
   19.2916   18.3872   19.5057 H   0  0  0  0  0  0  0  0  0  0  0  0
  1  2  1  0  0  0  0
  1  3  1  0  0  0  0
  1  4  1  0  0  0  0
  4  5  1  0  0  0  0
  4  6  1  0  0  0  0
  4  7  1  0  0  0  0
  7  8  1  0  0  0  0
  7  9  1  0  0  0  0
  7 10  1  0  0  0  0
 10 11  1  0  0  0  0
  1 12  1  0  0  0  0
 10 12  1  0  0  0  0
 12 13  1  0  0  0  0
 12 14  1  0  0  0  0
 10 15  1  0  0  0  0
 15 16  1  0  0  0  0
M  END
> <VConfSearch Rank>
988

> <Conf_Id>
59

> <Delta U+W>
0.000

> <U+W>
3.010

> <U>
5.843

> <W>
-2.833

> <W(PB)>
-4.568

> <W(SA)>
1.735

> <Valence>
13.789

> <Coulomb>
-8.574

> <VdW>
0.628

> <VdW6>
-3.284

> <VdW12>
3.912

> <Bond>
0.054

> <Angle>
4.034

> <Pdih>
9.702

> <Idih>
0.000

> <Tether>
0.000

$$$$
VeraChem MOL file


 16 16  0  0  0  0  0  0  0  0999 V2000     
   18.7817   17.3437   22.2469 C   0  0  0  0  0  0  0  0  0  0  0  0
   18.0935   16.7884   21.5952 H   0  0  0  0  0  0  0  0  0  0  0  0
   19.1282   16.6649   23.0386 H   0  0  0  0  0  0  0  0  0  0  0  0
   18.1215   18.5777   22.8771 C   0  0  0  0  0  0  0  0  0  0  0  0
   17.4732   19.0669   22.1368 H   0  0  0  0  0  0  0  0  0  0  0  0
   17.5116   18.3248   23.7550 H   0  0  0  0  0  0  0  0  0  0  0  0
   19.2979   19.5076   23.2270 C   0  0  0  0  0  0  0  0  0  0  0  0
   19.6479   19.2919   24.2449 H   0  0  0  0  0  0  0  0  0  0  0  0
   19.0018   20.5645   23.1928 H   0  0  0  0  0  0  0  0  0  0  0  0
   20.4273   19.1832   22.2274 C   0  0  0  0  0  0  0  0  0  0  0  0
   21.3590   18.9949   22.7805 H   0  0  0  0  0  0  0  0  0  0  0  0
   19.9908   17.9069   21.4777 C   0  0  0  0  0  0  0  0  0  0  0  0
   19.6857   18.1536   20.4516 H   0  0  0  0  0  0  0  0  0  0  0  0
   20.8061   17.1742   21.4200 H   0  0  0  0  0  0  0  0  0  0  0  0
   20.5946   20.2581   21.3106 O   0  0  0  0  0  0  0  0  0  0  0  0
   21.3120   19.9947   20.6963 H   0  0  0  0  0  0  0  0  0  0  0  0
  1  2  1  0  0  0  0
  1  3  1  0  0  0  0
  1  4  1  0  0  0  0
  4  5  1  0  0  0  0
  4  6  1  0  0  0  0
  4  7  1  0  0  0  0
  7  8  1  0  0  0  0
  7  9  1  0  0  0  0
  7 10  1  0  0  0  0
 10 11  1  0  0  0  0
  1 12  1  0  0  0  0
 10 12  1  0  0  0  0
 12 13  1  0  0  0  0
 12 14  1  0  0  0  0
 10 15  1  0  0  0  0
 15 16  1  0  0  0  0
M  END
> <VConfSearch Rank>
989

> <Conf_Id>
33

> <Delta U+W>
0.015

> <U+W>
3.025

> <U>
5.843

> <W>
-2.819

> <W(PB)>
-4.568

> <W(SA)>
1.750

> <Valence>
13.789

> <Coulomb>
-8.574

> <VdW>
0.628

> <VdW6>
-3.284

> <VdW12>
3.913

> <Bond>
0.054

> <Angle>
4.033

> <Pdih>
9.702

> <Idih>
0.000

> <Tether>
0.000

$$$$
VeraChem MOL file


 16 16  0  0  0  0  0  0  0  0999 V2000     
   19.8821   19.7770   21.8462 C   0  0  0  0  0  0  0  0  0  0  0  0
   19.2070   20.3597   21.2044 H   0  0  0  0  0  0  0  0  0  0  0  0
   20.8036   20.3606   21.9773 H   0  0  0  0  0  0  0  0  0  0  0  0
   20.1667   18.4039   21.1994 C   0  0  0  0  0  0  0  0  0  0  0  0
   19.6302   18.3224   20.2440 H   0  0  0  0  0  0  0  0  0  0  0  0
   21.2373   18.2688   20.9930 H   0  0  0  0  0  0  0  0  0  0  0  0
   19.6541   17.3381   22.1913 C   0  0  0  0  0  0  0  0  0  0  0  0
   20.4928   16.9631   22.7926 H   0  0  0  0  0  0  0  0  0  0  0  0
   19.1986   16.4792   21.6807 H   0  0  0  0  0  0  0  0  0  0  0  0
   18.6622   18.0586   23.1143 C   0  0  0  0  0  0  0  0  0  0  0  0
   18.6103   17.5816   24.1036 H   0  0  0  0  0  0  0  0  0  0  0  0
   19.2093   19.4895   23.2053 C   0  0  0  0  0  0  0  0  0  0  0  0
   18.4252   20.2202   23.4445 H   0  0  0  0  0  0  0  0  0  0  0  0
   19.9618   19.5334   24.0037 H   0  0  0  0  0  0  0  0  0  0  0  0
   17.3835   18.0852   22.4970 O   0  0  0  0  0  0  0  0  0  0  0  0
   17.5270   18.5224   21.6325 H   0  0  0  0  0  0  0  0  0  0  0  0
  1  2  1  0  0  0  0
  1  3  1  0  0  0  0
  1  4  1  0  0  0  0
  4  5  1  0  0  0  0
  4  6  1  0  0  0  0
  4  7  1  0  0  0  0
  7  8  1  0  0  0  0
  7  9  1  0  0  0  0
  7 10  1  0  0  0  0
 10 11  1  0  0  0  0
  1 12  1  0  0  0  0
 10 12  1  0  0  0  0
 12 13  1  0  0  0  0
 12 14  1  0  0  0  0
 10 15  1  0  0  0  0
 15 16  1  0  0  0  0
M  END
> <VConfSearch Rank>
990

> <Conf_Id>
20

> <Delta U+W>
-0.483

> <U+W>
2.527

> <U>
4.508

> <W>
-1.981

> <W(PB)>
-3.712

> <W(SA)>
1.732

> <Valence>
14.705

> <Coulomb>
-10.687

> <VdW>
0.490

> <VdW6>
-3.745

> <VdW12>
4.235

> <Bond>
0.068

> <Angle>
3.901

> <Pdih>
10.737

> <Idih>
0.000

> <Tether>
0.000

$$$$
VeraChem MOL file


 16 16  0  0  0  0  0  0  0  0999 V2000     
   18.6165   17.3085   22.2040 C   0  0  0  0  0  0  0  0  0  0  0  0
   19.1441   16.6043   22.8623 H   0  0  0  0  0  0  0  0  0  0  0  0
   17.7343   16.7996   21.7923 H   0  0  0  0  0  0  0  0  0  0  0  0
   19.5717   17.8035   21.1093 C   0  0  0  0  0  0  0  0  0  0  0  0
   20.2231   17.0043   20.7303 H   0  0  0  0  0  0  0  0  0  0  0  0
   18.9918   18.2032   20.2658 H   0  0  0  0  0  0  0  0  0  0  0  0
   20.3667   18.9390   21.7794 C   0  0  0  0  0  0  0  0  0  0  0  0
   20.6860   19.6916   21.0470 H   0  0  0  0  0  0  0  0  0  0  0  0
   21.2678   18.5228   22.2502 H   0  0  0  0  0  0  0  0  0  0  0  0
   19.4369   19.5480   22.8500 C   0  0  0  0  0  0  0  0  0  0  0  0
   19.0669   20.5276   22.5139 H   0  0  0  0  0  0  0  0  0  0  0  0
   18.2473   18.5766   22.9956 C   0  0  0  0  0  0  0  0  0  0  0  0
   18.0231   18.3467   24.0458 H   0  0  0  0  0  0  0  0  0  0  0  0
   17.3529   19.0376   22.5567 H   0  0  0  0  0  0  0  0  0  0  0  0
   20.1266   19.6682   24.0884 O   0  0  0  0  0  0  0  0  0  0  0  0
   20.8740   20.2842   23.9355 H   0  0  0  0  0  0  0  0  0  0  0  0
  1  2  1  0  0  0  0
  1  3  1  0  0  0  0
  1  4  1  0  0  0  0
  4  5  1  0  0  0  0
  4  6  1  0  0  0  0
  4  7  1  0  0  0  0
  7  8  1  0  0  0  0
  7  9  1  0  0  0  0
  7 10  1  0  0  0  0
 10 11  1  0  0  0  0
  1 12  1  0  0  0  0
 10 12  1  0  0  0  0
 12 13  1  0  0  0  0
 12 14  1  0  0  0  0
 10 15  1  0  0  0  0
 15 16  1  0  0  0  0
M  END
> <VConfSearch Rank>
991

> <Conf_Id>
59

> <Delta U+W>
0.000

> <U+W>
3.010

> <U>
5.843

> <W>
-2.833

> <W(PB)>
-4.568

> <W(SA)>
1.735

> <Valence>
13.789

> <Coulomb>
-8.574

> <VdW>
0.628

> <VdW6>
-3.284

> <VdW12>
3.912

> <Bond>
0.054

> <Angle>
4.034

> <Pdih>
9.702

> <Idih>
0.000

> <Tether>
0.000

$$$$
VeraChem MOL file


 16 16  0  0  0  0  0  0  0  0999 V2000     
   19.8912   19.7836   21.5884 C   0  0  0  0  0  0  0  0  0  0  0  0
   19.6136   20.3791   20.7080 H   0  0  0  0  0  0  0  0  0  0  0  0
   20.6755   20.3247   22.1359 H   0  0  0  0  0  0  0  0  0  0  0  0
   20.3966   18.3843   21.2111 C   0  0  0  0  0  0  0  0  0  0  0  0
   19.7918   17.9846   20.3852 H   0  0  0  0  0  0  0  0  0  0  0  0
   21.4489   18.3891   20.8960 H   0  0  0  0  0  0  0  0  0  0  0  0
   20.1659   17.5373   22.4762 C   0  0  0  0  0  0  0  0  0  0  0  0
   21.0558   17.5827   23.1173 H   0  0  0  0  0  0  0  0  0  0  0  0
   19.9859   16.4825   22.2292 H   0  0  0  0  0  0  0  0  0  0  0  0
   18.9756   18.1755   23.2217 C   0  0  0  0  0  0  0  0  0  0  0  0
   19.2556   18.3504   24.2708 H   0  0  0  0  0  0  0  0  0  0  0  0
   18.6933   19.5203   22.5191 C   0  0  0  0  0  0  0  0  0  0  0  0
   17.7756   19.4511   21.9193 H   0  0  0  0  0  0  0  0  0  0  0  0
   18.5619   20.3342   23.2437 H   0  0  0  0  0  0  0  0  0  0  0  0
   17.8347   17.3296   23.1394 O   0  0  0  0  0  0  0  0  0  0  0  0
   17.1106   17.7869   23.6170 H   0  0  0  0  0  0  0  0  0  0  0  0
  1  2  1  0  0  0  0
  1  3  1  0  0  0  0
  1  4  1  0  0  0  0
  4  5  1  0  0  0  0
  4  6  1  0  0  0  0
  4  7  1  0  0  0  0
  7  8  1  0  0  0  0
  7  9  1  0  0  0  0
  7 10  1  0  0  0  0
 10 11  1  0  0  0  0
  1 12  1  0  0  0  0
 10 12  1  0  0  0  0
 12 13  1  0  0  0  0
 12 14  1  0  0  0  0
 10 15  1  0  0  0  0
 15 16  1  0  0  0  0
M  END
> <VConfSearch Rank>
992

> <Conf_Id>
33

> <Delta U+W>
0.015

> <U+W>
3.025

> <U>
5.843

> <W>
-2.819

> <W(PB)>
-4.568

> <W(SA)>
1.750

> <Valence>
13.789

> <Coulomb>
-8.574

> <VdW>
0.628

> <VdW6>
-3.284

> <VdW12>
3.913

> <Bond>
0.054

> <Angle>
4.033

> <Pdih>
9.702

> <Idih>
0.000

> <Tether>
0.000

$$$$
VeraChem MOL file


 16 16  0  0  0  0  0  0  0  0999 V2000     
   20.5312   19.2843   22.2220 C   0  0  0  0  0  0  0  0  0  0  0  0
   21.3871   18.7391   22.6433 H   0  0  0  0  0  0  0  0  0  0  0  0
   20.8981   20.2567   21.8659 H   0  0  0  0  0  0  0  0  0  0  0  0
   19.4338   19.4500   23.2959 C   0  0  0  0  0  0  0  0  0  0  0  0
   19.7590   18.9860   24.2372 H   0  0  0  0  0  0  0  0  0  0  0  0
   19.2259   20.5091   23.5008 H   0  0  0  0  0  0  0  0  0  0  0  0
   18.1790   18.7331   22.7536 C   0  0  0  0  0  0  0  0  0  0  0  0
   17.5067   19.4687   22.2927 H   0  0  0  0  0  0  0  0  0  0  0  0
   17.6187   18.2185   23.5457 H   0  0  0  0  0  0  0  0  0  0  0  0
   18.6765   17.7658   21.6711 C   0  0  0  0  0  0  0  0  0  0  0  0
   17.9043   17.5768   20.9115 H   0  0  0  0  0  0  0  0  0  0  0  0
   19.8980   18.4745   21.0706 C   0  0  0  0  0  0  0  0  0  0  0  0
   20.6077   17.7689   20.6184 H   0  0  0  0  0  0  0  0  0  0  0  0
   19.5604   19.1602   20.2822 H   0  0  0  0  0  0  0  0  0  0  0  0
   19.0929   16.5536   22.2827 O   0  0  0  0  0  0  0  0  0  0  0  0
   19.7726   16.8183   22.9362 H   0  0  0  0  0  0  0  0  0  0  0  0
  1  2  1  0  0  0  0
  1  3  1  0  0  0  0
  1  4  1  0  0  0  0
  4  5  1  0  0  0  0
  4  6  1  0  0  0  0
  4  7  1  0  0  0  0
  7  8  1  0  0  0  0
  7  9  1  0  0  0  0
  7 10  1  0  0  0  0
 10 11  1  0  0  0  0
  1 12  1  0  0  0  0
 10 12  1  0  0  0  0
 12 13  1  0  0  0  0
 12 14  1  0  0  0  0
 10 15  1  0  0  0  0
 15 16  1  0  0  0  0
M  END
> <VConfSearch Rank>
993

> <Conf_Id>
20

> <Delta U+W>
-0.483

> <U+W>
2.527

> <U>
4.508

> <W>
-1.981

> <W(PB)>
-3.712

> <W(SA)>
1.732

> <Valence>
14.705

> <Coulomb>
-10.687

> <VdW>
0.490

> <VdW6>
-3.745

> <VdW12>
4.235

> <Bond>
0.068

> <Angle>
3.901

> <Pdih>
10.737

> <Idih>
0.000

> <Tether>
0.000

$$$$
VeraChem MOL file


 16 16  0  0  0  0  0  0  0  0999 V2000     
   18.9370   19.7571   21.6147 C   0  0  0  0  0  0  0  0  0  0  0  0
   19.7327   20.4905   21.8063 H   0  0  0  0  0  0  0  0  0  0  0  0
   18.2009   20.2161   20.9409 H   0  0  0  0  0  0  0  0  0  0  0  0
   18.3160   19.3126   22.9460 C   0  0  0  0  0  0  0  0  0  0  0  0
   18.2037   20.1453   23.6536 H   0  0  0  0  0  0  0  0  0  0  0  0
   17.3223   18.8799   22.7642 H   0  0  0  0  0  0  0  0  0  0  0  0
   19.2704   18.2237   23.4694 C   0  0  0  0  0  0  0  0  0  0  0  0
   18.7394   17.4880   24.0872 H   0  0  0  0  0  0  0  0  0  0  0  0
   20.0466   18.6895   24.0917 H   0  0  0  0  0  0  0  0  0  0  0  0
   19.9051   17.5672   22.2253 C   0  0  0  0  0  0  0  0  0  0  0  0
   19.4740   16.5681   22.0657 H   0  0  0  0  0  0  0  0  0  0  0  0
   19.5503   18.4725   21.0276 C   0  0  0  0  0  0  0  0  0  0  0  0
   20.4230   18.6922   20.3982 H   0  0  0  0  0  0  0  0  0  0  0  0
   18.8071   17.9623   20.4012 H   0  0  0  0  0  0  0  0  0  0  0  0
   21.3172   17.4876   22.3787 O   0  0  0  0  0  0  0  0  0  0  0  0
   21.4838   16.9130   23.1556 H   0  0  0  0  0  0  0  0  0  0  0  0
  1  2  1  0  0  0  0
  1  3  1  0  0  0  0
  1  4  1  0  0  0  0
  4  5  1  0  0  0  0
  4  6  1  0  0  0  0
  4  7  1  0  0  0  0
  7  8  1  0  0  0  0
  7  9  1  0  0  0  0
  7 10  1  0  0  0  0
 10 11  1  0  0  0  0
  1 12  1  0  0  0  0
 10 12  1  0  0  0  0
 12 13  1  0  0  0  0
 12 14  1  0  0  0  0
 10 15  1  0  0  0  0
 15 16  1  0  0  0  0
M  END
> <VConfSearch Rank>
994

> <Conf_Id>
59

> <Delta U+W>
0.000

> <U+W>
3.010

> <U>
5.843

> <W>
-2.833

> <W(PB)>
-4.568

> <W(SA)>
1.735

> <Valence>
13.789

> <Coulomb>
-8.574

> <VdW>
0.628

> <VdW6>
-3.284

> <VdW12>
3.912

> <Bond>
0.054

> <Angle>
4.034

> <Pdih>
9.702

> <Idih>
0.000

> <Tether>
0.000

$$$$
VeraChem MOL file


 16 16  0  0  0  0  0  0  0  0999 V2000     
   20.3172   18.1566   23.3433 C   0  0  0  0  0  0  0  0  0  0  0  0
   21.3287   18.3432   23.7290 H   0  0  0  0  0  0  0  0  0  0  0  0
   19.7949   17.4995   24.0525 H   0  0  0  0  0  0  0  0  0  0  0  0
   20.3330   17.5068   21.9529 C   0  0  0  0  0  0  0  0  0  0  0  0
   21.1312   17.9560   21.3456 H   0  0  0  0  0  0  0  0  0  0  0  0
   20.5040   16.4227   21.9984 H   0  0  0  0  0  0  0  0  0  0  0  0
   18.9625   17.8607   21.3467 C   0  0  0  0  0  0  0  0  0  0  0  0
   18.2347   17.0790   21.6000 H   0  0  0  0  0  0  0  0  0  0  0  0
   19.0105   17.9300   20.2517 H   0  0  0  0  0  0  0  0  0  0  0  0
   18.5227   19.1879   21.9986 C   0  0  0  0  0  0  0  0  0  0  0  0
   17.5041   19.0764   22.3980 H   0  0  0  0  0  0  0  0  0  0  0  0
   19.5149   19.4564   23.1497 C   0  0  0  0  0  0  0  0  0  0  0  0
   20.2014   20.2700   22.8785 H   0  0  0  0  0  0  0  0  0  0  0  0
   18.9945   19.7476   24.0713 H   0  0  0  0  0  0  0  0  0  0  0  0
   18.5776   20.2438   21.0468 O   0  0  0  0  0  0  0  0  0  0  0  0
   18.3007   21.0594   21.5154 H   0  0  0  0  0  0  0  0  0  0  0  0
  1  2  1  0  0  0  0
  1  3  1  0  0  0  0
  1  4  1  0  0  0  0
  4  5  1  0  0  0  0
  4  6  1  0  0  0  0
  4  7  1  0  0  0  0
  7  8  1  0  0  0  0
  7  9  1  0  0  0  0
  7 10  1  0  0  0  0
 10 11  1  0  0  0  0
  1 12  1  0  0  0  0
 10 12  1  0  0  0  0
 12 13  1  0  0  0  0
 12 14  1  0  0  0  0
 10 15  1  0  0  0  0
 15 16  1  0  0  0  0
M  END
> <VConfSearch Rank>
995

> <Conf_Id>
33

> <Delta U+W>
0.015

> <U+W>
3.025

> <U>
5.843

> <W>
-2.819

> <W(PB)>
-4.568

> <W(SA)>
1.750

> <Valence>
13.789

> <Coulomb>
-8.574

> <VdW>
0.628

> <VdW6>
-3.284

> <VdW12>
3.913

> <Bond>
0.054

> <Angle>
4.033

> <Pdih>
9.702

> <Idih>
0.000

> <Tether>
0.000

$$$$
VeraChem MOL file


 16 16  0  0  0  0  0  0  0  0999 V2000     
   18.5898   17.8161   22.9880 C   0  0  0  0  0  0  0  0  0  0  0  0
   18.5556   18.0712   24.0562 H   0  0  0  0  0  0  0  0  0  0  0  0
   17.9234   16.9573   22.8289 H   0  0  0  0  0  0  0  0  0  0  0  0
   20.0414   17.4934   22.5713 C   0  0  0  0  0  0  0  0  0  0  0  0
   20.7096   17.5913   23.4380 H   0  0  0  0  0  0  0  0  0  0  0  0
   20.1342   16.4660   22.1933 H   0  0  0  0  0  0  0  0  0  0  0  0
   20.4236   18.5210   21.4848 C   0  0  0  0  0  0  0  0  0  0  0  0
   20.2900   18.0718   20.4918 H   0  0  0  0  0  0  0  0  0  0  0  0
   21.4699   18.8443   21.5672 H   0  0  0  0  0  0  0  0  0  0  0  0
   19.4404   19.6890   21.6397 C   0  0  0  0  0  0  0  0  0  0  0  0
   19.2842   20.2155   20.6871 H   0  0  0  0  0  0  0  0  0  0  0  0
   18.1489   19.0258   22.1368 C   0  0  0  0  0  0  0  0  0  0  0  0
   17.5140   19.7223   22.7005 H   0  0  0  0  0  0  0  0  0  0  0  0
   17.5724   18.6744   21.2708 H   0  0  0  0  0  0  0  0  0  0  0  0
   19.9234   20.5778   22.6365 O   0  0  0  0  0  0  0  0  0  0  0  0
   20.0310   20.0266   23.4389 H   0  0  0  0  0  0  0  0  0  0  0  0
  1  2  1  0  0  0  0
  1  3  1  0  0  0  0
  1  4  1  0  0  0  0
  4  5  1  0  0  0  0
  4  6  1  0  0  0  0
  4  7  1  0  0  0  0
  7  8  1  0  0  0  0
  7  9  1  0  0  0  0
  7 10  1  0  0  0  0
 10 11  1  0  0  0  0
  1 12  1  0  0  0  0
 10 12  1  0  0  0  0
 12 13  1  0  0  0  0
 12 14  1  0  0  0  0
 10 15  1  0  0  0  0
 15 16  1  0  0  0  0
M  END
> <VConfSearch Rank>
996

> <Conf_Id>
20

> <Delta U+W>
-0.483

> <U+W>
2.527

> <U>
4.508

> <W>
-1.981

> <W(PB)>
-3.712

> <W(SA)>
1.732

> <Valence>
14.705

> <Coulomb>
-10.687

> <VdW>
0.490

> <VdW6>
-3.745

> <VdW12>
4.235

> <Bond>
0.068

> <Angle>
3.901

> <Pdih>
10.737

> <Idih>
0.000

> <Tether>
0.000

$$$$
VeraChem MOL file


 16 16  0  0  0  0  0  0  0  0999 V2000     
   18.8348   17.9015   21.1250 C   0  0  0  0  0  0  0  0  0  0  0  0
   18.3139   17.0082   21.4969 H   0  0  0  0  0  0  0  0  0  0  0  0
   18.6942   17.9538   20.0368 H   0  0  0  0  0  0  0  0  0  0  0  0
   20.3160   17.8359   21.5221 C   0  0  0  0  0  0  0  0  0  0  0  0
   20.7286   16.8219   21.4310 H   0  0  0  0  0  0  0  0  0  0  0  0
   20.9018   18.5046   20.8763 H   0  0  0  0  0  0  0  0  0  0  0  0
   20.3471   18.3529   22.9720 C   0  0  0  0  0  0  0  0  0  0  0  0
   21.3048   18.8360   23.2052 H   0  0  0  0  0  0  0  0  0  0  0  0
   20.2188   17.5078   23.6620 H   0  0  0  0  0  0  0  0  0  0  0  0
   19.1670   19.3381   23.1079 C   0  0  0  0  0  0  0  0  0  0  0  0
   19.5413   20.3717   23.1402 H   0  0  0  0  0  0  0  0  0  0  0  0
   18.2971   19.1503   21.8478 C   0  0  0  0  0  0  0  0  0  0  0  0
   17.2304   19.0500   22.0888 H   0  0  0  0  0  0  0  0  0  0  0  0
   18.4115   20.0290   21.1997 H   0  0  0  0  0  0  0  0  0  0  0  0
   18.4104   19.0399   24.2752 O   0  0  0  0  0  0  0  0  0  0  0  0
   19.0119   19.1642   25.0396 H   0  0  0  0  0  0  0  0  0  0  0  0
  1  2  1  0  0  0  0
  1  3  1  0  0  0  0
  1  4  1  0  0  0  0
  4  5  1  0  0  0  0
  4  6  1  0  0  0  0
  4  7  1  0  0  0  0
  7  8  1  0  0  0  0
  7  9  1  0  0  0  0
  7 10  1  0  0  0  0
 10 11  1  0  0  0  0
  1 12  1  0  0  0  0
 10 12  1  0  0  0  0
 12 13  1  0  0  0  0
 12 14  1  0  0  0  0
 10 15  1  0  0  0  0
 15 16  1  0  0  0  0
M  END
> <VConfSearch Rank>
997

> <Conf_Id>
59

> <Delta U+W>
0.000

> <U+W>
3.010

> <U>
5.843

> <W>
-2.833

> <W(PB)>
-4.568

> <W(SA)>
1.735

> <Valence>
13.789

> <Coulomb>
-8.574

> <VdW>
0.628

> <VdW6>
-3.284

> <VdW12>
3.912

> <Bond>
0.054

> <Angle>
4.034

> <Pdih>
9.702

> <Idih>
0.000

> <Tether>
0.000

$$$$
VeraChem MOL file


 16 16  0  0  0  0  0  0  0  0999 V2000     
   19.6323   17.7149   21.1866 C   0  0  0  0  0  0  0  0  0  0  0  0
   19.4004   17.6574   20.1144 H   0  0  0  0  0  0  0  0  0  0  0  0
   20.2898   16.8721   21.4416 H   0  0  0  0  0  0  0  0  0  0  0  0
   18.3711   17.6684   22.0601 C   0  0  0  0  0  0  0  0  0  0  0  0
   17.5742   18.2598   21.5880 H   0  0  0  0  0  0  0  0  0  0  0  0
   17.9995   16.6451   22.2063 H   0  0  0  0  0  0  0  0  0  0  0  0
   18.7935   18.3348   23.3824 C   0  0  0  0  0  0  0  0  0  0  0  0
   19.1836   17.5735   24.0704 H   0  0  0  0  0  0  0  0  0  0  0  0
   17.9451   18.8274   23.8760 H   0  0  0  0  0  0  0  0  0  0  0  0
   19.9240   19.3250   23.0344 C   0  0  0  0  0  0  0  0  0  0  0  0
   20.7839   19.1414   23.6950 H   0  0  0  0  0  0  0  0  0  0  0  0
   20.3141   19.0415   21.5684 C   0  0  0  0  0  0  0  0  0  0  0  0
   19.9430   19.8421   20.9141 H   0  0  0  0  0  0  0  0  0  0  0  0
   21.4032   18.9828   21.4449 H   0  0  0  0  0  0  0  0  0  0  0  0
   19.4622   20.6638   23.1694 O   0  0  0  0  0  0  0  0  0  0  0  0
   20.2129   21.2461   22.9266 H   0  0  0  0  0  0  0  0  0  0  0  0
  1  2  1  0  0  0  0
  1  3  1  0  0  0  0
  1  4  1  0  0  0  0
  4  5  1  0  0  0  0
  4  6  1  0  0  0  0
  4  7  1  0  0  0  0
  7  8  1  0  0  0  0
  7  9  1  0  0  0  0
  7 10  1  0  0  0  0
 10 11  1  0  0  0  0
  1 12  1  0  0  0  0
 10 12  1  0  0  0  0
 12 13  1  0  0  0  0
 12 14  1  0  0  0  0
 10 15  1  0  0  0  0
 15 16  1  0  0  0  0
M  END
> <VConfSearch Rank>
998

> <Conf_Id>
33

> <Delta U+W>
0.015

> <U+W>
3.025

> <U>
5.843

> <W>
-2.819

> <W(PB)>
-4.568

> <W(SA)>
1.750

> <Valence>
13.789

> <Coulomb>
-8.574

> <VdW>
0.628

> <VdW6>
-3.284

> <VdW12>
3.913

> <Bond>
0.054

> <Angle>
4.033

> <Pdih>
9.702

> <Idih>
0.000

> <Tether>
0.000

$$$$
VeraChem MOL file


 16 16  0  0  0  0  0  0  0  0999 V2000     
   20.2841   18.1525   23.1269 C   0  0  0  0  0  0  0  0  0  0  0  0
   19.9150   17.3556   23.7872 H   0  0  0  0  0  0  0  0  0  0  0  0
   21.3387   18.3312   23.3776 H   0  0  0  0  0  0  0  0  0  0  0  0
   19.4320   19.4267   23.3144 C   0  0  0  0  0  0  0  0  0  0  0  0
   18.6511   19.2469   24.0662 H   0  0  0  0  0  0  0  0  0  0  0  0
   20.0411   20.2724   23.6621 H   0  0  0  0  0  0  0  0  0  0  0  0
   18.7920   19.7309   21.9431 C   0  0  0  0  0  0  0  0  0  0  0  0
   19.3871   20.4919   21.4212 H   0  0  0  0  0  0  0  0  0  0  0  0
   17.7675   20.1150   22.0379 H   0  0  0  0  0  0  0  0  0  0  0  0
   18.8500   18.4204   21.1468 C   0  0  0  0  0  0  0  0  0  0  0  0
   18.8896   18.6064   20.0638 H   0  0  0  0  0  0  0  0  0  0  0  0
   20.1280   17.7352   21.6491 C   0  0  0  0  0  0  0  0  0  0  0  0
   20.0910   16.6445   21.5262 H   0  0  0  0  0  0  0  0  0  0  0  0
   20.9834   18.1078   21.0704 H   0  0  0  0  0  0  0  0  0  0  0  0
   17.7267   17.6189   21.4825 O   0  0  0  0  0  0  0  0  0  0  0  0
   17.7744   17.5077   22.4544 H   0  0  0  0  0  0  0  0  0  0  0  0
  1  2  1  0  0  0  0
  1  3  1  0  0  0  0
  1  4  1  0  0  0  0
  4  5  1  0  0  0  0
  4  6  1  0  0  0  0
  4  7  1  0  0  0  0
  7  8  1  0  0  0  0
  7  9  1  0  0  0  0
  7 10  1  0  0  0  0
 10 11  1  0  0  0  0
  1 12  1  0  0  0  0
 10 12  1  0  0  0  0
 12 13  1  0  0  0  0
 12 14  1  0  0  0  0
 10 15  1  0  0  0  0
 15 16  1  0  0  0  0
M  END
> <VConfSearch Rank>
999

> <Conf_Id>
20

> <Delta U+W>
-0.483

> <U+W>
2.527

> <U>
4.508

> <W>
-1.981

> <W(PB)>
-3.712

> <W(SA)>
1.732

> <Valence>
14.705

> <Coulomb>
-10.687

> <VdW>
0.490

> <VdW6>
-3.745

> <VdW12>
4.235

> <Bond>
0.068

> <Angle>
3.901

> <Pdih>
10.737

> <Idih>
0.000

> <Tether>
0.000

$$$$
