VeraChem MOL file


 26 25  0  0  0  0  0  0  0  0999 V2000     
   20.2414   18.6563   18.8060 C   0  0  0  0  0  0  0  0  0  0  0  0
   19.6046   19.4972   18.5017 H   0  0  0  0  0  0  0  0  0  0  0  0
   21.0557   18.5687   18.0750 H   0  0  0  0  0  0  0  0  0  0  0  0
   19.6424   17.7377   18.7549 H   0  0  0  0  0  0  0  0  0  0  0  0
   20.8051   18.8728   20.2264 C   0  0  0  0  0  0  0  0  0  0  0  0
   21.4264   19.7793   20.2377 H   0  0  0  0  0  0  0  0  0  0  0  0
   21.4642   18.0334   20.4887 H   0  0  0  0  0  0  0  0  0  0  0  0
   19.6785   18.9995   21.2757 C   0  0  0  0  0  0  0  0  0  0  0  0
   19.0208   19.8376   21.0067 H   0  0  0  0  0  0  0  0  0  0  0  0
   19.0592   18.0918   21.2594 H   0  0  0  0  0  0  0  0  0  0  0  0
   20.2389   19.2173   22.6994 C   0  0  0  0  0  0  0  0  0  0  0  0
   20.8549   20.1273   22.7150 H   0  0  0  0  0  0  0  0  0  0  0  0
   20.9000   18.3793   22.9576 H   0  0  0  0  0  0  0  0  0  0  0  0
   19.1076   19.3422   23.7488 C   0  0  0  0  0  0  0  0  0  0  0  0
   18.4279   20.1490   23.4433 H   0  0  0  0  0  0  0  0  0  0  0  0
   18.5119   18.4198   23.7646 H   0  0  0  0  0  0  0  0  0  0  0  0
   19.6331   19.6456   25.1688 C   0  0  1  0  0  0  0  0  0  0  0  0
   20.2419   20.5539   25.1222 H   0  0  0  0  0  0  0  0  0  0  0  0
   18.4605   19.8996   26.1296 C   0  0  0  0  0  0  0  0  0  0  0  0
   17.8446   20.7377   25.7803 H   0  0  0  0  0  0  0  0  0  0  0  0
   18.8276   20.1521   27.1321 H   0  0  0  0  0  0  0  0  0  0  0  0
   17.8173   19.0147   26.2138 H   0  0  0  0  0  0  0  0  0  0  0  0
   20.5229   18.5546   25.6994 N   0  3  0  0  0  0  0  0  0  0  0  0
   20.8769   18.7815   26.6330 H   0  0  0  0  0  0  0  0  0  0  0  0
   20.0217   17.6651   25.7697 H   0  0  0  0  0  0  0  0  0  0  0  0
   21.3337   18.4049   25.0931 H   0  0  0  0  0  0  0  0  0  0  0  0
  1  2  1  0  0  0  0
  1  3  1  0  0  0  0
  1  4  1  0  0  0  0
  1  5  1  0  0  0  0
  5  6  1  0  0  0  0
  5  7  1  0  0  0  0
  5  8  1  0  0  0  0
  8  9  1  0  0  0  0
  8 10  1  0  0  0  0
  8 11  1  0  0  0  0
 11 12  1  0  0  0  0
 11 13  1  0  0  0  0
 11 14  1  0  0  0  0
 14 15  1  0  0  0  0
 14 16  1  0  0  0  0
 14 17  1  0  0  0  0
 17 18  1  0  0  0  0
 17 19  1  0  0  0  0
 19 20  1  0  0  0  0
 19 21  1  0  0  0  0
 19 22  1  0  0  0  0
 17 23  1  0  0  0  0
 23 24  1  0  0  0  0
 23 25  1  0  0  0  0
 23 26  1  0  0  0  0
M  END
> <VM2 Rank>
1

> <Conf_Id>
1163

> <Probability>
17.00

> <Sum Probability>
17.00

> <Delta G>
0.000

> <G>
23.710

> <E>
-8.843

> <-TS>
32.553

> <U+W>
-30.305

> <U>
23.517

> <W>
-53.819

> <W(PB)>
-56.165

> <W(SA)>
2.346

> <Valence>
2.737

> <Coulomb>
19.862

> <VdW>
0.919

> <VdW6>
-6.793

> <VdW12>
7.712

> <Bond>
0.171

> <Angle>
0.873

> <Pdih>
1.693

> <Idih>
0.000

> <Tether>
0.000

$$$$
VeraChem MOL file


 26 25  0  0  0  0  0  0  0  0999 V2000     
   20.2651   18.6437   18.8026 C   0  0  0  0  0  0  0  0  0  0  0  0
   20.3176   19.2783   17.9084 H   0  0  0  0  0  0  0  0  0  0  0  0
   21.1742   18.0290   18.8332 H   0  0  0  0  0  0  0  0  0  0  0  0
   19.4028   17.9737   18.6902 H   0  0  0  0  0  0  0  0  0  0  0  0
   20.1354   19.5062   20.0760 C   0  0  0  0  0  0  0  0  0  0  0  0
   19.2364   20.1340   20.0008 H   0  0  0  0  0  0  0  0  0  0  0  0
   20.9941   20.1888   20.1429 H   0  0  0  0  0  0  0  0  0  0  0  0
   20.0596   18.6366   21.3506 C   0  0  0  0  0  0  0  0  0  0  0  0
   19.2008   17.9549   21.2782 H   0  0  0  0  0  0  0  0  0  0  0  0
   20.9588   18.0088   21.4187 H   0  0  0  0  0  0  0  0  0  0  0  0
   19.9301   19.4968   22.6281 C   0  0  0  0  0  0  0  0  0  0  0  0
   19.0340   20.1257   22.5455 H   0  0  0  0  0  0  0  0  0  0  0  0
   20.7917   20.1749   22.7022 H   0  0  0  0  0  0  0  0  0  0  0  0
   19.8499   18.6222   23.9036 C   0  0  0  0  0  0  0  0  0  0  0  0
   18.9532   17.9895   23.8631 H   0  0  0  0  0  0  0  0  0  0  0  0
   20.7110   17.9409   23.9147 H   0  0  0  0  0  0  0  0  0  0  0  0
   19.8535   19.4355   25.2183 C   0  0  1  0  0  0  0  0  0  0  0  0
   20.7327   20.0872   25.2160 H   0  0  0  0  0  0  0  0  0  0  0  0
   18.5969   20.3130   25.3618 C   0  0  0  0  0  0  0  0  0  0  0  0
   18.5528   21.0781   24.5783 H   0  0  0  0  0  0  0  0  0  0  0  0
   18.5996   20.8367   26.3256 H   0  0  0  0  0  0  0  0  0  0  0  0
   17.6826   19.7092   25.3055 H   0  0  0  0  0  0  0  0  0  0  0  0
   19.9974   18.5340   26.4131 N   0  3  0  0  0  0  0  0  0  0  0  0
   19.2077   17.8877   26.4920 H   0  0  0  0  0  0  0  0  0  0  0  0
   20.8513   17.9712   26.3607 H   0  0  0  0  0  0  0  0  0  0  0  0
   20.0405   19.0710   27.2839 H   0  0  0  0  0  0  0  0  0  0  0  0
  1  2  1  0  0  0  0
  1  3  1  0  0  0  0
  1  4  1  0  0  0  0
  1  5  1  0  0  0  0
  5  6  1  0  0  0  0
  5  7  1  0  0  0  0
  5  8  1  0  0  0  0
  8  9  1  0  0  0  0
  8 10  1  0  0  0  0
  8 11  1  0  0  0  0
 11 12  1  0  0  0  0
 11 13  1  0  0  0  0
 11 14  1  0  0  0  0
 14 15  1  0  0  0  0
 14 16  1  0  0  0  0
 14 17  1  0  0  0  0
 17 18  1  0  0  0  0
 17 19  1  0  0  0  0
 19 20  1  0  0  0  0
 19 21  1  0  0  0  0
 19 22  1  0  0  0  0
 17 23  1  0  0  0  0
 23 24  1  0  0  0  0
 23 25  1  0  0  0  0
 23 26  1  0  0  0  0
M  END
> <VM2 Rank>
2

> <Conf_Id>
618

> <Probability>
7.68

> <Sum Probability>
24.68

> <Delta G>
0.474

> <G>
24.183

> <E>
-8.383

> <-TS>
32.566

> <U+W>
-29.845

> <U>
23.817

> <W>
-53.662

> <W(PB)>
-56.020

> <W(SA)>
2.358

> <Valence>
3.277

> <Coulomb>
19.492

> <VdW>
1.049

> <VdW6>
-6.949

> <VdW12>
7.998

> <Bond>
0.183

> <Angle>
1.152

> <Pdih>
1.942

> <Idih>
0.000

> <Tether>
0.000

$$$$
VeraChem MOL file


 26 25  0  0  0  0  0  0  0  0999 V2000     
   20.3613   18.7664   18.8989 C   0  0  0  0  0  0  0  0  0  0  0  0
   20.3291   17.9289   18.1900 H   0  0  0  0  0  0  0  0  0  0  0  0
   19.6207   19.5098   18.5761 H   0  0  0  0  0  0  0  0  0  0  0  0
   21.3567   19.2248   18.8338 H   0  0  0  0  0  0  0  0  0  0  0  0
   20.0681   18.2779   20.3333 C   0  0  0  0  0  0  0  0  0  0  0  0
   20.8041   17.5117   20.6148 H   0  0  0  0  0  0  0  0  0  0  0  0
   19.0814   17.7945   20.3591 H   0  0  0  0  0  0  0  0  0  0  0  0
   20.1073   19.4385   21.3520 C   0  0  0  0  0  0  0  0  0  0  0  0
   21.0946   19.9199   21.3202 H   0  0  0  0  0  0  0  0  0  0  0  0
   19.3719   20.2027   21.0647 H   0  0  0  0  0  0  0  0  0  0  0  0
   19.8141   18.9535   22.7899 C   0  0  0  0  0  0  0  0  0  0  0  0
   20.5511   18.1892   23.0694 H   0  0  0  0  0  0  0  0  0  0  0  0
   18.8283   18.4705   22.8097 H   0  0  0  0  0  0  0  0  0  0  0  0
   19.8522   20.1239   23.8070 C   0  0  0  0  0  0  0  0  0  0  0  0
   20.8255   20.6276   23.7405 H   0  0  0  0  0  0  0  0  0  0  0  0
   19.1035   20.8755   23.5235 H   0  0  0  0  0  0  0  0  0  0  0  0
   19.6133   19.7157   25.2800 C   0  0  1  0  0  0  0  0  0  0  0  0
   19.6967   20.6232   25.8861 H   0  0  0  0  0  0  0  0  0  0  0  0
   18.2040   19.1383   25.4995 C   0  0  0  0  0  0  0  0  0  0  0  0
   18.0143   18.9865   26.5691 H   0  0  0  0  0  0  0  0  0  0  0  0
   18.0784   18.1718   24.9971 H   0  0  0  0  0  0  0  0  0  0  0  0
   17.4376   19.8256   25.1203 H   0  0  0  0  0  0  0  0  0  0  0  0
   20.6676   18.7738   25.7935 N   0  3  0  0  0  0  0  0  0  0  0  0
   20.5304   18.5640   26.7863 H   0  0  0  0  0  0  0  0  0  0  0  0
   20.6509   17.8852   25.2872 H   0  0  0  0  0  0  0  0  0  0  0  0
   21.6065   19.1695   25.6918 H   0  0  0  0  0  0  0  0  0  0  0  0
  1  2  1  0  0  0  0
  1  3  1  0  0  0  0
  1  4  1  0  0  0  0
  1  5  1  0  0  0  0
  5  6  1  0  0  0  0
  5  7  1  0  0  0  0
  5  8  1  0  0  0  0
  8  9  1  0  0  0  0
  8 10  1  0  0  0  0
  8 11  1  0  0  0  0
 11 12  1  0  0  0  0
 11 13  1  0  0  0  0
 11 14  1  0  0  0  0
 14 15  1  0  0  0  0
 14 16  1  0  0  0  0
 14 17  1  0  0  0  0
 17 18  1  0  0  0  0
 17 19  1  0  0  0  0
 19 20  1  0  0  0  0
 19 21  1  0  0  0  0
 19 22  1  0  0  0  0
 17 23  1  0  0  0  0
 23 24  1  0  0  0  0
 23 25  1  0  0  0  0
 23 26  1  0  0  0  0
M  END
> <VM2 Rank>
3

> <Conf_Id>
1283

> <Probability>
7.21

> <Sum Probability>
31.89

> <Delta G>
0.511

> <G>
24.221

> <E>
-8.477

> <-TS>
32.698

> <U+W>
-29.939

> <U>
24.060

> <W>
-53.999

> <W(PB)>
-56.330

> <W(SA)>
2.332

> <Valence>
3.249

> <Coulomb>
19.781

> <VdW>
1.030

> <VdW6>
-7.421

> <VdW12>
8.450

> <Bond>
0.207

> <Angle>
1.205

> <Pdih>
1.837

> <Idih>
0.000

> <Tether>
0.000

$$$$
VeraChem MOL file


 26 25  0  0  0  0  0  0  0  0999 V2000     
   21.0479   19.5374   19.5908 C   0  0  0  0  0  0  0  0  0  0  0  0
   21.7406   19.8914   20.3643 H   0  0  0  0  0  0  0  0  0  0  0  0
   21.6438   19.2914   18.7024 H   0  0  0  0  0  0  0  0  0  0  0  0
   20.3759   20.3640   19.3258 H   0  0  0  0  0  0  0  0  0  0  0  0
   20.2494   18.3022   20.0654 C   0  0  0  0  0  0  0  0  0  0  0  0
   20.9444   17.5008   20.3527 H   0  0  0  0  0  0  0  0  0  0  0  0
   19.6642   17.9129   19.2205 H   0  0  0  0  0  0  0  0  0  0  0  0
   19.2862   18.6056   21.2383 C   0  0  0  0  0  0  0  0  0  0  0  0
   18.5786   19.3905   20.9375 H   0  0  0  0  0  0  0  0  0  0  0  0
   18.6852   17.7074   21.4371 H   0  0  0  0  0  0  0  0  0  0  0  0
   20.0117   19.0261   22.5390 C   0  0  0  0  0  0  0  0  0  0  0  0
   20.5566   19.9653   22.3752 H   0  0  0  0  0  0  0  0  0  0  0  0
   20.7575   18.2627   22.7974 H   0  0  0  0  0  0  0  0  0  0  0  0
   19.0190   19.2154   23.7118 C   0  0  0  0  0  0  0  0  0  0  0  0
   18.2492   19.9386   23.4111 H   0  0  0  0  0  0  0  0  0  0  0  0
   18.4987   18.2700   23.9151 H   0  0  0  0  0  0  0  0  0  0  0  0
   19.7000   19.7209   25.0022 C   0  0  1  0  0  0  0  0  0  0  0  0
   20.2299   20.6496   24.7689 H   0  0  0  0  0  0  0  0  0  0  0  0
   18.6460   20.0245   26.0790 C   0  0  0  0  0  0  0  0  0  0  0  0
   18.0851   19.1217   26.3514 H   0  0  0  0  0  0  0  0  0  0  0  0
   17.9308   20.7768   25.7235 H   0  0  0  0  0  0  0  0  0  0  0  0
   19.1200   20.4191   26.9862 H   0  0  0  0  0  0  0  0  0  0  0  0
   20.7278   18.7559   25.5274 N   0  3  0  0  0  0  0  0  0  0  0  0
   21.4619   18.5786   24.8367 H   0  0  0  0  0  0  0  0  0  0  0  0
   21.1823   19.1159   26.3713 H   0  0  0  0  0  0  0  0  0  0  0  0
   20.3057   17.8550   25.7674 H   0  0  0  0  0  0  0  0  0  0  0  0
  1  2  1  0  0  0  0
  1  3  1  0  0  0  0
  1  4  1  0  0  0  0
  1  5  1  0  0  0  0
  5  6  1  0  0  0  0
  5  7  1  0  0  0  0
  5  8  1  0  0  0  0
  8  9  1  0  0  0  0
  8 10  1  0  0  0  0
  8 11  1  0  0  0  0
 11 12  1  0  0  0  0
 11 13  1  0  0  0  0
 11 14  1  0  0  0  0
 14 15  1  0  0  0  0
 14 16  1  0  0  0  0
 14 17  1  0  0  0  0
 17 18  1  0  0  0  0
 17 19  1  0  0  0  0
 19 20  1  0  0  0  0
 19 21  1  0  0  0  0
 19 22  1  0  0  0  0
 17 23  1  0  0  0  0
 23 24  1  0  0  0  0
 23 25  1  0  0  0  0
 23 26  1  0  0  0  0
M  END
> <VM2 Rank>
4

> <Conf_Id>
1268

> <Probability>
6.27

> <Sum Probability>
38.17

> <Delta G>
0.594

> <G>
24.304

> <E>
-8.361

> <-TS>
32.665

> <U+W>
-29.822

> <U>
24.148

> <W>
-53.971

> <W(PB)>
-56.282

> <W(SA)>
2.311

> <Valence>
3.242

> <Coulomb>
19.863

> <VdW>
1.043

> <VdW6>
-7.422

> <VdW12>
8.465

> <Bond>
0.206

> <Angle>
1.112

> <Pdih>
1.924

> <Idih>
0.000

> <Tether>
0.000

$$$$
VeraChem MOL file


 26 25  0  0  0  0  0  0  0  0999 V2000     
   21.0697   18.0176   19.8286 C   0  0  0  0  0  0  0  0  0  0  0  0
   20.4117   17.1391   19.8177 H   0  0  0  0  0  0  0  0  0  0  0  0
   21.6580   18.0076   18.9019 H   0  0  0  0  0  0  0  0  0  0  0  0
   21.7715   17.9121   20.6650 H   0  0  0  0  0  0  0  0  0  0  0  0
   20.2510   19.3242   19.9349 C   0  0  0  0  0  0  0  0  0  0  0  0
   19.6582   19.4458   19.0175 H   0  0  0  0  0  0  0  0  0  0  0  0
   20.9327   20.1853   19.9764 H   0  0  0  0  0  0  0  0  0  0  0  0
   19.2943   19.3545   21.1513 C   0  0  0  0  0  0  0  0  0  0  0  0
   18.6764   20.2607   21.0853 H   0  0  0  0  0  0  0  0  0  0  0  0
   18.6017   18.5034   21.0943 H   0  0  0  0  0  0  0  0  0  0  0  0
   20.0282   19.3401   22.5138 C   0  0  0  0  0  0  0  0  0  0  0  0
   20.7543   20.1642   22.5471 H   0  0  0  0  0  0  0  0  0  0  0  0
   20.5965   18.4071   22.6136 H   0  0  0  0  0  0  0  0  0  0  0  0
   19.0395   19.4755   23.6975 C   0  0  0  0  0  0  0  0  0  0  0  0
   18.4433   20.3874   23.5598 H   0  0  0  0  0  0  0  0  0  0  0  0
   18.3330   18.6348   23.6892 H   0  0  0  0  0  0  0  0  0  0  0  0
   19.7463   19.5467   25.0687 C   0  0  1  0  0  0  0  0  0  0  0  0
   20.4616   20.3746   25.0430 H   0  0  0  0  0  0  0  0  0  0  0  0
   18.7246   19.8266   26.1825 C   0  0  0  0  0  0  0  0  0  0  0  0
   17.9821   19.0217   26.2517 H   0  0  0  0  0  0  0  0  0  0  0  0
   18.1920   20.7675   25.9957 H   0  0  0  0  0  0  0  0  0  0  0  0
   19.2246   19.9151   27.1549 H   0  0  0  0  0  0  0  0  0  0  0  0
   20.5343   18.3027   25.3768 N   0  3  0  0  0  0  0  0  0  0  0  0
   19.9299   17.4777   25.4148 H   0  0  0  0  0  0  0  0  0  0  0  0
   21.2508   18.1282   24.6672 H   0  0  0  0  0  0  0  0  0  0  0  0
   21.0103   18.3757   26.2805 H   0  0  0  0  0  0  0  0  0  0  0  0
  1  2  1  0  0  0  0
  1  3  1  0  0  0  0
  1  4  1  0  0  0  0
  1  5  1  0  0  0  0
  5  6  1  0  0  0  0
  5  7  1  0  0  0  0
  5  8  1  0  0  0  0
  8  9  1  0  0  0  0
  8 10  1  0  0  0  0
  8 11  1  0  0  0  0
 11 12  1  0  0  0  0
 11 13  1  0  0  0  0
 11 14  1  0  0  0  0
 14 15  1  0  0  0  0
 14 16  1  0  0  0  0
 14 17  1  0  0  0  0
 17 18  1  0  0  0  0
 17 19  1  0  0  0  0
 19 20  1  0  0  0  0
 19 21  1  0  0  0  0
 19 22  1  0  0  0  0
 17 23  1  0  0  0  0
 23 24  1  0  0  0  0
 23 25  1  0  0  0  0
 23 26  1  0  0  0  0
M  END
> <VM2 Rank>
5

> <Conf_Id>
1062

> <Probability>
6.03

> <Sum Probability>
44.20

> <Delta G>
0.618

> <G>
24.328

> <E>
-8.331

> <-TS>
32.658

> <U+W>
-29.793

> <U>
24.259

> <W>
-54.052

> <W(PB)>
-56.355

> <W(SA)>
2.304

> <Valence>
3.240

> <Coulomb>
19.971

> <VdW>
1.049

> <VdW6>
-7.431

> <VdW12>
8.480

> <Bond>
0.208

> <Angle>
1.110

> <Pdih>
1.922

> <Idih>
0.000

> <Tether>
0.000

$$$$
VeraChem MOL file


 26 25  0  0  0  0  0  0  0  0999 V2000     
   19.9267   18.4376   19.0849 C   0  0  0  0  0  0  0  0  0  0  0  0
   19.2237   19.2151   18.7584 H   0  0  0  0  0  0  0  0  0  0  0  0
   20.9095   18.6605   18.6494 H   0  0  0  0  0  0  0  0  0  0  0  0
   19.5852   17.4795   18.6721 H   0  0  0  0  0  0  0  0  0  0  0  0
   20.0037   18.3710   20.6250 C   0  0  0  0  0  0  0  0  0  0  0  0
   20.6908   17.5659   20.9206 H   0  0  0  0  0  0  0  0  0  0  0  0
   19.0138   18.1065   21.0198 H   0  0  0  0  0  0  0  0  0  0  0  0
   20.4795   19.7128   21.2304 C   0  0  0  0  0  0  0  0  0  0  0  0
   21.4336   19.9962   20.7649 H   0  0  0  0  0  0  0  0  0  0  0  0
   19.7649   20.5078   20.9760 H   0  0  0  0  0  0  0  0  0  0  0  0
   20.6775   19.6633   22.7653 C   0  0  0  0  0  0  0  0  0  0  0  0
   21.1157   20.6173   23.0902 H   0  0  0  0  0  0  0  0  0  0  0  0
   21.4129   18.8849   23.0087 H   0  0  0  0  0  0  0  0  0  0  0  0
   19.3623   19.4201   23.5489 C   0  0  0  0  0  0  0  0  0  0  0  0
   18.6078   20.1425   23.2099 H   0  0  0  0  0  0  0  0  0  0  0  0
   18.9664   18.4217   23.3241 H   0  0  0  0  0  0  0  0  0  0  0  0
   19.5397   19.5652   25.0758 C   0  0  1  0  0  0  0  0  0  0  0  0
   19.9496   20.5591   25.2803 H   0  0  0  0  0  0  0  0  0  0  0  0
   18.1814   19.4482   25.7856 C   0  0  0  0  0  0  0  0  0  0  0  0
   17.4847   20.2144   25.4231 H   0  0  0  0  0  0  0  0  0  0  0  0
   18.2954   19.5879   26.8677 H   0  0  0  0  0  0  0  0  0  0  0  0
   17.7268   18.4645   25.6139 H   0  0  0  0  0  0  0  0  0  0  0  0
   20.5173   18.5696   25.6383 N   0  3  0  0  0  0  0  0  0  0  0  0
   20.2019   17.6084   25.4839 H   0  0  0  0  0  0  0  0  0  0  0  0
   21.4394   18.6653   25.2048 H   0  0  0  0  0  0  0  0  0  0  0  0
   20.6391   18.6940   26.6473 H   0  0  0  0  0  0  0  0  0  0  0  0
  1  2  1  0  0  0  0
  1  3  1  0  0  0  0
  1  4  1  0  0  0  0
  1  5  1  0  0  0  0
  5  6  1  0  0  0  0
  5  7  1  0  0  0  0
  5  8  1  0  0  0  0
  8  9  1  0  0  0  0
  8 10  1  0  0  0  0
  8 11  1  0  0  0  0
 11 12  1  0  0  0  0
 11 13  1  0  0  0  0
 11 14  1  0  0  0  0
 14 15  1  0  0  0  0
 14 16  1  0  0  0  0
 14 17  1  0  0  0  0
 17 18  1  0  0  0  0
 17 19  1  0  0  0  0
 19 20  1  0  0  0  0
 19 21  1  0  0  0  0
 19 22  1  0  0  0  0
 17 23  1  0  0  0  0
 23 24  1  0  0  0  0
 23 25  1  0  0  0  0
 23 26  1  0  0  0  0
M  END
> <VM2 Rank>
6

> <Conf_Id>
1286

> <Probability>
5.31

> <Sum Probability>
49.50

> <Delta G>
0.694

> <G>
24.404

> <E>
-8.264

> <-TS>
32.668

> <U+W>
-29.726

> <U>
24.276

> <W>
-54.002

> <W(PB)>
-56.316

> <W(SA)>
2.314

> <Valence>
3.269

> <Coulomb>
20.007

> <VdW>
1.000

> <VdW6>
-7.483

> <VdW12>
8.483

> <Bond>
0.211

> <Angle>
1.103

> <Pdih>
1.955

> <Idih>
0.000

> <Tether>
0.000

$$$$
VeraChem MOL file


 26 25  0  0  0  0  0  0  0  0999 V2000     
   20.8971   19.5642   19.3397 C   0  0  0  0  0  0  0  0  0  0  0  0
   21.6801   20.2088   19.7599 H   0  0  0  0  0  0  0  0  0  0  0  0
   21.3062   19.0767   18.4452 H   0  0  0  0  0  0  0  0  0  0  0  0
   20.0619   20.2025   19.0234 H   0  0  0  0  0  0  0  0  0  0  0  0
   20.4325   18.5123   20.3692 C   0  0  0  0  0  0  0  0  0  0  0  0
   21.2809   17.8686   20.6408 H   0  0  0  0  0  0  0  0  0  0  0  0
   19.6757   17.8617   19.9088 H   0  0  0  0  0  0  0  0  0  0  0  0
   19.8510   19.1725   21.6388 C   0  0  0  0  0  0  0  0  0  0  0  0
   20.6120   19.8275   22.0832 H   0  0  0  0  0  0  0  0  0  0  0  0
   19.0023   19.8129   21.3613 H   0  0  0  0  0  0  0  0  0  0  0  0
   19.3868   18.1186   22.6727 C   0  0  0  0  0  0  0  0  0  0  0  0
   20.2366   17.4902   22.9710 H   0  0  0  0  0  0  0  0  0  0  0  0
   18.6631   17.4429   22.1960 H   0  0  0  0  0  0  0  0  0  0  0  0
   18.7225   18.7436   23.9263 C   0  0  0  0  0  0  0  0  0  0  0  0
   17.8185   19.2835   23.6145 H   0  0  0  0  0  0  0  0  0  0  0  0
   18.3840   17.9379   24.5911 H   0  0  0  0  0  0  0  0  0  0  0  0
   19.6370   19.7072   24.7157 C   0  0  1  0  0  0  0  0  0  0  0  0
   19.9487   20.5136   24.0455 H   0  0  0  0  0  0  0  0  0  0  0  0
   18.8678   20.3322   25.8904 C   0  0  0  0  0  0  0  0  0  0  0  0
   18.5347   19.5649   26.6005 H   0  0  0  0  0  0  0  0  0  0  0  0
   17.9832   20.8738   25.5328 H   0  0  0  0  0  0  0  0  0  0  0  0
   19.4995   21.0474   26.4315 H   0  0  0  0  0  0  0  0  0  0  0  0
   20.8933   19.0375   25.2012 N   0  3  0  0  0  0  0  0  0  0  0  0
   21.4331   18.6509   24.4223 H   0  0  0  0  0  0  0  0  0  0  0  0
   21.4999   19.6946   25.6998 H   0  0  0  0  0  0  0  0  0  0  0  0
   20.6821   18.2683   25.8423 H   0  0  0  0  0  0  0  0  0  0  0  0
  1  2  1  0  0  0  0
  1  3  1  0  0  0  0
  1  4  1  0  0  0  0
  1  5  1  0  0  0  0
  5  6  1  0  0  0  0
  5  7  1  0  0  0  0
  5  8  1  0  0  0  0
  8  9  1  0  0  0  0
  8 10  1  0  0  0  0
  8 11  1  0  0  0  0
 11 12  1  0  0  0  0
 11 13  1  0  0  0  0
 11 14  1  0  0  0  0
 14 15  1  0  0  0  0
 14 16  1  0  0  0  0
 14 17  1  0  0  0  0
 17 18  1  0  0  0  0
 17 19  1  0  0  0  0
 19 20  1  0  0  0  0
 19 21  1  0  0  0  0
 19 22  1  0  0  0  0
 17 23  1  0  0  0  0
 23 24  1  0  0  0  0
 23 25  1  0  0  0  0
 23 26  1  0  0  0  0
M  END
> <VM2 Rank>
7

> <Conf_Id>
743

> <Probability>
5.28

> <Sum Probability>
54.79

> <Delta G>
0.697

> <G>
24.406

> <E>
-8.339

> <-TS>
32.745

> <U+W>
-29.800

> <U>
24.149

> <W>
-53.949

> <W(PB)>
-56.255

> <W(SA)>
2.306

> <Valence>
3.038

> <Coulomb>
20.324

> <VdW>
0.787

> <VdW6>
-7.686

> <VdW12>
8.473

> <Bond>
0.201

> <Angle>
1.090

> <Pdih>
1.748

> <Idih>
0.000

> <Tether>
0.000

$$$$
VeraChem MOL file


 26 25  0  0  0  0  0  0  0  0999 V2000     
   19.8815   18.9331   18.9778 C   0  0  0  0  0  0  0  0  0  0  0  0
   19.2375   18.0475   18.8992 H   0  0  0  0  0  0  0  0  0  0  0  0
   19.4706   19.7081   18.3177 H   0  0  0  0  0  0  0  0  0  0  0  0
   20.8781   18.6657   18.6031 H   0  0  0  0  0  0  0  0  0  0  0  0
   19.9528   19.4393   20.4341 C   0  0  0  0  0  0  0  0  0  0  0  0
   18.9459   19.7352   20.7567 H   0  0  0  0  0  0  0  0  0  0  0  0
   20.5793   20.3412   20.4756 H   0  0  0  0  0  0  0  0  0  0  0  0
   20.5251   18.3610   21.3846 C   0  0  0  0  0  0  0  0  0  0  0  0
   19.8672   17.4809   21.3858 H   0  0  0  0  0  0  0  0  0  0  0  0
   21.4936   18.0203   20.9930 H   0  0  0  0  0  0  0  0  0  0  0  0
   20.7323   18.8570   22.8370 C   0  0  0  0  0  0  0  0  0  0  0  0
   21.3921   19.7357   22.8342 H   0  0  0  0  0  0  0  0  0  0  0  0
   21.2651   18.0724   23.3900 H   0  0  0  0  0  0  0  0  0  0  0  0
   19.4090   19.1993   23.5692 C   0  0  0  0  0  0  0  0  0  0  0  0
   18.8912   20.0002   23.0273 H   0  0  0  0  0  0  0  0  0  0  0  0
   18.7410   18.3278   23.5567 H   0  0  0  0  0  0  0  0  0  0  0  0
   19.6294   19.6630   25.0259 C   0  0  1  0  0  0  0  0  0  0  0  0
   20.3252   20.5076   25.0152 H   0  0  0  0  0  0  0  0  0  0  0  0
   18.3034   20.1384   25.6415 C   0  0  0  0  0  0  0  0  0  0  0  0
   18.4587   20.5024   26.6646 H   0  0  0  0  0  0  0  0  0  0  0  0
   17.5675   19.3254   25.6759 H   0  0  0  0  0  0  0  0  0  0  0  0
   17.8752   20.9624   25.0572 H   0  0  0  0  0  0  0  0  0  0  0  0
   20.2546   18.5969   25.8839 N   0  3  0  0  0  0  0  0  0  0  0  0
   20.4079   18.9287   26.8404 H   0  0  0  0  0  0  0  0  0  0  0  0
   19.6598   17.7660   25.9397 H   0  0  0  0  0  0  0  0  0  0  0  0
   21.1621   18.3024   25.5138 H   0  0  0  0  0  0  0  0  0  0  0  0
  1  2  1  0  0  0  0
  1  3  1  0  0  0  0
  1  4  1  0  0  0  0
  1  5  1  0  0  0  0
  5  6  1  0  0  0  0
  5  7  1  0  0  0  0
  5  8  1  0  0  0  0
  8  9  1  0  0  0  0
  8 10  1  0  0  0  0
  8 11  1  0  0  0  0
 11 12  1  0  0  0  0
 11 13  1  0  0  0  0
 11 14  1  0  0  0  0
 14 15  1  0  0  0  0
 14 16  1  0  0  0  0
 14 17  1  0  0  0  0
 17 18  1  0  0  0  0
 17 19  1  0  0  0  0
 19 20  1  0  0  0  0
 19 21  1  0  0  0  0
 19 22  1  0  0  0  0
 17 23  1  0  0  0  0
 23 24  1  0  0  0  0
 23 25  1  0  0  0  0
 23 26  1  0  0  0  0
M  END
> <VM2 Rank>
8

> <Conf_Id>
1219

> <Probability>
4.38

> <Sum Probability>
59.17

> <Delta G>
0.809

> <G>
24.519

> <E>
-8.104

> <-TS>
32.622

> <U+W>
-29.565

> <U>
24.282

> <W>
-53.847

> <W(PB)>
-56.207

> <W(SA)>
2.360

> <Valence>
3.311

> <Coulomb>
19.887

> <VdW>
1.083

> <VdW6>
-7.444

> <VdW12>
8.528

> <Bond>
0.218

> <Angle>
1.167

> <Pdih>
1.925

> <Idih>
0.000

> <Tether>
0.000

$$$$
