VeraChem MOL file


 20 19  0  0  0  0  0  0  0  0999 V2000     
   19.7358   18.9390   25.6479 N   0  3  0  0  0  0  0  0  0  0  0  0
   19.5332   17.9360   25.7059 H   0  0  0  0  0  0  0  0  0  0  0  0
   20.2632   19.1850   26.4922 H   0  0  0  0  0  0  0  0  0  0  0  0
   18.8387   19.4313   25.7041 H   0  0  0  0  0  0  0  0  0  0  0  0
   20.4972   19.2912   24.3858 C   0  0  0  0  0  0  0  0  0  0  0  0
   21.4511   18.7572   24.4070 H   0  0  0  0  0  0  0  0  0  0  0  0
   20.7044   20.3647   24.4051 H   0  0  0  0  0  0  0  0  0  0  0  0
   19.7326   18.9345   23.0985 C   0  0  0  0  0  0  0  0  0  0  0  0
   19.5126   17.8585   23.0910 H   0  0  0  0  0  0  0  0  0  0  0  0
   18.7686   19.4605   23.0890 H   0  0  0  0  0  0  0  0  0  0  0  0
   20.5421   19.3090   21.8371 C   0  0  0  0  0  0  0  0  0  0  0  0
   21.5080   18.7850   21.8525 H   0  0  0  0  0  0  0  0  0  0  0  0
   20.7648   20.3851   21.8505 H   0  0  0  0  0  0  0  0  0  0  0  0
   19.7839   18.9552   20.5381 C   0  0  0  0  0  0  0  0  0  0  0  0
   19.5610   17.8790   20.5196 H   0  0  0  0  0  0  0  0  0  0  0  0
   18.8178   19.4789   20.5177 H   0  0  0  0  0  0  0  0  0  0  0  0
   20.5964   19.3311   19.2806 C   0  0  0  0  0  0  0  0  0  0  0  0
   20.0421   19.0724   18.3691 H   0  0  0  0  0  0  0  0  0  0  0  0
   20.8056   20.4085   19.2529 H   0  0  0  0  0  0  0  0  0  0  0  0
   21.5547   18.7961   19.2549 H   0  0  0  0  0  0  0  0  0  0  0  0
  1  2  1  0  0  0  0
  1  3  1  0  0  0  0
  1  4  1  0  0  0  0
  1  5  1  0  0  0  0
  5  6  1  0  0  0  0
  5  7  1  0  0  0  0
  5  8  1  0  0  0  0
  8  9  1  0  0  0  0
  8 10  1  0  0  0  0
  8 11  1  0  0  0  0
 11 12  1  0  0  0  0
 11 13  1  0  0  0  0
 11 14  1  0  0  0  0
 14 15  1  0  0  0  0
 14 16  1  0  0  0  0
 14 17  1  0  0  0  0
 17 18  1  0  0  0  0
 17 19  1  0  0  0  0
 17 20  1  0  0  0  0
M  END
> <VM2 Rank>
1

> <Conf_Id>
167

> <Probability>
18.27

> <Sum Probability>
18.27

> <Delta G>
0.000

> <G>
27.007

> <E>
4.319

> <-TS>
22.689

> <U+W>
-11.778

> <U>
45.772

> <W>
-57.550

> <W(PB)>
-59.511

> <W(SA)>
1.961

> <Valence>
1.299

> <Coulomb>
44.177

> <VdW>
0.297

> <VdW6>
-3.490

> <VdW12>
3.786

> <Bond>
0.096

> <Angle>
0.381

> <Pdih>
0.822

> <Idih>
0.000

> <Tether>
0.000

$$$$
