VeraChem MOL file


 29 28  0  0  0  0  0  0  0  0999 V2000     
   19.5306   19.9313   18.7439 C   0  0  0  0  0  0  0  0  0  0  0  0
   18.5906   20.4924   18.8259 H   0  0  0  0  0  0  0  0  0  0  0  0
   20.3585   20.6521   18.7241 H   0  0  0  0  0  0  0  0  0  0  0  0
   19.5233   19.3998   17.7835 H   0  0  0  0  0  0  0  0  0  0  0  0
   19.6877   18.9385   19.9150 C   0  0  0  0  0  0  0  0  0  0  0  0
   20.6190   18.3690   19.7877 H   0  0  0  0  0  0  0  0  0  0  0  0
   18.8647   18.2106   19.8887 H   0  0  0  0  0  0  0  0  0  0  0  0
   19.7011   19.6615   21.2799 C   0  0  0  0  0  0  0  0  0  0  0  0
   20.5238   20.3896   21.3006 H   0  0  0  0  0  0  0  0  0  0  0  0
   18.7693   20.2311   21.4015 H   0  0  0  0  0  0  0  0  0  0  0  0
   19.8584   18.6704   22.4551 C   0  0  0  0  0  0  0  0  0  0  0  0
   20.7898   18.1006   22.3314 H   0  0  0  0  0  0  0  0  0  0  0  0
   19.0351   17.9429   22.4339 H   0  0  0  0  0  0  0  0  0  0  0  0
   19.8724   19.3942   23.8204 C   0  0  0  0  0  0  0  0  0  0  0  0
   20.6981   20.1191   23.8421 H   0  0  0  0  0  0  0  0  0  0  0  0
   18.9418   19.9661   23.9337 H   0  0  0  0  0  0  0  0  0  0  0  0
   20.0289   18.3990   24.9958 C   0  0  0  0  0  0  0  0  0  0  0  0
   20.9354   17.8002   24.8354 H   0  0  0  0  0  0  0  0  0  0  0  0
   19.1855   17.6957   25.0018 H   0  0  0  0  0  0  0  0  0  0  0  0
   20.1314   19.0989   26.3682 C   0  0  2  0  0  0  0  0  0  0  0  0
   20.9619   19.8105   26.3292 H   0  0  0  0  0  0  0  0  0  0  0  0
   20.4280   18.0708   27.4716 C   0  0  0  0  0  0  0  0  0  0  0  0
   20.5383   18.5660   28.4442 H   0  0  0  0  0  0  0  0  0  0  0  0
   19.6207   17.3322   27.5534 H   0  0  0  0  0  0  0  0  0  0  0  0
   21.3622   17.5344   27.2636 H   0  0  0  0  0  0  0  0  0  0  0  0
   18.8975   19.8912   26.7041 N   0  3  0  0  0  0  0  0  0  0  0  0
   18.9910   20.3639   27.6077 H   0  0  0  0  0  0  0  0  0  0  0  0
   18.0710   19.2898   26.7565 H   0  0  0  0  0  0  0  0  0  0  0  0
   18.7121   20.6104   25.9999 H   0  0  0  0  0  0  0  0  0  0  0  0
  1  2  1  0  0  0  0
  1  3  1  0  0  0  0
  1  4  1  0  0  0  0
  1  5  1  0  0  0  0
  5  6  1  0  0  0  0
  5  7  1  0  0  0  0
  5  8  1  0  0  0  0
  8  9  1  0  0  0  0
  8 10  1  0  0  0  0
  8 11  1  0  0  0  0
 11 12  1  0  0  0  0
 11 13  1  0  0  0  0
 11 14  1  0  0  0  0
 14 15  1  0  0  0  0
 14 16  1  0  0  0  0
 14 17  1  0  0  0  0
 17 18  1  0  0  0  0
 17 19  1  0  0  0  0
 17 20  1  0  0  0  0
 20 21  1  0  0  0  0
 20 22  1  0  0  0  0
 22 23  1  0  0  0  0
 22 24  1  0  0  0  0
 22 25  1  0  0  0  0
 20 26  1  0  0  0  0
 26 27  1  0  0  0  0
 26 28  1  0  0  0  0
 26 29  1  0  0  0  0
M  END
> <VM2 Rank>
1

> <Conf_Id>
1424

> <Probability>
10.38

> <Sum Probability>
10.38

> <Delta G>
0.000

> <G>
33.702

> <E>
-3.682

> <-TS>
37.384

> <U+W>
-27.827

> <U>
23.963

> <W>
-51.788

> <W(PB)>
-54.341

> <W(SA)>
2.554

> <Valence>
3.166

> <Coulomb>
19.734

> <VdW>
1.062

> <VdW6>
-7.938

> <VdW12>
9.001

> <Bond>
0.188

> <Angle>
0.880

> <Pdih>
2.098

> <Idih>
0.000

> <Tether>
0.000

$$$$
VeraChem MOL file


 29 28  0  0  0  0  0  0  0  0999 V2000     
   19.0308   19.3524   18.8498 C   0  0  0  0  0  0  0  0  0  0  0  0
   18.5002   18.3915   18.8267 H   0  0  0  0  0  0  0  0  0  0  0  0
   18.2859   20.1519   18.9554 H   0  0  0  0  0  0  0  0  0  0  0  0
   19.5319   19.4841   17.8820 H   0  0  0  0  0  0  0  0  0  0  0  0
   20.0550   19.3927   20.0036 C   0  0  0  0  0  0  0  0  0  0  0  0
   20.5928   20.3509   19.9804 H   0  0  0  0  0  0  0  0  0  0  0  0
   20.8054   18.6041   19.8528 H   0  0  0  0  0  0  0  0  0  0  0  0
   19.3751   19.2095   21.3784 C   0  0  0  0  0  0  0  0  0  0  0  0
   18.6244   19.9986   21.5237 H   0  0  0  0  0  0  0  0  0  0  0  0
   18.8369   18.2516   21.3960 H   0  0  0  0  0  0  0  0  0  0  0  0
   20.3977   19.2492   22.5364 C   0  0  0  0  0  0  0  0  0  0  0  0
   20.9355   20.2072   22.5174 H   0  0  0  0  0  0  0  0  0  0  0  0
   21.1481   18.4600   22.3898 H   0  0  0  0  0  0  0  0  0  0  0  0
   19.7173   19.0656   23.9118 C   0  0  0  0  0  0  0  0  0  0  0  0
   18.9679   19.8559   24.0512 H   0  0  0  0  0  0  0  0  0  0  0  0
   19.1790   18.1087   23.9191 H   0  0  0  0  0  0  0  0  0  0  0  0
   20.7490   19.1031   25.0691 C   0  0  0  0  0  0  0  0  0  0  0  0
   21.3131   20.0437   25.0188 H   0  0  0  0  0  0  0  0  0  0  0  0
   21.4854   18.3014   24.9249 H   0  0  0  0  0  0  0  0  0  0  0  0
   20.1434   18.9722   26.4866 C   0  0  2  0  0  0  0  0  0  0  0  0
   20.9694   19.0447   27.2010 H   0  0  0  0  0  0  0  0  0  0  0  0
   19.4612   17.6099   26.7012 C   0  0  0  0  0  0  0  0  0  0  0  0
   19.1633   17.4914   27.7502 H   0  0  0  0  0  0  0  0  0  0  0  0
   18.5611   17.5051   26.0840 H   0  0  0  0  0  0  0  0  0  0  0  0
   20.1452   16.7882   26.4550 H   0  0  0  0  0  0  0  0  0  0  0  0
   19.2067   20.1014   26.8170 N   0  3  0  0  0  0  0  0  0  0  0  0
   19.6665   21.0113   26.7197 H   0  0  0  0  0  0  0  0  0  0  0  0
   18.8633   20.0332   27.7793 H   0  0  0  0  0  0  0  0  0  0  0  0
   18.3913   20.1001   26.1991 H   0  0  0  0  0  0  0  0  0  0  0  0
  1  2  1  0  0  0  0
  1  3  1  0  0  0  0
  1  4  1  0  0  0  0
  1  5  1  0  0  0  0
  5  6  1  0  0  0  0
  5  7  1  0  0  0  0
  5  8  1  0  0  0  0
  8  9  1  0  0  0  0
  8 10  1  0  0  0  0
  8 11  1  0  0  0  0
 11 12  1  0  0  0  0
 11 13  1  0  0  0  0
 11 14  1  0  0  0  0
 14 15  1  0  0  0  0
 14 16  1  0  0  0  0
 14 17  1  0  0  0  0
 17 18  1  0  0  0  0
 17 19  1  0  0  0  0
 17 20  1  0  0  0  0
 20 21  1  0  0  0  0
 20 22  1  0  0  0  0
 22 23  1  0  0  0  0
 22 24  1  0  0  0  0
 22 25  1  0  0  0  0
 20 26  1  0  0  0  0
 26 27  1  0  0  0  0
 26 28  1  0  0  0  0
 26 29  1  0  0  0  0
M  END
> <VM2 Rank>
2

> <Conf_Id>
1448

> <Probability>
5.09

> <Sum Probability>
15.47

> <Delta G>
0.425

> <G>
34.127

> <E>
-3.403

> <-TS>
37.530

> <U+W>
-27.548

> <U>
24.513

> <W>
-52.061

> <W(PB)>
-54.558

> <W(SA)>
2.497

> <Valence>
3.678

> <Coulomb>
19.662

> <VdW>
1.174

> <VdW6>
-8.569

> <VdW12>
9.743

> <Bond>
0.224

> <Angle>
1.211

> <Pdih>
2.243

> <Idih>
0.000

> <Tether>
0.000

$$$$
VeraChem MOL file


 29 28  0  0  0  0  0  0  0  0999 V2000     
   20.2031   19.4673   18.6904 C   0  0  0  0  0  0  0  0  0  0  0  0
   20.5985   20.4914   18.7045 H   0  0  0  0  0  0  0  0  0  0  0  0
   21.0525   18.7733   18.6438 H   0  0  0  0  0  0  0  0  0  0  0  0
   19.6169   19.3449   17.7704 H   0  0  0  0  0  0  0  0  0  0  0  0
   19.3302   19.1928   19.9333 C   0  0  0  0  0  0  0  0  0  0  0  0
   18.9221   18.1741   19.8744 H   0  0  0  0  0  0  0  0  0  0  0  0
   18.4716   19.8789   19.9345 H   0  0  0  0  0  0  0  0  0  0  0  0
   20.1320   19.3585   21.2431 C   0  0  0  0  0  0  0  0  0  0  0  0
   20.9904   18.6726   21.2360 H   0  0  0  0  0  0  0  0  0  0  0  0
   20.5398   20.3775   21.2964 H   0  0  0  0  0  0  0  0  0  0  0  0
   19.2613   19.0843   22.4899 C   0  0  0  0  0  0  0  0  0  0  0  0
   18.8541   18.0651   22.4360 H   0  0  0  0  0  0  0  0  0  0  0  0
   18.4027   19.7701   22.4947 H   0  0  0  0  0  0  0  0  0  0  0  0
   20.0638   19.2507   23.8002 C   0  0  0  0  0  0  0  0  0  0  0  0
   20.9233   18.5679   23.7813 H   0  0  0  0  0  0  0  0  0  0  0  0
   20.4666   20.2716   23.8563 H   0  0  0  0  0  0  0  0  0  0  0  0
   19.1902   18.9709   25.0478 C   0  0  0  0  0  0  0  0  0  0  0  0
   18.8392   17.9305   25.0284 H   0  0  0  0  0  0  0  0  0  0  0  0
   18.2937   19.6028   24.9953 H   0  0  0  0  0  0  0  0  0  0  0  0
   19.9086   19.2524   26.3872 C   0  0  2  0  0  0  0  0  0  0  0  0
   20.2851   20.2797   26.3655 H   0  0  0  0  0  0  0  0  0  0  0  0
   21.0972   18.3024   26.6195 C   0  0  0  0  0  0  0  0  0  0  0  0
   20.7789   17.2530   26.5862 H   0  0  0  0  0  0  0  0  0  0  0  0
   21.8787   18.4491   25.8651 H   0  0  0  0  0  0  0  0  0  0  0  0
   21.5542   18.4881   27.5993 H   0  0  0  0  0  0  0  0  0  0  0  0
   18.9496   19.1767   27.5426 N   0  3  0  0  0  0  0  0  0  0  0  0
   19.4123   19.4013   28.4281 H   0  0  0  0  0  0  0  0  0  0  0  0
   18.5499   18.2390   27.6361 H   0  0  0  0  0  0  0  0  0  0  0  0
   18.1715   19.8332   27.4306 H   0  0  0  0  0  0  0  0  0  0  0  0
  1  2  1  0  0  0  0
  1  3  1  0  0  0  0
  1  4  1  0  0  0  0
  1  5  1  0  0  0  0
  5  6  1  0  0  0  0
  5  7  1  0  0  0  0
  5  8  1  0  0  0  0
  8  9  1  0  0  0  0
  8 10  1  0  0  0  0
  8 11  1  0  0  0  0
 11 12  1  0  0  0  0
 11 13  1  0  0  0  0
 11 14  1  0  0  0  0
 14 15  1  0  0  0  0
 14 16  1  0  0  0  0
 14 17  1  0  0  0  0
 17 18  1  0  0  0  0
 17 19  1  0  0  0  0
 17 20  1  0  0  0  0
 20 21  1  0  0  0  0
 20 22  1  0  0  0  0
 22 23  1  0  0  0  0
 22 24  1  0  0  0  0
 22 25  1  0  0  0  0
 20 26  1  0  0  0  0
 26 27  1  0  0  0  0
 26 28  1  0  0  0  0
 26 29  1  0  0  0  0
M  END
> <VM2 Rank>
3

> <Conf_Id>
58

> <Probability>
5.07

> <Sum Probability>
20.55

> <Delta G>
0.427

> <G>
34.129

> <E>
-3.270

> <-TS>
37.399

> <U+W>
-27.414

> <U>
24.279

> <W>
-51.694

> <W(PB)>
-54.271

> <W(SA)>
2.577

> <Valence>
3.709

> <Coulomb>
19.380

> <VdW>
1.191

> <VdW6>
-8.093

> <VdW12>
9.284

> <Bond>
0.200

> <Angle>
1.161

> <Pdih>
2.348

> <Idih>
0.000

> <Tether>
0.000

$$$$
VeraChem MOL file


 29 28  0  0  0  0  0  0  0  0999 V2000     
   18.8287   18.7944   19.4037 C   0  0  0  0  0  0  0  0  0  0  0  0
   18.6829   17.8743   19.9832 H   0  0  0  0  0  0  0  0  0  0  0  0
   17.9439   19.4301   19.5381 H   0  0  0  0  0  0  0  0  0  0  0  0
   18.8816   18.5120   18.3443 H   0  0  0  0  0  0  0  0  0  0  0  0
   20.1157   19.5361   19.8305 C   0  0  0  0  0  0  0  0  0  0  0  0
   20.2825   20.3785   19.1448 H   0  0  0  0  0  0  0  0  0  0  0  0
   20.9819   18.8696   19.7152 H   0  0  0  0  0  0  0  0  0  0  0  0
   20.0615   20.0783   21.2791 C   0  0  0  0  0  0  0  0  0  0  0  0
   20.9617   20.6821   21.4591 H   0  0  0  0  0  0  0  0  0  0  0  0
   19.2060   20.7597   21.3837 H   0  0  0  0  0  0  0  0  0  0  0  0
   19.9770   18.9655   22.3510 C   0  0  0  0  0  0  0  0  0  0  0  0
   20.8047   18.2569   22.2094 H   0  0  0  0  0  0  0  0  0  0  0  0
   19.0455   18.3976   22.2275 H   0  0  0  0  0  0  0  0  0  0  0  0
   20.0307   19.5438   23.7832 C   0  0  0  0  0  0  0  0  0  0  0  0
   20.9657   20.1056   23.9168 H   0  0  0  0  0  0  0  0  0  0  0  0
   19.2069   20.2582   23.9131 H   0  0  0  0  0  0  0  0  0  0  0  0
   19.9408   18.4306   24.8552 C   0  0  0  0  0  0  0  0  0  0  0  0
   20.7388   17.6982   24.6739 H   0  0  0  0  0  0  0  0  0  0  0  0
   18.9902   17.8906   24.7512 H   0  0  0  0  0  0  0  0  0  0  0  0
   20.0775   18.9690   26.2957 C   0  0  2  0  0  0  0  0  0  0  0  0
   21.0191   19.5222   26.3673 H   0  0  0  0  0  0  0  0  0  0  0  0
   20.1237   17.8056   27.2990 C   0  0  0  0  0  0  0  0  0  0  0  0
   20.2576   18.1796   28.3215 H   0  0  0  0  0  0  0  0  0  0  0  0
   19.1976   17.2179   27.2683 H   0  0  0  0  0  0  0  0  0  0  0  0
   20.9623   17.1335   27.0782 H   0  0  0  0  0  0  0  0  0  0  0  0
   18.9804   19.9329   26.6567 N   0  3  0  0  0  0  0  0  0  0  0  0
   18.9655   20.7364   26.0228 H   0  0  0  0  0  0  0  0  0  0  0  0
   19.0981   20.2946   27.6074 H   0  0  0  0  0  0  0  0  0  0  0  0
   18.0609   19.4857   26.6102 H   0  0  0  0  0  0  0  0  0  0  0  0
  1  2  1  0  0  0  0
  1  3  1  0  0  0  0
  1  4  1  0  0  0  0
  1  5  1  0  0  0  0
  5  6  1  0  0  0  0
  5  7  1  0  0  0  0
  5  8  1  0  0  0  0
  8  9  1  0  0  0  0
  8 10  1  0  0  0  0
  8 11  1  0  0  0  0
 11 12  1  0  0  0  0
 11 13  1  0  0  0  0
 11 14  1  0  0  0  0
 14 15  1  0  0  0  0
 14 16  1  0  0  0  0
 14 17  1  0  0  0  0
 17 18  1  0  0  0  0
 17 19  1  0  0  0  0
 17 20  1  0  0  0  0
 20 21  1  0  0  0  0
 20 22  1  0  0  0  0
 22 23  1  0  0  0  0
 22 24  1  0  0  0  0
 22 25  1  0  0  0  0
 20 26  1  0  0  0  0
 26 27  1  0  0  0  0
 26 28  1  0  0  0  0
 26 29  1  0  0  0  0
M  END
> <VM2 Rank>
4

> <Conf_Id>
1236

> <Probability>
3.90

> <Sum Probability>
24.45

> <Delta G>
0.583

> <G>
34.285

> <E>
-3.210

> <-TS>
37.496

> <U+W>
-27.355

> <U>
24.589

> <W>
-51.944

> <W(PB)>
-54.479

> <W(SA)>
2.535

> <Valence>
3.670

> <Coulomb>
19.723

> <VdW>
1.196

> <VdW6>
-8.561

> <VdW12>
9.756

> <Bond>
0.223

> <Angle>
1.119

> <Pdih>
2.329

> <Idih>
0.000

> <Tether>
0.000

$$$$
VeraChem MOL file


 29 28  0  0  0  0  0  0  0  0999 V2000     
   20.4858   18.8972   19.3013 C   0  0  0  0  0  0  0  0  0  0  0  0
   20.3543   18.5904   18.2556 H   0  0  0  0  0  0  0  0  0  0  0  0
   21.2785   19.6559   19.3315 H   0  0  0  0  0  0  0  0  0  0  0  0
   20.8285   18.0187   19.8619 H   0  0  0  0  0  0  0  0  0  0  0  0
   19.1618   19.4539   19.8720 C   0  0  0  0  0  0  0  0  0  0  0  0
   18.3941   18.6676   19.8590 H   0  0  0  0  0  0  0  0  0  0  0  0
   18.7974   20.2504   19.2082 H   0  0  0  0  0  0  0  0  0  0  0  0
   19.3011   20.0257   21.3035 C   0  0  0  0  0  0  0  0  0  0  0  0
   20.0550   20.8249   21.3073 H   0  0  0  0  0  0  0  0  0  0  0  0
   18.3492   20.4972   21.5844 H   0  0  0  0  0  0  0  0  0  0  0  0
   19.6675   18.9572   22.3612 C   0  0  0  0  0  0  0  0  0  0  0  0
   20.6507   18.5262   22.1311 H   0  0  0  0  0  0  0  0  0  0  0  0
   18.9401   18.1348   22.3190 H   0  0  0  0  0  0  0  0  0  0  0  0
   19.6950   19.5492   23.7885 C   0  0  0  0  0  0  0  0  0  0  0  0
   20.4227   20.3717   23.8293 H   0  0  0  0  0  0  0  0  0  0  0  0
   18.7116   19.9805   24.0183 H   0  0  0  0  0  0  0  0  0  0  0  0
   20.0643   18.4806   24.8459 C   0  0  0  0  0  0  0  0  0  0  0  0
   21.0239   18.0240   24.5688 H   0  0  0  0  0  0  0  0  0  0  0  0
   19.3188   17.6743   24.8353 H   0  0  0  0  0  0  0  0  0  0  0  0
   20.1827   19.0600   26.2721 C   0  0  2  0  0  0  0  0  0  0  0  0
   20.9119   19.8757   26.2516 H   0  0  0  0  0  0  0  0  0  0  0  0
   20.6894   17.9840   27.2457 C   0  0  0  0  0  0  0  0  0  0  0  0
   19.9898   17.1408   27.3046 H   0  0  0  0  0  0  0  0  0  0  0  0
   21.6649   17.5970   26.9258 H   0  0  0  0  0  0  0  0  0  0  0  0
   20.8106   18.3988   28.2540 H   0  0  0  0  0  0  0  0  0  0  0  0
   18.8885   19.6482   26.7638 N   0  3  0  0  0  0  0  0  0  0  0  0
   18.9906   20.0449   27.7024 H   0  0  0  0  0  0  0  0  0  0  0  0
   18.1504   18.9406   26.8085 H   0  0  0  0  0  0  0  0  0  0  0  0
   18.5610   20.3977   26.1484 H   0  0  0  0  0  0  0  0  0  0  0  0
  1  2  1  0  0  0  0
  1  3  1  0  0  0  0
  1  4  1  0  0  0  0
  1  5  1  0  0  0  0
  5  6  1  0  0  0  0
  5  7  1  0  0  0  0
  5  8  1  0  0  0  0
  8  9  1  0  0  0  0
  8 10  1  0  0  0  0
  8 11  1  0  0  0  0
 11 12  1  0  0  0  0
 11 13  1  0  0  0  0
 11 14  1  0  0  0  0
 14 15  1  0  0  0  0
 14 16  1  0  0  0  0
 14 17  1  0  0  0  0
 17 18  1  0  0  0  0
 17 19  1  0  0  0  0
 17 20  1  0  0  0  0
 20 21  1  0  0  0  0
 20 22  1  0  0  0  0
 22 23  1  0  0  0  0
 22 24  1  0  0  0  0
 22 25  1  0  0  0  0
 20 26  1  0  0  0  0
 26 27  1  0  0  0  0
 26 28  1  0  0  0  0
 26 29  1  0  0  0  0
M  END
> <VM2 Rank>
5

> <Conf_Id>
231

> <Probability>
3.80

> <Sum Probability>
28.25

> <Delta G>
0.599

> <G>
34.301

> <E>
-3.195

> <-TS>
37.495

> <U+W>
-27.339

> <U>
24.573

> <W>
-51.912

> <W(PB)>
-54.449

> <W(SA)>
2.537

> <Valence>
3.669

> <Coulomb>
19.705

> <VdW>
1.199

> <VdW6>
-8.560

> <VdW12>
9.759

> <Bond>
0.223

> <Angle>
1.119

> <Pdih>
2.327

> <Idih>
0.000

> <Tether>
0.000

$$$$
VeraChem MOL file


 29 28  0  0  0  0  0  0  0  0999 V2000     
   20.6751   18.9878   19.1354 C   0  0  0  0  0  0  0  0  0  0  0  0
   21.2760   18.1144   19.4208 H   0  0  0  0  0  0  0  0  0  0  0  0
   20.3358   18.8402   18.1019 H   0  0  0  0  0  0  0  0  0  0  0  0
   21.3261   19.8716   19.1535 H   0  0  0  0  0  0  0  0  0  0  0  0
   19.4708   19.1666   20.0839 C   0  0  0  0  0  0  0  0  0  0  0  0
   18.8214   18.2822   20.0196 H   0  0  0  0  0  0  0  0  0  0  0  0
   18.8707   20.0256   19.7525 H   0  0  0  0  0  0  0  0  0  0  0  0
   19.9210   19.3772   21.5465 C   0  0  0  0  0  0  0  0  0  0  0  0
   20.5269   18.5174   21.8604 H   0  0  0  0  0  0  0  0  0  0  0  0
   20.5677   20.2635   21.6059 H   0  0  0  0  0  0  0  0  0  0  0  0
   18.7136   19.5521   22.4989 C   0  0  0  0  0  0  0  0  0  0  0  0
   18.0965   18.6431   22.4865 H   0  0  0  0  0  0  0  0  0  0  0  0
   18.0758   20.3625   22.1197 H   0  0  0  0  0  0  0  0  0  0  0  0
   19.1142   19.8878   23.9567 C   0  0  0  0  0  0  0  0  0  0  0  0
   19.7292   20.7984   23.9681 H   0  0  0  0  0  0  0  0  0  0  0  0
   18.1984   20.1264   24.5131 H   0  0  0  0  0  0  0  0  0  0  0  0
   19.8699   18.7380   24.6716 C   0  0  0  0  0  0  0  0  0  0  0  0
   20.7968   18.5194   24.1273 H   0  0  0  0  0  0  0  0  0  0  0  0
   19.2649   17.8219   24.6440 H   0  0  0  0  0  0  0  0  0  0  0  0
   20.2342   19.0751   26.1339 C   0  0  2  0  0  0  0  0  0  0  0  0
   20.8046   20.0091   26.1387 H   0  0  0  0  0  0  0  0  0  0  0  0
   21.1161   17.9681   26.7335 C   0  0  0  0  0  0  0  0  0  0  0  0
   21.4077   18.2179   27.7611 H   0  0  0  0  0  0  0  0  0  0  0  0
   20.5882   17.0064   26.7520 H   0  0  0  0  0  0  0  0  0  0  0  0
   22.0356   17.8420   26.1484 H   0  0  0  0  0  0  0  0  0  0  0  0
   19.0210   19.3033   26.9936 N   0  3  0  0  0  0  0  0  0  0  0  0
   18.4311   18.4680   27.0354 H   0  0  0  0  0  0  0  0  0  0  0  0
   18.4461   20.0697   26.6335 H   0  0  0  0  0  0  0  0  0  0  0  0
   19.2830   19.5424   27.9543 H   0  0  0  0  0  0  0  0  0  0  0  0
  1  2  1  0  0  0  0
  1  3  1  0  0  0  0
  1  4  1  0  0  0  0
  1  5  1  0  0  0  0
  5  6  1  0  0  0  0
  5  7  1  0  0  0  0
  5  8  1  0  0  0  0
  8  9  1  0  0  0  0
  8 10  1  0  0  0  0
  8 11  1  0  0  0  0
 11 12  1  0  0  0  0
 11 13  1  0  0  0  0
 11 14  1  0  0  0  0
 14 15  1  0  0  0  0
 14 16  1  0  0  0  0
 14 17  1  0  0  0  0
 17 18  1  0  0  0  0
 17 19  1  0  0  0  0
 17 20  1  0  0  0  0
 20 21  1  0  0  0  0
 20 22  1  0  0  0  0
 22 23  1  0  0  0  0
 22 24  1  0  0  0  0
 22 25  1  0  0  0  0
 20 26  1  0  0  0  0
 26 27  1  0  0  0  0
 26 28  1  0  0  0  0
 26 29  1  0  0  0  0
M  END
> <VM2 Rank>
6

> <Conf_Id>
625

> <Probability>
3.49

> <Sum Probability>
31.74

> <Delta G>
0.650

> <G>
34.353

> <E>
-3.103

> <-TS>
37.456

> <U+W>
-27.248

> <U>
24.710

> <W>
-51.958

> <W(PB)>
-54.511

> <W(SA)>
2.553

> <Valence>
3.735

> <Coulomb>
19.760

> <VdW>
1.216

> <VdW6>
-8.624

> <VdW12>
9.840

> <Bond>
0.236

> <Angle>
1.168

> <Pdih>
2.331

> <Idih>
0.000

> <Tether>
0.000

$$$$
VeraChem MOL file


 29 28  0  0  0  0  0  0  0  0999 V2000     
   19.7045   20.0255   19.0213 C   0  0  0  0  0  0  0  0  0  0  0  0
   20.4611   20.3915   18.3152 H   0  0  0  0  0  0  0  0  0  0  0  0
   19.2424   19.1299   18.5858 H   0  0  0  0  0  0  0  0  0  0  0  0
   18.9303   20.7980   19.1164 H   0  0  0  0  0  0  0  0  0  0  0  0
   20.3440   19.7098   20.3900 C   0  0  0  0  0  0  0  0  0  0  0  0
   20.8268   20.6150   20.7842 H   0  0  0  0  0  0  0  0  0  0  0  0
   21.1363   18.9596   20.2579 H   0  0  0  0  0  0  0  0  0  0  0  0
   19.2995   19.1921   21.4033 C   0  0  0  0  0  0  0  0  0  0  0  0
   18.5086   19.9442   21.5305 H   0  0  0  0  0  0  0  0  0  0  0  0
   18.8179   18.2890   21.0033 H   0  0  0  0  0  0  0  0  0  0  0  0
   19.9363   18.8743   22.7749 C   0  0  0  0  0  0  0  0  0  0  0  0
   20.4223   19.7790   23.1636 H   0  0  0  0  0  0  0  0  0  0  0  0
   20.7242   18.1193   22.6463 H   0  0  0  0  0  0  0  0  0  0  0  0
   18.8871   18.3578   23.7884 C   0  0  0  0  0  0  0  0  0  0  0  0
   18.1091   19.1181   23.9389 H   0  0  0  0  0  0  0  0  0  0  0  0
   18.3772   17.4827   23.3625 H   0  0  0  0  0  0  0  0  0  0  0  0
   19.5031   17.9514   25.1516 C   0  0  0  0  0  0  0  0  0  0  0  0
   20.2035   17.1214   24.9890 H   0  0  0  0  0  0  0  0  0  0  0  0
   18.7088   17.5594   25.8006 H   0  0  0  0  0  0  0  0  0  0  0  0
   20.2407   19.0964   25.8814 C   0  0  2  0  0  0  0  0  0  0  0  0
   21.0408   19.4614   25.2307 H   0  0  0  0  0  0  0  0  0  0  0  0
   20.8786   18.5794   27.1804 C   0  0  0  0  0  0  0  0  0  0  0  0
   20.1166   18.2048   27.8754 H   0  0  0  0  0  0  0  0  0  0  0  0
   21.5812   17.7630   26.9713 H   0  0  0  0  0  0  0  0  0  0  0  0
   21.4369   19.3784   27.6836 H   0  0  0  0  0  0  0  0  0  0  0  0
   19.3423   20.2693   26.1627 N   0  3  0  0  0  0  0  0  0  0  0  0
   19.8513   21.0297   26.6224 H   0  0  0  0  0  0  0  0  0  0  0  0
   18.5658   20.0053   26.7749 H   0  0  0  0  0  0  0  0  0  0  0  0
   18.9411   20.6448   25.2990 H   0  0  0  0  0  0  0  0  0  0  0  0
  1  2  1  0  0  0  0
  1  3  1  0  0  0  0
  1  4  1  0  0  0  0
  1  5  1  0  0  0  0
  5  6  1  0  0  0  0
  5  7  1  0  0  0  0
  5  8  1  0  0  0  0
  8  9  1  0  0  0  0
  8 10  1  0  0  0  0
  8 11  1  0  0  0  0
 11 12  1  0  0  0  0
 11 13  1  0  0  0  0
 11 14  1  0  0  0  0
 14 15  1  0  0  0  0
 14 16  1  0  0  0  0
 14 17  1  0  0  0  0
 17 18  1  0  0  0  0
 17 19  1  0  0  0  0
 17 20  1  0  0  0  0
 20 21  1  0  0  0  0
 20 22  1  0  0  0  0
 22 23  1  0  0  0  0
 22 24  1  0  0  0  0
 22 25  1  0  0  0  0
 20 26  1  0  0  0  0
 26 27  1  0  0  0  0
 26 28  1  0  0  0  0
 26 29  1  0  0  0  0
M  END
> <VM2 Rank>
7

> <Conf_Id>
1296

> <Probability>
3.43

> <Sum Probability>
35.17

> <Delta G>
0.661

> <G>
34.363

> <E>
-3.215

> <-TS>
37.578

> <U+W>
-27.360

> <U>
24.672

> <W>
-52.032

> <W(PB)>
-54.582

> <W(SA)>
2.550

> <Valence>
3.465

> <Coulomb>
20.280

> <VdW>
0.927

> <VdW6>
-8.843

> <VdW12>
9.770

> <Bond>
0.217

> <Angle>
1.094

> <Pdih>
2.153

> <Idih>
0.000

> <Tether>
0.000

$$$$
VeraChem MOL file


 29 28  0  0  0  0  0  0  0  0999 V2000     
   18.6221   18.9159   19.2918 C   0  0  0  0  0  0  0  0  0  0  0  0
   18.8579   18.8308   18.2231 H   0  0  0  0  0  0  0  0  0  0  0  0
   18.1683   17.9694   19.6133 H   0  0  0  0  0  0  0  0  0  0  0  0
   17.8744   19.7111   19.4098 H   0  0  0  0  0  0  0  0  0  0  0  0
   19.8949   19.2261   20.1076 C   0  0  0  0  0  0  0  0  0  0  0  0
   20.3446   20.1592   19.7402 H   0  0  0  0  0  0  0  0  0  0  0  0
   20.6358   18.4310   19.9439 H   0  0  0  0  0  0  0  0  0  0  0  0
   19.5905   19.3519   21.6168 C   0  0  0  0  0  0  0  0  0  0  0  0
   18.8512   20.1491   21.7755 H   0  0  0  0  0  0  0  0  0  0  0  0
   19.1338   18.4177   21.9686 H   0  0  0  0  0  0  0  0  0  0  0  0
   20.8669   19.6587   22.4362 C   0  0  0  0  0  0  0  0  0  0  0  0
   21.3514   20.5539   22.0223 H   0  0  0  0  0  0  0  0  0  0  0  0
   21.5875   18.8373   22.3212 H   0  0  0  0  0  0  0  0  0  0  0  0
   20.5921   19.9013   23.9406 C   0  0  0  0  0  0  0  0  0  0  0  0
   21.5303   20.2144   24.4193 H   0  0  0  0  0  0  0  0  0  0  0  0
   19.8929   20.7413   24.0482 H   0  0  0  0  0  0  0  0  0  0  0  0
   20.0435   18.6519   24.6761 C   0  0  0  0  0  0  0  0  0  0  0  0
   20.7003   17.7977   24.4642 H   0  0  0  0  0  0  0  0  0  0  0  0
   19.0505   18.3902   24.2894 H   0  0  0  0  0  0  0  0  0  0  0  0
   19.9585   18.8473   26.2051 C   0  0  2  0  0  0  0  0  0  0  0  0
   20.9523   19.1228   26.5715 H   0  0  0  0  0  0  0  0  0  0  0  0
   19.5380   17.5369   26.8893 C   0  0  0  0  0  0  0  0  0  0  0  0
   18.5423   17.2172   26.5570 H   0  0  0  0  0  0  0  0  0  0  0  0
   20.2487   16.7327   26.6616 H   0  0  0  0  0  0  0  0  0  0  0  0
   19.5118   17.6589   27.9792 H   0  0  0  0  0  0  0  0  0  0  0  0
   19.0295   19.9659   26.5905 N   0  3  0  0  0  0  0  0  0  0  0  0
   19.0020   20.0963   27.6058 H   0  0  0  0  0  0  0  0  0  0  0  0
   18.0726   19.7800   26.2789 H   0  0  0  0  0  0  0  0  0  0  0  0
   19.3226   20.8543   26.1751 H   0  0  0  0  0  0  0  0  0  0  0  0
  1  2  1  0  0  0  0
  1  3  1  0  0  0  0
  1  4  1  0  0  0  0
  1  5  1  0  0  0  0
  5  6  1  0  0  0  0
  5  7  1  0  0  0  0
  5  8  1  0  0  0  0
  8  9  1  0  0  0  0
  8 10  1  0  0  0  0
  8 11  1  0  0  0  0
 11 12  1  0  0  0  0
 11 13  1  0  0  0  0
 11 14  1  0  0  0  0
 14 15  1  0  0  0  0
 14 16  1  0  0  0  0
 14 17  1  0  0  0  0
 17 18  1  0  0  0  0
 17 19  1  0  0  0  0
 17 20  1  0  0  0  0
 20 21  1  0  0  0  0
 20 22  1  0  0  0  0
 22 23  1  0  0  0  0
 22 24  1  0  0  0  0
 22 25  1  0  0  0  0
 20 26  1  0  0  0  0
 26 27  1  0  0  0  0
 26 28  1  0  0  0  0
 26 29  1  0  0  0  0
M  END
> <VM2 Rank>
8

> <Conf_Id>
987

> <Probability>
3.41

> <Sum Probability>
38.58

> <Delta G>
0.663

> <G>
34.366

> <E>
-3.137

> <-TS>
37.503

> <U+W>
-27.282

> <U>
24.740

> <W>
-52.022

> <W(PB)>
-54.547

> <W(SA)>
2.525

> <Valence>
3.693

> <Coulomb>
19.918

> <VdW>
1.129

> <VdW6>
-8.666

> <VdW12>
9.795

> <Bond>
0.229

> <Angle>
1.104

> <Pdih>
2.361

> <Idih>
0.000

> <Tether>
0.000

$$$$
