VeraChem MOL file


 20 19  0  0  0  0  0  0  0  0999 V2000     
   20.4456   18.0661   18.7399 C   0  0  0  0  0  0  0  0  0  0  0  0
   20.5838   17.2884   19.4880 H   0  0  0  0  0  0  0  0  0  0  0  0
   20.6599   17.7975   17.7069 H   0  0  0  0  0  0  0  0  0  0  0  0
   20.0331   19.2995   19.0536 C   0  0  0  0  0  0  0  0  0  0  0  0
   19.9132   20.0361   18.2595 H   0  0  0  0  0  0  0  0  0  0  0  0
   19.6972   19.8197   20.4413 C   0  0  0  0  0  0  0  0  0  0  0  0
   18.6643   20.1927   20.4377 H   0  0  0  0  0  0  0  0  0  0  0  0
   20.3271   20.6942   20.6523 H   0  0  0  0  0  0  0  0  0  0  0  0
   19.8605   18.7897   21.5834 C   0  0  0  0  0  0  0  0  0  0  0  0
   19.2167   17.9209   21.3888 H   0  0  0  0  0  0  0  0  0  0  0  0
   20.8976   18.4278   21.6057 H   0  0  0  0  0  0  0  0  0  0  0  0
   19.5002   19.3965   22.9571 C   0  0  0  0  0  0  0  0  0  0  0  0
   18.4635   19.7606   22.9412 H   0  0  0  0  0  0  0  0  0  0  0  0
   20.1409   20.2665   23.1577 H   0  0  0  0  0  0  0  0  0  0  0  0
   19.6629   18.3671   24.1024 C   0  0  0  0  0  0  0  0  0  0  0  0
   19.0191   17.4974   23.9243 H   0  0  0  0  0  0  0  0  0  0  0  0
   20.6966   18.0031   24.1406 H   0  0  0  0  0  0  0  0  0  0  0  0
   19.3130   18.9430   25.4699 C   0  0  0  0  0  0  0  0  0  0  0  0
   20.1972   19.4750   26.1115 O   0  5  0  0  0  0  0  0  0  0  0  0
   18.1613   18.8615   25.8489 O   0  0  0  0  0  0  0  0  0  0  0  0
  1  2  1  0  0  0  0
  1  3  1  0  0  0  0
  1  4  2  0  0  0  0
  4  5  1  0  0  0  0
  4  6  1  0  0  0  0
  6  7  1  0  0  0  0
  6  8  1  0  0  0  0
  6  9  1  0  0  0  0
  9 10  1  0  0  0  0
  9 11  1  0  0  0  0
  9 12  1  0  0  0  0
 12 13  1  0  0  0  0
 12 14  1  0  0  0  0
 12 15  1  0  0  0  0
 15 16  1  0  0  0  0
 15 17  1  0  0  0  0
 15 18  1  0  0  0  0
 18 19  1  0  0  0  0
 18 20  2  0  0  0  0
M  END
> <VM2 Rank>
1

> <Conf_Id>
423

> <Probability>
13.68

> <Sum Probability>
13.68

> <Delta G>
0.000

> <G>
-21.890

> <E>
-37.139

> <-TS>
15.249

> <U+W>
-53.235

> <U>
6.572

> <W>
-59.803

> <W(PB)>
-62.038

> <W(SA)>
2.234

> <Valence>
7.989

> <Coulomb>
-2.698

> <VdW>
1.281

> <VdW6>
-6.467

> <VdW12>
7.748

> <Bond>
0.136

> <Angle>
2.854

> <Pdih>
4.998

> <Idih>
0.001

> <Tether>
0.000

$$$$
VeraChem MOL file


 20 19  0  0  0  0  0  0  0  0999 V2000     
   19.7354   18.4518   18.2413 C   0  0  0  0  0  0  0  0  0  0  0  0
   20.2194   18.0463   17.3543 H   0  0  0  0  0  0  0  0  0  0  0  0
   18.6526   18.3592   18.3077 H   0  0  0  0  0  0  0  0  0  0  0  0
   20.4463   19.0372   19.2086 C   0  0  0  0  0  0  0  0  0  0  0  0
   21.5296   19.1191   19.1229 H   0  0  0  0  0  0  0  0  0  0  0  0
   19.8446   19.6233   20.4664 C   0  0  0  0  0  0  0  0  0  0  0  0
   18.7575   19.7332   20.3525 H   0  0  0  0  0  0  0  0  0  0  0  0
   20.2484   20.6312   20.6317 H   0  0  0  0  0  0  0  0  0  0  0  0
   20.1459   18.7374   21.6932 C   0  0  0  0  0  0  0  0  0  0  0  0
   19.7435   17.7294   21.5212 H   0  0  0  0  0  0  0  0  0  0  0  0
   21.2333   18.6314   21.8095 H   0  0  0  0  0  0  0  0  0  0  0  0
   19.5410   19.3233   22.9876 C   0  0  0  0  0  0  0  0  0  0  0  0
   18.4530   19.4284   22.8737 H   0  0  0  0  0  0  0  0  0  0  0  0
   19.9424   20.3314   23.1611 H   0  0  0  0  0  0  0  0  0  0  0  0
   19.8425   18.4339   24.2189 C   0  0  0  0  0  0  0  0  0  0  0  0
   19.4362   17.4267   24.0671 H   0  0  0  0  0  0  0  0  0  0  0  0
   20.9257   18.3296   24.3547 H   0  0  0  0  0  0  0  0  0  0  0  0
   19.2549   18.9920   25.5101 C   0  0  0  0  0  0  0  0  0  0  0  0
   19.9341   19.7574   26.1654 O   0  5  0  0  0  0  0  0  0  0  0  0
   18.1264   18.6617   25.8165 O   0  0  0  0  0  0  0  0  0  0  0  0
  1  2  1  0  0  0  0
  1  3  1  0  0  0  0
  1  4  2  0  0  0  0
  4  5  1  0  0  0  0
  4  6  1  0  0  0  0
  6  7  1  0  0  0  0
  6  8  1  0  0  0  0
  6  9  1  0  0  0  0
  9 10  1  0  0  0  0
  9 11  1  0  0  0  0
  9 12  1  0  0  0  0
 12 13  1  0  0  0  0
 12 14  1  0  0  0  0
 12 15  1  0  0  0  0
 15 16  1  0  0  0  0
 15 17  1  0  0  0  0
 15 18  1  0  0  0  0
 18 19  1  0  0  0  0
 18 20  2  0  0  0  0
M  END
> <VM2 Rank>
2

> <Conf_Id>
514

> <Probability>
13.51

> <Sum Probability>
27.19

> <Delta G>
0.007

> <G>
-21.882

> <E>
-36.774

> <-TS>
14.892

> <U+W>
-52.870

> <U>
6.632

> <W>
-59.503

> <W(PB)>
-61.758

> <W(SA)>
2.255

> <Valence>
9.076

> <Coulomb>
-3.008

> <VdW>
0.564

> <VdW6>
-5.773

> <VdW12>
6.337

> <Bond>
0.084

> <Angle>
2.239

> <Pdih>
6.752

> <Idih>
0.001

> <Tether>
0.000

$$$$
VeraChem MOL file


 20 19  0  0  0  0  0  0  0  0999 V2000     
   19.8357   18.3568   18.2569 C   0  0  0  0  0  0  0  0  0  0  0  0
   19.7747   17.2937   18.4840 H   0  0  0  0  0  0  0  0  0  0  0  0
   19.5626   18.6706   17.2508 H   0  0  0  0  0  0  0  0  0  0  0  0
   20.2277   19.2448   19.1742 C   0  0  0  0  0  0  0  0  0  0  0  0
   20.2812   20.3048   18.9266 H   0  0  0  0  0  0  0  0  0  0  0  0
   20.6226   18.8840   20.5889 C   0  0  0  0  0  0  0  0  0  0  0  0
   21.5741   19.3714   20.8404 H   0  0  0  0  0  0  0  0  0  0  0  0
   20.7903   17.8015   20.6726 H   0  0  0  0  0  0  0  0  0  0  0  0
   19.5374   19.3154   21.5975 C   0  0  0  0  0  0  0  0  0  0  0  0
   19.3732   20.3987   21.5166 H   0  0  0  0  0  0  0  0  0  0  0  0
   18.5870   18.8283   21.3391 H   0  0  0  0  0  0  0  0  0  0  0  0
   19.9263   18.9570   23.0483 C   0  0  0  0  0  0  0  0  0  0  0  0
   20.8769   19.4434   23.3082 H   0  0  0  0  0  0  0  0  0  0  0  0
   20.0893   17.8734   23.1314 H   0  0  0  0  0  0  0  0  0  0  0  0
   18.8372   19.3894   24.0606 C   0  0  0  0  0  0  0  0  0  0  0  0
   18.6717   20.4717   23.9998 H   0  0  0  0  0  0  0  0  0  0  0  0
   17.8841   18.9018   23.8228 H   0  0  0  0  0  0  0  0  0  0  0  0
   19.1983   19.0457   25.5013 C   0  0  0  0  0  0  0  0  0  0  0  0
   19.8214   19.8649   26.1473 O   0  5  0  0  0  0  0  0  0  0  0  0
   18.8643   17.9600   25.9330 O   0  0  0  0  0  0  0  0  0  0  0  0
  1  2  1  0  0  0  0
  1  3  1  0  0  0  0
  1  4  2  0  0  0  0
  4  5  1  0  0  0  0
  4  6  1  0  0  0  0
  6  7  1  0  0  0  0
  6  8  1  0  0  0  0
  6  9  1  0  0  0  0
  9 10  1  0  0  0  0
  9 11  1  0  0  0  0
  9 12  1  0  0  0  0
 12 13  1  0  0  0  0
 12 14  1  0  0  0  0
 12 15  1  0  0  0  0
 15 16  1  0  0  0  0
 15 17  1  0  0  0  0
 15 18  1  0  0  0  0
 18 19  1  0  0  0  0
 18 20  2  0  0  0  0
M  END
> <VM2 Rank>
3

> <Conf_Id>
74

> <Probability>
12.21

> <Sum Probability>
39.39

> <Delta G>
0.068

> <G>
-21.822

> <E>
-36.714

> <-TS>
14.893

> <U+W>
-52.811

> <U>
6.633

> <W>
-59.443

> <W(PB)>
-61.703

> <W(SA)>
2.259

> <Valence>
9.076

> <Coulomb>
-3.007

> <VdW>
0.564

> <VdW6>
-5.773

> <VdW12>
6.337

> <Bond>
0.084

> <Angle>
2.239

> <Pdih>
6.752

> <Idih>
0.001

> <Tether>
0.000

$$$$
VeraChem MOL file


 20 19  0  0  0  0  0  0  0  0999 V2000     
   19.2311   18.4037   18.7285 C   0  0  0  0  0  0  0  0  0  0  0  0
   20.0634   17.8372   18.3140 H   0  0  0  0  0  0  0  0  0  0  0  0
   18.2507   18.2556   18.2788 H   0  0  0  0  0  0  0  0  0  0  0  0
   19.4013   19.2463   19.7506 C   0  0  0  0  0  0  0  0  0  0  0  0
   18.5550   19.8059   20.1482 H   0  0  0  0  0  0  0  0  0  0  0  0
   20.7333   19.5076   20.4208 C   0  0  0  0  0  0  0  0  0  0  0  0
   20.8634   20.5852   20.5874 H   0  0  0  0  0  0  0  0  0  0  0  0
   21.5500   19.1990   19.7542 H   0  0  0  0  0  0  0  0  0  0  0  0
   20.8757   18.7516   21.7610 C   0  0  0  0  0  0  0  0  0  0  0  0
   20.7291   17.6761   21.5905 H   0  0  0  0  0  0  0  0  0  0  0  0
   21.9036   18.8743   22.1288 H   0  0  0  0  0  0  0  0  0  0  0  0
   19.8878   19.2504   22.8405 C   0  0  0  0  0  0  0  0  0  0  0  0
   18.8540   19.0972   22.5023 H   0  0  0  0  0  0  0  0  0  0  0  0
   20.0179   20.3310   22.9911 H   0  0  0  0  0  0  0  0  0  0  0  0
   20.0917   18.5178   24.1895 C   0  0  0  0  0  0  0  0  0  0  0  0
   19.9533   17.4379   24.0582 H   0  0  0  0  0  0  0  0  0  0  0  0
   21.1145   18.6720   24.5539 H   0  0  0  0  0  0  0  0  0  0  0  0
   19.1276   18.9910   25.2714 C   0  0  0  0  0  0  0  0  0  0  0  0
   19.4623   19.9293   25.9673 O   0  5  0  0  0  0  0  0  0  0  0  0
   18.0601   18.4203   25.3783 O   0  0  0  0  0  0  0  0  0  0  0  0
  1  2  1  0  0  0  0
  1  3  1  0  0  0  0
  1  4  2  0  0  0  0
  4  5  1  0  0  0  0
  4  6  1  0  0  0  0
  6  7  1  0  0  0  0
  6  8  1  0  0  0  0
  6  9  1  0  0  0  0
  9 10  1  0  0  0  0
  9 11  1  0  0  0  0
  9 12  1  0  0  0  0
 12 13  1  0  0  0  0
 12 14  1  0  0  0  0
 12 15  1  0  0  0  0
 15 16  1  0  0  0  0
 15 17  1  0  0  0  0
 15 18  1  0  0  0  0
 18 19  1  0  0  0  0
 18 20  2  0  0  0  0
M  END
> <VM2 Rank>
4

> <Conf_Id>
692

> <Probability>
4.88

> <Sum Probability>
44.28

> <Delta G>
0.614

> <G>
-21.276

> <E>
-36.308

> <-TS>
15.032

> <U+W>
-52.404

> <U>
7.828

> <W>
-60.232

> <W(PB)>
-62.486

> <W(SA)>
2.254

> <Valence>
9.301

> <Coulomb>
-2.080

> <VdW>
0.608

> <VdW6>
-6.341

> <VdW12>
6.949

> <Bond>
0.103

> <Angle>
2.334

> <Pdih>
6.862

> <Idih>
0.001

> <Tether>
0.000

$$$$
VeraChem MOL file


 20 19  0  0  0  0  0  0  0  0999 V2000     
   21.2428   19.0104   18.9880 C   0  0  0  0  0  0  0  0  0  0  0  0
   20.9772   18.1128   18.4319 H   0  0  0  0  0  0  0  0  0  0  0  0
   22.2182   19.4519   18.7906 H   0  0  0  0  0  0  0  0  0  0  0  0
   20.4088   19.5501   19.8806 C   0  0  0  0  0  0  0  0  0  0  0  0
   20.6933   20.4506   20.4241 H   0  0  0  0  0  0  0  0  0  0  0  0
   19.0371   18.9960   20.2020 C   0  0  0  0  0  0  0  0  0  0  0  0
   18.7024   18.3403   19.3869 H   0  0  0  0  0  0  0  0  0  0  0  0
   18.3067   19.8143   20.2576 H   0  0  0  0  0  0  0  0  0  0  0  0
   19.0218   18.1925   21.5219 C   0  0  0  0  0  0  0  0  0  0  0  0
   18.0410   17.7097   21.6305 H   0  0  0  0  0  0  0  0  0  0  0  0
   19.7653   17.3854   21.4662 H   0  0  0  0  0  0  0  0  0  0  0  0
   19.2948   19.0715   22.7640 C   0  0  0  0  0  0  0  0  0  0  0  0
   18.5666   19.8934   22.8039 H   0  0  0  0  0  0  0  0  0  0  0  0
   20.2901   19.5302   22.6875 H   0  0  0  0  0  0  0  0  0  0  0  0
   19.2151   18.2535   24.0764 C   0  0  0  0  0  0  0  0  0  0  0  0
   18.2222   17.7999   24.1808 H   0  0  0  0  0  0  0  0  0  0  0  0
   19.9452   17.4355   24.0572 H   0  0  0  0  0  0  0  0  0  0  0  0
   19.4824   19.0980   25.3172 C   0  0  0  0  0  0  0  0  0  0  0  0
   20.6283   19.1943   25.7098 O   0  5  0  0  0  0  0  0  0  0  0  0
   18.5398   19.6516   25.8480 O   0  0  0  0  0  0  0  0  0  0  0  0
  1  2  1  0  0  0  0
  1  3  1  0  0  0  0
  1  4  2  0  0  0  0
  4  5  1  0  0  0  0
  4  6  1  0  0  0  0
  6  7  1  0  0  0  0
  6  8  1  0  0  0  0
  6  9  1  0  0  0  0
  9 10  1  0  0  0  0
  9 11  1  0  0  0  0
  9 12  1  0  0  0  0
 12 13  1  0  0  0  0
 12 14  1  0  0  0  0
 12 15  1  0  0  0  0
 15 16  1  0  0  0  0
 15 17  1  0  0  0  0
 15 18  1  0  0  0  0
 18 19  1  0  0  0  0
 18 20  2  0  0  0  0
M  END
> <VM2 Rank>
5

> <Conf_Id>
132

> <Probability>
4.69

> <Sum Probability>
48.97

> <Delta G>
0.638

> <G>
-21.252

> <E>
-36.284

> <-TS>
15.032

> <U+W>
-52.381

> <U>
7.828

> <W>
-60.209

> <W(PB)>
-62.451

> <W(SA)>
2.242

> <Valence>
9.300

> <Coulomb>
-2.080

> <VdW>
0.608

> <VdW6>
-6.341

> <VdW12>
6.949

> <Bond>
0.103

> <Angle>
2.334

> <Pdih>
6.862

> <Idih>
0.001

> <Tether>
0.000

$$$$
VeraChem MOL file


 20 19  0  0  0  0  0  0  0  0999 V2000     
   19.7219   18.9161   18.3063 C   0  0  0  0  0  0  0  0  0  0  0  0
   20.2157   18.8211   17.3407 H   0  0  0  0  0  0  0  0  0  0  0  0
   18.7435   19.3935   18.3238 H   0  0  0  0  0  0  0  0  0  0  0  0
   20.2984   18.4655   19.4235 C   0  0  0  0  0  0  0  0  0  0  0  0
   21.2789   17.9914   19.3844 H   0  0  0  0  0  0  0  0  0  0  0  0
   19.6742   18.5615   20.7979 C   0  0  0  0  0  0  0  0  0  0  0  0
   19.7367   17.5831   21.2907 H   0  0  0  0  0  0  0  0  0  0  0  0
   18.6069   18.8073   20.7138 H   0  0  0  0  0  0  0  0  0  0  0  0
   20.3832   19.6338   21.6555 C   0  0  0  0  0  0  0  0  0  0  0  0
   21.4373   19.3576   21.7953 H   0  0  0  0  0  0  0  0  0  0  0  0
   20.3822   20.5844   21.1045 H   0  0  0  0  0  0  0  0  0  0  0  0
   19.7173   19.8615   23.0335 C   0  0  0  0  0  0  0  0  0  0  0  0
   18.6663   20.1507   22.8948 H   0  0  0  0  0  0  0  0  0  0  0  0
   20.2100   20.7109   23.5266 H   0  0  0  0  0  0  0  0  0  0  0  0
   19.7958   18.6281   23.9702 C   0  0  0  0  0  0  0  0  0  0  0  0
   19.2357   17.7859   23.5485 H   0  0  0  0  0  0  0  0  0  0  0  0
   20.8372   18.3035   24.0824 H   0  0  0  0  0  0  0  0  0  0  0  0
   19.2353   18.9075   25.3601 C   0  0  0  0  0  0  0  0  0  0  0  0
   19.9949   19.3259   26.2114 O   0  5  0  0  0  0  0  0  0  0  0  0
   18.0500   18.7183   25.5496 O   0  0  0  0  0  0  0  0  0  0  0  0
  1  2  1  0  0  0  0
  1  3  1  0  0  0  0
  1  4  2  0  0  0  0
  4  5  1  0  0  0  0
  4  6  1  0  0  0  0
  6  7  1  0  0  0  0
  6  8  1  0  0  0  0
  6  9  1  0  0  0  0
  9 10  1  0  0  0  0
  9 11  1  0  0  0  0
  9 12  1  0  0  0  0
 12 13  1  0  0  0  0
 12 14  1  0  0  0  0
 12 15  1  0  0  0  0
 15 16  1  0  0  0  0
 15 17  1  0  0  0  0
 15 18  1  0  0  0  0
 18 19  1  0  0  0  0
 18 20  2  0  0  0  0
M  END
> <VM2 Rank>
6

> <Conf_Id>
182

> <Probability>
3.98

> <Sum Probability>
52.95

> <Delta G>
0.736

> <G>
-21.153

> <E>
-36.159

> <-TS>
15.006

> <U+W>
-52.256

> <U>
7.491

> <W>
-59.747

> <W(PB)>
-61.973

> <W(SA)>
2.226

> <Valence>
9.604

> <Coulomb>
-2.799

> <VdW>
0.686

> <VdW6>
-6.435

> <VdW12>
7.121

> <Bond>
0.124

> <Angle>
2.493

> <Pdih>
6.986

> <Idih>
0.001

> <Tether>
0.000

$$$$
VeraChem MOL file


 20 19  0  0  0  0  0  0  0  0999 V2000     
   18.6393   19.5606   19.3943 C   0  0  0  0  0  0  0  0  0  0  0  0
   18.7041   20.6147   19.6592 H   0  0  0  0  0  0  0  0  0  0  0  0
   17.7307   19.2234   18.8985 H   0  0  0  0  0  0  0  0  0  0  0  0
   19.6322   18.7104   19.6688 C   0  0  0  0  0  0  0  0  0  0  0  0
   19.5464   17.6585   19.3974 H   0  0  0  0  0  0  0  0  0  0  0  0
   20.9227   19.1046   20.3552 C   0  0  0  0  0  0  0  0  0  0  0  0
   21.0142   20.1980   20.4081 H   0  0  0  0  0  0  0  0  0  0  0  0
   21.7711   18.7517   19.7539 H   0  0  0  0  0  0  0  0  0  0  0  0
   21.0364   18.5081   21.7762 C   0  0  0  0  0  0  0  0  0  0  0  0
   20.9441   17.4146   21.7233 H   0  0  0  0  0  0  0  0  0  0  0  0
   22.0394   18.7204   22.1708 H   0  0  0  0  0  0  0  0  0  0  0  0
   19.9773   19.0767   22.7481 C   0  0  0  0  0  0  0  0  0  0  0  0
   18.9685   18.8473   22.3780 H   0  0  0  0  0  0  0  0  0  0  0  0
   20.0603   20.1716   22.7865 H   0  0  0  0  0  0  0  0  0  0  0  0
   20.1375   18.5003   24.1765 C   0  0  0  0  0  0  0  0  0  0  0  0
   20.0445   17.4079   24.1562 H   0  0  0  0  0  0  0  0  0  0  0  0
   21.1341   18.7340   24.5699 H   0  0  0  0  0  0  0  0  0  0  0  0
   19.1032   19.0462   25.1544 C   0  0  0  0  0  0  0  0  0  0  0  0
   19.3632   20.0730   25.7501 O   0  5  0  0  0  0  0  0  0  0  0  0
   18.0592   18.4381   25.2844 O   0  0  0  0  0  0  0  0  0  0  0  0
  1  2  1  0  0  0  0
  1  3  1  0  0  0  0
  1  4  2  0  0  0  0
  4  5  1  0  0  0  0
  4  6  1  0  0  0  0
  6  7  1  0  0  0  0
  6  8  1  0  0  0  0
  6  9  1  0  0  0  0
  9 10  1  0  0  0  0
  9 11  1  0  0  0  0
  9 12  1  0  0  0  0
 12 13  1  0  0  0  0
 12 14  1  0  0  0  0
 12 15  1  0  0  0  0
 15 16  1  0  0  0  0
 15 17  1  0  0  0  0
 15 18  1  0  0  0  0
 18 19  1  0  0  0  0
 18 20  2  0  0  0  0
M  END
> <VM2 Rank>
7

> <Conf_Id>
679

> <Probability>
3.88

> <Sum Probability>
56.83

> <Delta G>
0.751

> <G>
-21.139

> <E>
-36.251

> <-TS>
15.112

> <U+W>
-52.347

> <U>
8.428

> <W>
-60.775

> <W(PB)>
-62.983

> <W(SA)>
2.208

> <Valence>
9.231

> <Coulomb>
-1.304

> <VdW>
0.502

> <VdW6>
-6.515

> <VdW12>
7.017

> <Bond>
0.103

> <Angle>
2.328

> <Pdih>
6.799

> <Idih>
0.000

> <Tether>
0.000

$$$$
VeraChem MOL file


 20 19  0  0  0  0  0  0  0  0999 V2000     
   20.3965   17.5036   19.6230 C   0  0  0  0  0  0  0  0  0  0  0  0
   21.4119   17.4449   20.0114 H   0  0  0  0  0  0  0  0  0  0  0  0
   19.9724   16.5992   19.1904 H   0  0  0  0  0  0  0  0  0  0  0  0
   19.6938   18.6382   19.6769 C   0  0  0  0  0  0  0  0  0  0  0  0
   18.6778   18.6750   19.2847 H   0  0  0  0  0  0  0  0  0  0  0  0
   20.2149   19.9331   20.2631 C   0  0  0  0  0  0  0  0  0  0  0  0
   20.0721   20.7406   19.5327 H   0  0  0  0  0  0  0  0  0  0  0  0
   21.2963   19.8676   20.4448 H   0  0  0  0  0  0  0  0  0  0  0  0
   19.4934   20.3144   21.5753 C   0  0  0  0  0  0  0  0  0  0  0  0
   19.8214   21.3170   21.8820 H   0  0  0  0  0  0  0  0  0  0  0  0
   18.4118   20.3791   21.3936 H   0  0  0  0  0  0  0  0  0  0  0  0
   19.7731   19.3157   22.7216 C   0  0  0  0  0  0  0  0  0  0  0  0
   20.8562   19.2397   22.8901 H   0  0  0  0  0  0  0  0  0  0  0  0
   19.4248   18.3131   22.4375 H   0  0  0  0  0  0  0  0  0  0  0  0
   19.0781   19.7406   24.0386 C   0  0  0  0  0  0  0  0  0  0  0  0
   19.4261   20.7336   24.3475 H   0  0  0  0  0  0  0  0  0  0  0  0
   17.9938   19.8086   23.8892 H   0  0  0  0  0  0  0  0  0  0  0  0
   19.3389   18.7703   25.1851 C   0  0  0  0  0  0  0  0  0  0  0  0
   20.3231   18.9493   25.8752 O   0  5  0  0  0  0  0  0  0  0  0  0
   18.5592   17.8528   25.3492 O   0  0  0  0  0  0  0  0  0  0  0  0
  1  2  1  0  0  0  0
  1  3  1  0  0  0  0
  1  4  2  0  0  0  0
  4  5  1  0  0  0  0
  4  6  1  0  0  0  0
  6  7  1  0  0  0  0
  6  8  1  0  0  0  0
  6  9  1  0  0  0  0
  9 10  1  0  0  0  0
  9 11  1  0  0  0  0
  9 12  1  0  0  0  0
 12 13  1  0  0  0  0
 12 14  1  0  0  0  0
 12 15  1  0  0  0  0
 15 16  1  0  0  0  0
 15 17  1  0  0  0  0
 15 18  1  0  0  0  0
 18 19  1  0  0  0  0
 18 20  2  0  0  0  0
M  END
> <VM2 Rank>
8

> <Conf_Id>
541

> <Probability>
3.82

> <Sum Probability>
60.65

> <Delta G>
0.760

> <G>
-21.129

> <E>
-36.241

> <-TS>
15.112

> <U+W>
-52.338

> <U>
8.428

> <W>
-60.766

> <W(PB)>
-62.975

> <W(SA)>
2.209

> <Valence>
9.230

> <Coulomb>
-1.303

> <VdW>
0.501

> <VdW6>
-6.515

> <VdW12>
7.017

> <Bond>
0.103

> <Angle>
2.328

> <Pdih>
6.799

> <Idih>
0.000

> <Tether>
0.000

$$$$
