VeraChem MOL file


 20 19  0  0  0  0  0  0  0  0999 V2000     
   19.7358   18.9390   25.6479 N   0  3  0  0  0  0  0  0  0  0  0  0
   19.5332   17.9360   25.7059 H   0  0  0  0  0  0  0  0  0  0  0  0
   20.2632   19.1850   26.4922 H   0  0  0  0  0  0  0  0  0  0  0  0
   18.8387   19.4313   25.7041 H   0  0  0  0  0  0  0  0  0  0  0  0
   20.4972   19.2912   24.3858 C   0  0  0  0  0  0  0  0  0  0  0  0
   21.4511   18.7572   24.4070 H   0  0  0  0  0  0  0  0  0  0  0  0
   20.7044   20.3647   24.4051 H   0  0  0  0  0  0  0  0  0  0  0  0
   19.7326   18.9345   23.0985 C   0  0  0  0  0  0  0  0  0  0  0  0
   19.5126   17.8585   23.0910 H   0  0  0  0  0  0  0  0  0  0  0  0
   18.7686   19.4605   23.0890 H   0  0  0  0  0  0  0  0  0  0  0  0
   20.5421   19.3090   21.8371 C   0  0  0  0  0  0  0  0  0  0  0  0
   21.5080   18.7850   21.8525 H   0  0  0  0  0  0  0  0  0  0  0  0
   20.7648   20.3851   21.8505 H   0  0  0  0  0  0  0  0  0  0  0  0
   19.7839   18.9552   20.5381 C   0  0  0  0  0  0  0  0  0  0  0  0
   19.5610   17.8790   20.5196 H   0  0  0  0  0  0  0  0  0  0  0  0
   18.8178   19.4789   20.5177 H   0  0  0  0  0  0  0  0  0  0  0  0
   20.5964   19.3311   19.2806 C   0  0  0  0  0  0  0  0  0  0  0  0
   20.0421   19.0724   18.3691 H   0  0  0  0  0  0  0  0  0  0  0  0
   20.8056   20.4085   19.2529 H   0  0  0  0  0  0  0  0  0  0  0  0
   21.5547   18.7961   19.2549 H   0  0  0  0  0  0  0  0  0  0  0  0
  1  2  1  0  0  0  0
  1  3  1  0  0  0  0
  1  4  1  0  0  0  0
  1  5  1  0  0  0  0
  5  6  1  0  0  0  0
  5  7  1  0  0  0  0
  5  8  1  0  0  0  0
  8  9  1  0  0  0  0
  8 10  1  0  0  0  0
  8 11  1  0  0  0  0
 11 12  1  0  0  0  0
 11 13  1  0  0  0  0
 11 14  1  0  0  0  0
 14 15  1  0  0  0  0
 14 16  1  0  0  0  0
 14 17  1  0  0  0  0
 17 18  1  0  0  0  0
 17 19  1  0  0  0  0
 17 20  1  0  0  0  0
M  END
> <VM2 Rank>
1

> <Conf_Id>
167

> <Probability>
18.27

> <Sum Probability>
18.27

> <Delta G>
0.000

> <G>
27.007

> <E>
4.319

> <-TS>
22.689

> <U+W>
-11.778

> <U>
45.772

> <W>
-57.550

> <W(PB)>
-59.511

> <W(SA)>
1.961

> <Valence>
1.299

> <Coulomb>
44.177

> <VdW>
0.297

> <VdW6>
-3.490

> <VdW12>
3.786

> <Bond>
0.096

> <Angle>
0.381

> <Pdih>
0.822

> <Idih>
0.000

> <Tether>
0.000

$$$$
VeraChem MOL file


 20 19  0  0  0  0  0  0  0  0999 V2000     
   20.6067   18.3918   25.0324 N   0  3  0  0  0  0  0  0  0  0  0  0
   20.9676   18.5357   25.9814 H   0  0  0  0  0  0  0  0  0  0  0  0
   19.9885   17.5754   25.0696 H   0  0  0  0  0  0  0  0  0  0  0  0
   21.4064   18.1396   24.4443 H   0  0  0  0  0  0  0  0  0  0  0  0
   19.8881   19.6214   24.5113 C   0  0  0  0  0  0  0  0  0  0  0  0
   20.5937   20.4565   24.5202 H   0  0  0  0  0  0  0  0  0  0  0  0
   19.0787   19.8528   25.2092 H   0  0  0  0  0  0  0  0  0  0  0  0
   19.3063   19.4492   23.0944 C   0  0  0  0  0  0  0  0  0  0  0  0
   18.6021   18.6065   23.0873 H   0  0  0  0  0  0  0  0  0  0  0  0
   18.7231   20.3464   22.8474 H   0  0  0  0  0  0  0  0  0  0  0  0
   20.3993   19.2368   22.0200 C   0  0  0  0  0  0  0  0  0  0  0  0
   20.9646   18.3208   22.2377 H   0  0  0  0  0  0  0  0  0  0  0  0
   21.1155   20.0694   22.0565 H   0  0  0  0  0  0  0  0  0  0  0  0
   19.7980   19.1369   20.6002 C   0  0  0  0  0  0  0  0  0  0  0  0
   19.0799   18.3058   20.5588 H   0  0  0  0  0  0  0  0  0  0  0  0
   19.2357   20.0527   20.3695 H   0  0  0  0  0  0  0  0  0  0  0  0
   20.8897   18.9239   19.5298 C   0  0  0  0  0  0  0  0  0  0  0  0
   21.6048   19.7568   19.5236 H   0  0  0  0  0  0  0  0  0  0  0  0
   21.4472   17.9961   19.7132 H   0  0  0  0  0  0  0  0  0  0  0  0
   20.4435   18.8560   18.5291 H   0  0  0  0  0  0  0  0  0  0  0  0
  1  2  1  0  0  0  0
  1  3  1  0  0  0  0
  1  4  1  0  0  0  0
  1  5  1  0  0  0  0
  5  6  1  0  0  0  0
  5  7  1  0  0  0  0
  5  8  1  0  0  0  0
  8  9  1  0  0  0  0
  8 10  1  0  0  0  0
  8 11  1  0  0  0  0
 11 12  1  0  0  0  0
 11 13  1  0  0  0  0
 11 14  1  0  0  0  0
 14 15  1  0  0  0  0
 14 16  1  0  0  0  0
 14 17  1  0  0  0  0
 17 18  1  0  0  0  0
 17 19  1  0  0  0  0
 17 20  1  0  0  0  0
M  END
> <VM2 Rank>
2

> <Conf_Id>
143

> <Probability>
11.04

> <Sum Probability>
29.31

> <Delta G>
0.301

> <G>
27.308

> <E>
4.519

> <-TS>
22.789

> <U+W>
-11.578

> <U>
46.423

> <W>
-58.001

> <W(PB)>
-59.940

> <W(SA)>
1.939

> <Valence>
1.410

> <Coulomb>
44.613

> <VdW>
0.400

> <VdW6>
-4.001

> <VdW12>
4.401

> <Bond>
0.117

> <Angle>
0.430

> <Pdih>
0.863

> <Idih>
0.000

> <Tether>
0.000

$$$$
VeraChem MOL file


 20 19  0  0  0  0  0  0  0  0999 V2000     
   19.8800   19.9563   25.0305 N   0  3  0  0  0  0  0  0  0  0  0  0
   20.2037   20.7289   24.4412 H   0  0  0  0  0  0  0  0  0  0  0  0
   18.8573   20.0106   25.0666 H   0  0  0  0  0  0  0  0  0  0  0  0
   20.2218   20.1411   25.9795 H   0  0  0  0  0  0  0  0  0  0  0  0
   20.3565   18.6130   24.5125 C   0  0  0  0  0  0  0  0  0  0  0  0
   20.0106   17.8466   25.2116 H   0  0  0  0  0  0  0  0  0  0  0  0
   21.4498   18.6135   24.5225 H   0  0  0  0  0  0  0  0  0  0  0  0
   19.8510   18.2767   23.0958 C   0  0  0  0  0  0  0  0  0  0  0  0
   20.1606   17.2519   22.8511 H   0  0  0  0  0  0  0  0  0  0  0  0
   18.7529   18.2821   23.0876 H   0  0  0  0  0  0  0  0  0  0  0  0
   20.3947   19.2468   22.0200 C   0  0  0  0  0  0  0  0  0  0  0  0
   21.4929   19.2571   22.0575 H   0  0  0  0  0  0  0  0  0  0  0  0
   20.0591   20.2701   22.2353 H   0  0  0  0  0  0  0  0  0  0  0  0
   19.9318   18.8489   20.6005 C   0  0  0  0  0  0  0  0  0  0  0  0
   20.2691   17.8280   20.3722 H   0  0  0  0  0  0  0  0  0  0  0  0
   18.8335   18.8362   20.5582 H   0  0  0  0  0  0  0  0  0  0  0  0
   20.4742   19.8184   19.5286 C   0  0  0  0  0  0  0  0  0  0  0  0
   21.5719   19.8275   19.5235 H   0  0  0  0  0  0  0  0  0  0  0  0
   20.1354   19.5191   18.5283 H   0  0  0  0  0  0  0  0  0  0  0  0
   20.1247   20.8432   19.7097 H   0  0  0  0  0  0  0  0  0  0  0  0
  1  2  1  0  0  0  0
  1  3  1  0  0  0  0
  1  4  1  0  0  0  0
  1  5  1  0  0  0  0
  5  6  1  0  0  0  0
  5  7  1  0  0  0  0
  5  8  1  0  0  0  0
  8  9  1  0  0  0  0
  8 10  1  0  0  0  0
  8 11  1  0  0  0  0
 11 12  1  0  0  0  0
 11 13  1  0  0  0  0
 11 14  1  0  0  0  0
 14 15  1  0  0  0  0
 14 16  1  0  0  0  0
 14 17  1  0  0  0  0
 17 18  1  0  0  0  0
 17 19  1  0  0  0  0
 17 20  1  0  0  0  0
M  END
> <VM2 Rank>
3

> <Conf_Id>
94

> <Probability>
10.33

> <Sum Probability>
39.64

> <Delta G>
0.340

> <G>
27.347

> <E>
4.558

> <-TS>
22.789

> <U+W>
-11.538

> <U>
46.423

> <W>
-57.961

> <W(PB)>
-59.894

> <W(SA)>
1.932

> <Valence>
1.410

> <Coulomb>
44.613

> <VdW>
0.400

> <VdW6>
-4.001

> <VdW12>
4.401

> <Bond>
0.117

> <Angle>
0.430

> <Pdih>
0.863

> <Idih>
0.000

> <Tether>
0.000

$$$$
VeraChem MOL file


 20 19  0  0  0  0  0  0  0  0999 V2000     
   19.6444   19.3205   25.4425 N   0  3  0  0  0  0  0  0  0  0  0  0
   18.6980   18.9276   25.4586 H   0  0  0  0  0  0  0  0  0  0  0  0
   20.2497   18.6686   25.9515 H   0  0  0  0  0  0  0  0  0  0  0  0
   19.6157   20.1876   25.9892 H   0  0  0  0  0  0  0  0  0  0  0  0
   20.1338   19.5617   24.0288 C   0  0  0  0  0  0  0  0  0  0  0  0
   21.1311   20.0059   24.0879 H   0  0  0  0  0  0  0  0  0  0  0  0
   19.4621   20.2859   23.5606 H   0  0  0  0  0  0  0  0  0  0  0  0
   20.1886   18.2769   23.1805 C   0  0  0  0  0  0  0  0  0  0  0  0
   20.8314   17.5422   23.6835 H   0  0  0  0  0  0  0  0  0  0  0  0
   19.1872   17.8300   23.1218 H   0  0  0  0  0  0  0  0  0  0  0  0
   20.7318   18.5249   21.7532 C   0  0  0  0  0  0  0  0  0  0  0  0
   20.8308   17.5579   21.2407 H   0  0  0  0  0  0  0  0  0  0  0  0
   21.7441   18.9482   21.8144 H   0  0  0  0  0  0  0  0  0  0  0  0
   19.8273   19.4556   20.9108 C   0  0  0  0  0  0  0  0  0  0  0  0
   18.8071   19.0483   20.8750 H   0  0  0  0  0  0  0  0  0  0  0  0
   19.7574   20.4452   21.3824 H   0  0  0  0  0  0  0  0  0  0  0  0
   20.3622   19.6204   19.4722 C   0  0  0  0  0  0  0  0  0  0  0  0
   19.7097   20.2836   18.8895 H   0  0  0  0  0  0  0  0  0  0  0  0
   21.3700   20.0557   19.4731 H   0  0  0  0  0  0  0  0  0  0  0  0
   20.4079   18.6536   18.9542 H   0  0  0  0  0  0  0  0  0  0  0  0
  1  2  1  0  0  0  0
  1  3  1  0  0  0  0
  1  4  1  0  0  0  0
  1  5  1  0  0  0  0
  5  6  1  0  0  0  0
  5  7  1  0  0  0  0
  5  8  1  0  0  0  0
  8  9  1  0  0  0  0
  8 10  1  0  0  0  0
  8 11  1  0  0  0  0
 11 12  1  0  0  0  0
 11 13  1  0  0  0  0
 11 14  1  0  0  0  0
 14 15  1  0  0  0  0
 14 16  1  0  0  0  0
 14 17  1  0  0  0  0
 17 18  1  0  0  0  0
 17 19  1  0  0  0  0
 17 20  1  0  0  0  0
M  END
> <VM2 Rank>
4

> <Conf_Id>
310

> <Probability>
8.08

> <Sum Probability>
47.72

> <Delta G>
0.486

> <G>
27.494

> <E>
4.710

> <-TS>
22.784

> <U+W>
-11.387

> <U>
46.508

> <W>
-57.895

> <W(PB)>
-59.824

> <W(SA)>
1.928

> <Valence>
1.610

> <Coulomb>
44.536

> <VdW>
0.362

> <VdW6>
-4.056

> <VdW12>
4.419

> <Bond>
0.118

> <Angle>
0.515

> <Pdih>
0.977

> <Idih>
0.000

> <Tether>
0.000

$$$$
VeraChem MOL file


 20 19  0  0  0  0  0  0  0  0999 V2000     
   19.9686   18.6227   25.4434 N   0  3  0  0  0  0  0  0  0  0  0  0
   20.6122   18.0426   25.9917 H   0  0  0  0  0  0  0  0  0  0  0  0
   19.8604   19.5068   25.9504 H   0  0  0  0  0  0  0  0  0  0  0  0
   19.0579   18.1529   25.4596 H   0  0  0  0  0  0  0  0  0  0  0  0
   20.4698   18.8383   24.0296 C   0  0  0  0  0  0  0  0  0  0  0  0
   20.5904   17.8570   23.5635 H   0  0  0  0  0  0  0  0  0  0  0  0
   21.4525   19.3139   24.0887 H   0  0  0  0  0  0  0  0  0  0  0  0
   19.5241   19.7073   23.1787 C   0  0  0  0  0  0  0  0  0  0  0  0
   18.5368   19.2302   23.1201 H   0  0  0  0  0  0  0  0  0  0  0  0
   19.3769   20.6733   23.6797 H   0  0  0  0  0  0  0  0  0  0  0  0
   20.0653   19.9595   21.7515 C   0  0  0  0  0  0  0  0  0  0  0  0
   21.0416   20.4602   21.8125 H   0  0  0  0  0  0  0  0  0  0  0  0
   19.3907   20.6578   21.2369 H   0  0  0  0  0  0  0  0  0  0  0  0
   20.1939   18.6663   20.9118 C   0  0  0  0  0  0  0  0  0  0  0  0
   20.9047   17.9756   21.3854 H   0  0  0  0  0  0  0  0  0  0  0  0
   19.2247   18.1493   20.8761 H   0  0  0  0  0  0  0  0  0  0  0  0
   20.6662   18.9659   19.4730 C   0  0  0  0  0  0  0  0  0  0  0  0
   21.6489   19.4553   19.4739 H   0  0  0  0  0  0  0  0  0  0  0  0
   20.7527   18.0383   18.8923 H   0  0  0  0  0  0  0  0  0  0  0  0
   19.9574   19.6234   18.9530 H   0  0  0  0  0  0  0  0  0  0  0  0
  1  2  1  0  0  0  0
  1  3  1  0  0  0  0
  1  4  1  0  0  0  0
  1  5  1  0  0  0  0
  5  6  1  0  0  0  0
  5  7  1  0  0  0  0
  5  8  1  0  0  0  0
  8  9  1  0  0  0  0
  8 10  1  0  0  0  0
  8 11  1  0  0  0  0
 11 12  1  0  0  0  0
 11 13  1  0  0  0  0
 11 14  1  0  0  0  0
 14 15  1  0  0  0  0
 14 16  1  0  0  0  0
 14 17  1  0  0  0  0
 17 18  1  0  0  0  0
 17 19  1  0  0  0  0
 17 20  1  0  0  0  0
M  END
> <VM2 Rank>
5

> <Conf_Id>
125

> <Probability>
7.90

> <Sum Probability>
55.62

> <Delta G>
0.500

> <G>
27.507

> <E>
4.723

> <-TS>
22.784

> <U+W>
-11.373

> <U>
46.508

> <W>
-57.881

> <W(PB)>
-59.814

> <W(SA)>
1.932

> <Valence>
1.610

> <Coulomb>
44.536

> <VdW>
0.363

> <VdW6>
-4.057

> <VdW12>
4.419

> <Bond>
0.118

> <Angle>
0.515

> <Pdih>
0.977

> <Idih>
0.000

> <Tether>
0.000

$$$$
VeraChem MOL file


 20 19  0  0  0  0  0  0  0  0999 V2000     
   19.4823   19.4057   25.4133 N   0  3  0  0  0  0  0  0  0  0  0  0
   18.6902   18.7558   25.4357 H   0  0  0  0  0  0  0  0  0  0  0  0
   19.9097   19.3854   26.3452 H   0  0  0  0  0  0  0  0  0  0  0  0
   19.0968   20.3464   25.2837 H   0  0  0  0  0  0  0  0  0  0  0  0
   20.4786   19.0473   24.3291 C   0  0  0  0  0  0  0  0  0  0  0  0
   20.8696   18.0496   24.5467 H   0  0  0  0  0  0  0  0  0  0  0  0
   21.3065   19.7595   24.3826 H   0  0  0  0  0  0  0  0  0  0  0  0
   19.8688   19.0676   22.9160 C   0  0  0  0  0  0  0  0  0  0  0  0
   19.0279   18.3629   22.8713 H   0  0  0  0  0  0  0  0  0  0  0  0
   19.4641   20.0677   22.7155 H   0  0  0  0  0  0  0  0  0  0  0  0
   20.9189   18.6941   21.8432 C   0  0  0  0  0  0  0  0  0  0  0  0
   21.3669   17.7249   22.1033 H   0  0  0  0  0  0  0  0  0  0  0  0
   21.7384   19.4261   21.8567 H   0  0  0  0  0  0  0  0  0  0  0  0
   20.3341   18.5984   20.4130 C   0  0  0  0  0  0  0  0  0  0  0  0
   21.1169   18.2287   19.7359 H   0  0  0  0  0  0  0  0  0  0  0  0
   19.5297   17.8499   20.3895 H   0  0  0  0  0  0  0  0  0  0  0  0
   19.8052   19.9469   19.8734 C   0  0  0  0  0  0  0  0  0  0  0  0
   20.5829   20.7206   19.9126 H   0  0  0  0  0  0  0  0  0  0  0  0
   19.4872   19.8441   18.8278 H   0  0  0  0  0  0  0  0  0  0  0  0
   18.9394   20.2998   20.4474 H   0  0  0  0  0  0  0  0  0  0  0  0
  1  2  1  0  0  0  0
  1  3  1  0  0  0  0
  1  4  1  0  0  0  0
  1  5  1  0  0  0  0
  5  6  1  0  0  0  0
  5  7  1  0  0  0  0
  5  8  1  0  0  0  0
  8  9  1  0  0  0  0
  8 10  1  0  0  0  0
  8 11  1  0  0  0  0
 11 12  1  0  0  0  0
 11 13  1  0  0  0  0
 11 14  1  0  0  0  0
 14 15  1  0  0  0  0
 14 16  1  0  0  0  0
 14 17  1  0  0  0  0
 17 18  1  0  0  0  0
 17 19  1  0  0  0  0
 17 20  1  0  0  0  0
M  END
> <VM2 Rank>
6

> <Conf_Id>
278

> <Probability>
6.51

> <Sum Probability>
62.13

> <Delta G>
0.616

> <G>
27.623

> <E>
4.824

> <-TS>
22.798

> <U+W>
-11.272

> <U>
46.486

> <W>
-57.758

> <W(PB)>
-59.705

> <W(SA)>
1.947

> <Valence>
1.806

> <Coulomb>
44.248

> <VdW>
0.433

> <VdW6>
-4.089

> <VdW12>
4.522

> <Bond>
0.131

> <Angle>
0.628

> <Pdih>
1.047

> <Idih>
0.000

> <Tether>
0.000

$$$$
VeraChem MOL file


 20 19  0  0  0  0  0  0  0  0999 V2000     
   19.9291   18.4439   25.4144 N   0  3  0  0  0  0  0  0  0  0  0  0
   18.9215   18.2576   25.4362 H   0  0  0  0  0  0  0  0  0  0  0  0
   20.3995   17.5423   25.2871 H   0  0  0  0  0  0  0  0  0  0  0  0
   20.1883   18.7854   26.3460 H   0  0  0  0  0  0  0  0  0  0  0  0
   20.2988   19.4343   24.3287 C   0  0  0  0  0  0  0  0  0  0  0  0
   21.3770   19.6077   24.3828 H   0  0  0  0  0  0  0  0  0  0  0  0
   19.7883   20.3769   24.5439 H   0  0  0  0  0  0  0  0  0  0  0  0
   19.9224   18.9523   22.9161 C   0  0  0  0  0  0  0  0  0  0  0  0
   20.4258   17.9976   22.7180 H   0  0  0  0  0  0  0  0  0  0  0  0
   18.8415   18.7642   22.8708 H   0  0  0  0  0  0  0  0  0  0  0  0
   20.3154   19.9936   21.8416 C   0  0  0  0  0  0  0  0  0  0  0  0
   21.4033   20.1476   21.8559 H   0  0  0  0  0  0  0  0  0  0  0  0
   19.8634   20.9616   22.0994 H   0  0  0  0  0  0  0  0  0  0  0  0
   19.8663   19.6056   20.4118 C   0  0  0  0  0  0  0  0  0  0  0  0
   18.7755   19.4738   20.3875 H   0  0  0  0  0  0  0  0  0  0  0  0
   20.0896   20.4409   19.7332 H   0  0  0  0  0  0  0  0  0  0  0  0
   20.5560   18.3304   19.8754 C   0  0  0  0  0  0  0  0  0  0  0  0
   20.2732   18.1517   18.8299 H   0  0  0  0  0  0  0  0  0  0  0  0
   21.6488   18.4255   19.9154 H   0  0  0  0  0  0  0  0  0  0  0  0
   20.2665   17.4424   20.4509 H   0  0  0  0  0  0  0  0  0  0  0  0
  1  2  1  0  0  0  0
  1  3  1  0  0  0  0
  1  4  1  0  0  0  0
  1  5  1  0  0  0  0
  5  6  1  0  0  0  0
  5  7  1  0  0  0  0
  5  8  1  0  0  0  0
  8  9  1  0  0  0  0
  8 10  1  0  0  0  0
  8 11  1  0  0  0  0
 11 12  1  0  0  0  0
 11 13  1  0  0  0  0
 11 14  1  0  0  0  0
 14 15  1  0  0  0  0
 14 16  1  0  0  0  0
 14 17  1  0  0  0  0
 17 18  1  0  0  0  0
 17 19  1  0  0  0  0
 17 20  1  0  0  0  0
M  END
> <VM2 Rank>
7

> <Conf_Id>
301

> <Probability>
6.41

> <Sum Probability>
68.54

> <Delta G>
0.624

> <G>
27.631

> <E>
4.833

> <-TS>
22.799

> <U+W>
-11.264

> <U>
46.486

> <W>
-57.750

> <W(PB)>
-59.686

> <W(SA)>
1.936

> <Valence>
1.806

> <Coulomb>
44.248

> <VdW>
0.433

> <VdW6>
-4.089

> <VdW12>
4.522

> <Bond>
0.131

> <Angle>
0.628

> <Pdih>
1.047

> <Idih>
0.000

> <Tether>
0.000

$$$$
VeraChem MOL file


 20 19  0  0  0  0  0  0  0  0999 V2000     
   19.4805   19.1733   25.1477 N   0  3  0  0  0  0  0  0  0  0  0  0
   19.6590   19.4561   26.1171 H   0  0  0  0  0  0  0  0  0  0  0  0
   18.8426   19.8673   24.7474 H   0  0  0  0  0  0  0  0  0  0  0  0
   18.9743   18.2830   25.1858 H   0  0  0  0  0  0  0  0  0  0  0  0
   20.7649   19.0592   24.3494 C   0  0  0  0  0  0  0  0  0  0  0  0
   21.4081   18.3370   24.8597 H   0  0  0  0  0  0  0  0  0  0  0  0
   21.2645   20.0316   24.3680 H   0  0  0  0  0  0  0  0  0  0  0  0
   20.5554   18.6117   22.8893 C   0  0  0  0  0  0  0  0  0  0  0  0
   21.5430   18.4474   22.4407 H   0  0  0  0  0  0  0  0  0  0  0  0
   20.0380   17.6433   22.8736 H   0  0  0  0  0  0  0  0  0  0  0  0
   19.7662   19.6499   22.0525 C   0  0  0  0  0  0  0  0  0  0  0  0
   20.3013   20.6097   22.0540 H   0  0  0  0  0  0  0  0  0  0  0  0
   18.7935   19.8378   22.5260 H   0  0  0  0  0  0  0  0  0  0  0  0
   19.5138   19.2013   20.5923 C   0  0  0  0  0  0  0  0  0  0  0  0
   18.9666   18.2482   20.5854 H   0  0  0  0  0  0  0  0  0  0  0  0
   18.8560   19.9360   20.1071 H   0  0  0  0  0  0  0  0  0  0  0  0
   20.8072   19.0647   19.7567 C   0  0  0  0  0  0  0  0  0  0  0  0
   21.4450   18.2534   20.1287 H   0  0  0  0  0  0  0  0  0  0  0  0
   20.5658   18.8394   18.7099 H   0  0  0  0  0  0  0  0  0  0  0  0
   21.3888   19.9955   19.7735 H   0  0  0  0  0  0  0  0  0  0  0  0
  1  2  1  0  0  0  0
  1  3  1  0  0  0  0
  1  4  1  0  0  0  0
  1  5  1  0  0  0  0
  5  6  1  0  0  0  0
  5  7  1  0  0  0  0
  5  8  1  0  0  0  0
  8  9  1  0  0  0  0
  8 10  1  0  0  0  0
  8 11  1  0  0  0  0
 11 12  1  0  0  0  0
 11 13  1  0  0  0  0
 11 14  1  0  0  0  0
 14 15  1  0  0  0  0
 14 16  1  0  0  0  0
 14 17  1  0  0  0  0
 17 18  1  0  0  0  0
 17 19  1  0  0  0  0
 17 20  1  0  0  0  0
M  END
> <VM2 Rank>
8

> <Conf_Id>
33

> <Probability>
4.06

> <Sum Probability>
72.61

> <Delta G>
0.896

> <G>
27.903

> <E>
5.022

> <-TS>
22.881

> <U+W>
-11.075

> <U>
47.080

> <W>
-58.154

> <W(PB)>
-60.053

> <W(SA)>
1.899

> <Valence>
1.943

> <Coulomb>
44.572

> <VdW>
0.565

> <VdW6>
-4.575

> <VdW12>
5.139

> <Bond>
0.158

> <Angle>
0.700

> <Pdih>
1.085

> <Idih>
0.000

> <Tether>
0.000

$$$$
