VeraChem MOL file


 19 18  0  0  0  0  0  0  0  0999 V2000     
   19.9539   19.2771   25.5145 C   0  0  0  0  0  0  0  0  0  0  0  0
   20.6501   18.4763   26.1064 O   0  5  0  0  0  0  0  0  0  0  0  0
   19.7318   20.4018   25.9167 O   0  0  0  0  0  0  0  0  0  0  0  0
   19.3419   18.8541   24.1837 C   0  0  0  0  0  0  0  0  0  0  0  0
   18.3779   19.3653   24.0741 H   0  0  0  0  0  0  0  0  0  0  0  0
   19.1347   17.7782   24.2304 H   0  0  0  0  0  0  0  0  0  0  0  0
   20.2549   19.1703   22.9735 C   0  0  0  0  0  0  0  0  0  0  0  0
   20.4633   20.2489   22.9483 H   0  0  0  0  0  0  0  0  0  0  0  0
   21.2201   18.6617   23.1046 H   0  0  0  0  0  0  0  0  0  0  0  0
   19.6128   18.7327   21.6394 C   0  0  0  0  0  0  0  0  0  0  0  0
   18.6474   19.2417   21.5120 H   0  0  0  0  0  0  0  0  0  0  0  0
   19.4045   17.6543   21.6682 H   0  0  0  0  0  0  0  0  0  0  0  0
   20.5244   19.0490   20.4356 C   0  0  0  0  0  0  0  0  0  0  0  0
   20.7334   20.1273   20.4021 H   0  0  0  0  0  0  0  0  0  0  0  0
   21.4905   18.5401   20.5584 H   0  0  0  0  0  0  0  0  0  0  0  0
   19.8802   18.6107   19.1052 C   0  0  0  0  0  0  0  0  0  0  0  0
   18.9261   19.1287   18.9413 H   0  0  0  0  0  0  0  0  0  0  0  0
   20.5415   18.8430   18.2602 H   0  0  0  0  0  0  0  0  0  0  0  0
   19.6890   17.5296   19.0988 H   0  0  0  0  0  0  0  0  0  0  0  0
  1  2  1  0  0  0  0
  1  3  2  0  0  0  0
  1  4  1  0  0  0  0
  4  5  1  0  0  0  0
  4  6  1  0  0  0  0
  4  7  1  0  0  0  0
  7  8  1  0  0  0  0
  7  9  1  0  0  0  0
  7 10  1  0  0  0  0
 10 11  1  0  0  0  0
 10 12  1  0  0  0  0
 10 13  1  0  0  0  0
 13 14  1  0  0  0  0
 13 15  1  0  0  0  0
 13 16  1  0  0  0  0
 16 17  1  0  0  0  0
 16 18  1  0  0  0  0
 16 19  1  0  0  0  0
M  END
> <VM2 Rank>
1

> <Conf_Id>
69

> <Probability>
41.09

> <Sum Probability>
41.09

> <Delta G>
0.000

> <G>
-26.151

> <E>
-40.888

> <-TS>
14.737

> <U+W>
-56.091

> <U>
5.975

> <W>
-62.065

> <W(PB)>
-64.218

> <W(SA)>
2.153

> <Valence>
6.673

> <Coulomb>
-1.307

> <VdW>
0.610

> <VdW6>
-5.351

> <VdW12>
5.961

> <Bond>
0.086

> <Angle>
2.253

> <Pdih>
4.333

> <Idih>
0.001

> <Tether>
0.000

$$$$
