@<TRIPOS>MOLECULE
guest-3_vm2.mol2 : vm2 ligand conformer 1
          29          28           1
SMALL
USER_CHARGES
 
@<TRIPOS>ATOM
       1    C1      19.995042   18.991275   18.812238 C.3        1 MOL1        -0.2427
       2    H1      20.899575   19.613389   18.804989 H          1 MOL1         0.0958
       3    H2      20.303578   17.938622   18.767730 H          1 MOL1         0.0958
       4    H3      19.425176   19.214346   17.900896 H          1 MOL1         0.0958
       5    C2      19.142648   19.266655   20.068991 C.3        1 MOL1        -0.1412
       6    H4      18.229769   18.655805   20.031405 H          1 MOL1         0.0947
       7    H5      18.821242   20.317654   20.068431 H          1 MOL1         0.0947
       8    C3      19.922023   18.960342   21.366948 C.3        1 MOL1        -0.1437
       9    H6      20.243159   17.909506   21.361948 H          1 MOL1         0.0947
      10    H7      20.834642   19.571494   21.399017 H          1 MOL1         0.0947
      11    C4      19.071663   19.234846   22.627726 C.3        1 MOL1        -0.1437
      12    H8      18.159124   18.623589   22.594768 H          1 MOL1         0.0947
      13    H9      18.750672   20.285748   22.631865 H          1 MOL1         0.0947
      14    C5      19.851748   18.928246   23.925981 C.3        1 MOL1        -0.1437
      15    H10     20.172889   17.877365   23.921357 H          1 MOL1         0.0947
      16    H11     20.764303   19.539546   23.958531 H          1 MOL1         0.0947
      17    C6      19.001209   19.202674   25.186699 C.3        1 MOL1        -0.1437
      18    H12     18.088504   18.591356   25.154662 H          1 MOL1         0.0947
      19    H13     18.679870   20.253617   25.191795 H          1 MOL1         0.0947
      20    C7      19.780250   18.896522   26.484667 C.3        1 MOL1        -0.1477
      21    H14     20.098661   17.845461   26.485833 H          1 MOL1         0.0947
      22    H15     20.690728   19.509449   26.522964 H          1 MOL1         0.0947
      23    C8      18.924469   19.173160   27.733173 C.3        1 MOL1         0.0145
      24    H16     18.024521   18.552754   27.707667 H          1 MOL1         0.0921
      25    H17     18.618838   20.222881   27.744978 H          1 MOL1         0.0921
      26    N1      19.654946   18.884279   29.028577 N.4        1 MOL1        -0.5969
      27    H18     20.499599   19.457411   29.126760 H          1 MOL1         0.3603
      28    H19     19.946564   17.903212   29.092023 H          1 MOL1         0.3603
      29    H20     19.067458   19.075013   29.847870 H          1 MOL1         0.3603
@<TRIPOS>BOND
    1     1     2    1
    2     1     3    1
    3     1     4    1
    4     1     5    1
    5     5     6    1
    6     5     7    1
    7     5     8    1
    8     8     9    1
    9     8    10    1
   10     8    11    1
   11    11    12    1
   12    11    13    1
   13    11    14    1
   14    14    15    1
   15    14    16    1
   16    14    17    1
   17    17    18    1
   18    17    19    1
   19    17    20    1
   20    20    21    1
   21    20    22    1
   22    20    23    1
   23    23    24    1
   24    23    25    1
   25    23    26    1
   26    26    27    1
   27    26    28    1
   28    26    29    1
@<TRIPOS>SUBSTRUCTURE
       1 MOL1            1 RESIDUE      1      MOL     
@<SCITEGIC>MOL_PROPERTY
VM2 Rank
SciTegic.value.IntegerValue
1

@<SCITEGIC>MOL_PROPERTY
Conf_Id
SciTegic.value.IntegerValue
1101

@<SCITEGIC>MOL_PROPERTY
Probability
SciTegic.value.DoubleValue
5.28

@<SCITEGIC>MOL_PROPERTY
Sum Probability
SciTegic.value.DoubleValue
5.28

@<SCITEGIC>MOL_PROPERTY
Delta G
SciTegic.value.DoubleValue
0.000

@<SCITEGIC>MOL_PROPERTY
G
SciTegic.value.DoubleValue
58.146

@<SCITEGIC>MOL_PROPERTY
E
SciTegic.value.DoubleValue
20.962

@<SCITEGIC>MOL_PROPERTY
-TS
SciTegic.value.DoubleValue
37.184

@<SCITEGIC>MOL_PROPERTY
U+W
SciTegic.value.DoubleValue
-3.183

@<SCITEGIC>MOL_PROPERTY
U
SciTegic.value.DoubleValue
47.674

@<SCITEGIC>MOL_PROPERTY
W
SciTegic.value.DoubleValue
-50.852

@<SCITEGIC>MOL_PROPERTY
W(PB)
SciTegic.value.DoubleValue
-53.433

@<SCITEGIC>MOL_PROPERTY
W(SA)
SciTegic.value.DoubleValue
2.581

@<SCITEGIC>MOL_PROPERTY
Valence
SciTegic.value.DoubleValue
2.587

@<SCITEGIC>MOL_PROPERTY
Coulomb
SciTegic.value.DoubleValue
44.357

@<SCITEGIC>MOL_PROPERTY
VdW
SciTegic.value.DoubleValue
0.730

@<SCITEGIC>MOL_PROPERTY
VdW6
SciTegic.value.DoubleValue
-6.901

@<SCITEGIC>MOL_PROPERTY
VdW12
SciTegic.value.DoubleValue
7.631

@<SCITEGIC>MOL_PROPERTY
Bond
SciTegic.value.DoubleValue
0.145

@<SCITEGIC>MOL_PROPERTY
Angle
SciTegic.value.DoubleValue
0.401

@<SCITEGIC>MOL_PROPERTY
Pdih
SciTegic.value.DoubleValue
2.040

@<SCITEGIC>MOL_PROPERTY
Idih
SciTegic.value.DoubleValue
0.000

@<SCITEGIC>MOL_PROPERTY
Tether
SciTegic.value.DoubleValue
0.000

