VeraChem MOL file


 22 22  0  0  0  0  0  0  0  0999 V2000     
   19.8825   19.0490   20.9026 C   0  0  0  0  0  0  0  0  0  0  0  0
   20.8932   19.1566   20.4858 H   0  0  0  0  0  0  0  0  0  0  0  0
   19.2824   18.5760   20.1134 H   0  0  0  0  0  0  0  0  0  0  0  0
   19.2917   20.4493   21.1836 C   0  0  0  0  0  0  0  0  0  0  0  0
   19.3611   21.0412   20.2607 H   0  0  0  0  0  0  0  0  0  0  0  0
   18.2185   20.3559   21.3989 H   0  0  0  0  0  0  0  0  0  0  0  0
   19.9806   21.2344   22.3249 C   0  0  0  0  0  0  0  0  0  0  0  0
   19.6224   22.2720   22.2799 H   0  0  0  0  0  0  0  0  0  0  0  0
   21.0670   21.2803   22.1688 H   0  0  0  0  0  0  0  0  0  0  0  0
   19.6466   20.6732   23.7283 C   0  0  0  0  0  0  0  0  0  0  0  0
   19.7185   21.4904   24.4577 H   0  0  0  0  0  0  0  0  0  0  0  0
   18.5974   20.3506   23.7487 H   0  0  0  0  0  0  0  0  0  0  0  0
   20.5644   19.5313   24.2234 C   0  0  0  0  0  0  0  0  0  0  0  0
   21.4771   19.9850   24.6358 H   0  0  0  0  0  0  0  0  0  0  0  0
   21.0068   18.5018   23.1578 C   0  0  0  0  0  0  0  0  0  0  0  0
   21.8884   18.8895   22.6312 H   0  0  0  0  0  0  0  0  0  0  0  0
   21.3564   17.5991   23.6766 H   0  0  0  0  0  0  0  0  0  0  0  0
   19.9265   18.1001   22.1235 C   0  0  0  0  0  0  0  0  0  0  0  0
   20.1660   17.0931   21.7555 H   0  0  0  0  0  0  0  0  0  0  0  0
   18.9371   18.0249   22.5940 H   0  0  0  0  0  0  0  0  0  0  0  0
   19.8869   18.8389   25.2629 O   0  0  0  0  0  0  0  0  0  0  0  0
   19.1423   18.3714   24.8327 H   0  0  0  0  0  0  0  0  0  0  0  0
  1  2  1  0  0  0  0
  1  3  1  0  0  0  0
  1  4  1  0  0  0  0
  4  5  1  0  0  0  0
  4  6  1  0  0  0  0
  4  7  1  0  0  0  0
  7  8  1  0  0  0  0
  7  9  1  0  0  0  0
  7 10  1  0  0  0  0
 10 11  1  0  0  0  0
 10 12  1  0  0  0  0
 10 13  1  0  0  0  0
 13 14  1  0  0  0  0
 13 15  1  0  0  0  0
 15 16  1  0  0  0  0
 15 17  1  0  0  0  0
  1 18  1  0  0  0  0
 15 18  1  0  0  0  0
 18 19  1  0  0  0  0
 18 20  1  0  0  0  0
 13 21  1  0  0  0  0
 21 22  1  0  0  0  0
M  END
> <VM2 Rank>
1

> <Conf_Id>
620

> <Probability>
7.97

> <Sum Probability>
7.97

> <Delta G>
0.000

> <G>
47.363

> <E>
20.694

> <-TS>
26.669

> <U+W>
2.809

> <U>
4.530

> <W>
-1.721

> <W(PB)>
-3.723

> <W(SA)>
2.002

> <Valence>
12.224

> <Coulomb>
-9.755

> <VdW>
2.062

> <VdW6>
-9.196

> <VdW12>
11.257

> <Bond>
0.216

> <Angle>
2.754

> <Pdih>
9.253

> <Idih>
0.000

> <Tether>
0.000

$$$$
VeraChem MOL file


 22 22  0  0  0  0  0  0  0  0999 V2000     
   19.6680   19.0240   20.9216 C   0  0  0  0  0  0  0  0  0  0  0  0
   19.9307   18.8838   19.8641 H   0  0  0  0  0  0  0  0  0  0  0  0
   18.7047   18.5146   21.0604 H   0  0  0  0  0  0  0  0  0  0  0  0
   19.4894   20.5379   21.1763 C   0  0  0  0  0  0  0  0  0  0  0  0
   20.3872   21.0730   20.8382 H   0  0  0  0  0  0  0  0  0  0  0  0
   18.6693   20.8979   20.5402 H   0  0  0  0  0  0  0  0  0  0  0  0
   19.1810   20.9231   22.6424 C   0  0  0  0  0  0  0  0  0  0  0  0
   18.3221   20.3540   23.0221 H   0  0  0  0  0  0  0  0  0  0  0  0
   18.8760   21.9784   22.6535 H   0  0  0  0  0  0  0  0  0  0  0  0
   20.4080   20.7691   23.5746 C   0  0  0  0  0  0  0  0  0  0  0  0
   21.3174   21.0517   23.0287 H   0  0  0  0  0  0  0  0  0  0  0  0
   20.3270   21.4969   24.3932 H   0  0  0  0  0  0  0  0  0  0  0  0
   20.6080   19.3661   24.1931 C   0  0  0  0  0  0  0  0  0  0  0  0
   21.6588   19.2970   24.5093 H   0  0  0  0  0  0  0  0  0  0  0  0
   20.3092   18.1641   23.2670 C   0  0  0  0  0  0  0  0  0  0  0  0
   20.8272   17.2916   23.6859 H   0  0  0  0  0  0  0  0  0  0  0  0
   19.2399   17.9173   23.3013 H   0  0  0  0  0  0  0  0  0  0  0  0
   20.7460   18.3356   21.7920 C   0  0  0  0  0  0  0  0  0  0  0  0
   21.7034   18.8702   21.7257 H   0  0  0  0  0  0  0  0  0  0  0  0
   20.9256   17.3362   21.3726 H   0  0  0  0  0  0  0  0  0  0  0  0
   19.7763   19.2580   25.3400 O   0  0  0  0  0  0  0  0  0  0  0  0
   18.8642   19.4247   25.0264 H   0  0  0  0  0  0  0  0  0  0  0  0
  1  2  1  0  0  0  0
  1  3  1  0  0  0  0
  1  4  1  0  0  0  0
  4  5  1  0  0  0  0
  4  6  1  0  0  0  0
  4  7  1  0  0  0  0
  7  8  1  0  0  0  0
  7  9  1  0  0  0  0
  7 10  1  0  0  0  0
 10 11  1  0  0  0  0
 10 12  1  0  0  0  0
 10 13  1  0  0  0  0
 13 14  1  0  0  0  0
 13 15  1  0  0  0  0
 15 16  1  0  0  0  0
 15 17  1  0  0  0  0
  1 18  1  0  0  0  0
 15 18  1  0  0  0  0
 18 19  1  0  0  0  0
 18 20  1  0  0  0  0
 13 21  1  0  0  0  0
 21 22  1  0  0  0  0
M  END
> <VM2 Rank>
2

> <Conf_Id>
126

> <Probability>
7.66

> <Sum Probability>
15.63

> <Delta G>
0.024

> <G>
47.387

> <E>
20.718

> <-TS>
26.669

> <U+W>
2.833

> <U>
4.530

> <W>
-1.697

> <W(PB)>
-3.699

> <W(SA)>
2.002

> <Valence>
12.224

> <Coulomb>
-9.755

> <VdW>
2.061

> <VdW6>
-9.195

> <VdW12>
11.257

> <Bond>
0.216

> <Angle>
2.755

> <Pdih>
9.253

> <Idih>
0.000

> <Tether>
0.000

$$$$
VeraChem MOL file


 22 22  0  0  0  0  0  0  0  0999 V2000     
   19.9766   19.1866   21.0729 C   0  0  0  0  0  0  0  0  0  0  0  0
   20.9200   19.6951   20.8325 H   0  0  0  0  0  0  0  0  0  0  0  0
   19.5991   18.7850   20.1226 H   0  0  0  0  0  0  0  0  0  0  0  0
   18.9305   20.1893   21.6112 C   0  0  0  0  0  0  0  0  0  0  0  0
   18.4880   20.7248   20.7599 H   0  0  0  0  0  0  0  0  0  0  0  0
   18.0964   19.6369   22.0635 H   0  0  0  0  0  0  0  0  0  0  0  0
   19.4660   21.2482   22.6080 C   0  0  0  0  0  0  0  0  0  0  0  0
   18.6328   21.5821   23.2417 H   0  0  0  0  0  0  0  0  0  0  0  0
   19.7733   22.1365   22.0393 H   0  0  0  0  0  0  0  0  0  0  0  0
   20.6596   20.8354   23.5115 C   0  0  0  0  0  0  0  0  0  0  0  0
   21.5881   20.8958   22.9291 H   0  0  0  0  0  0  0  0  0  0  0  0
   20.7650   21.5918   24.3001 H   0  0  0  0  0  0  0  0  0  0  0  0
   20.5856   19.4460   24.1852 C   0  0  0  0  0  0  0  0  0  0  0  0
   21.2555   19.4691   25.0568 H   0  0  0  0  0  0  0  0  0  0  0  0
   21.0851   18.3069   23.2680 C   0  0  0  0  0  0  0  0  0  0  0  0
   22.1060   18.5418   22.9399 H   0  0  0  0  0  0  0  0  0  0  0  0
   21.1717   17.3943   23.8721 H   0  0  0  0  0  0  0  0  0  0  0  0
   20.2185   17.9904   22.0240 C   0  0  0  0  0  0  0  0  0  0  0  0
   20.7217   17.1954   21.4571 H   0  0  0  0  0  0  0  0  0  0  0  0
   19.2564   17.5642   22.3390 H   0  0  0  0  0  0  0  0  0  0  0  0
   19.2641   19.1753   24.6261 O   0  0  0  0  0  0  0  0  0  0  0  0
   18.7216   19.2541   23.8163 H   0  0  0  0  0  0  0  0  0  0  0  0
  1  2  1  0  0  0  0
  1  3  1  0  0  0  0
  1  4  1  0  0  0  0
  4  5  1  0  0  0  0
  4  6  1  0  0  0  0
  4  7  1  0  0  0  0
  7  8  1  0  0  0  0
  7  9  1  0  0  0  0
  7 10  1  0  0  0  0
 10 11  1  0  0  0  0
 10 12  1  0  0  0  0
 10 13  1  0  0  0  0
 13 14  1  0  0  0  0
 13 15  1  0  0  0  0
 15 16  1  0  0  0  0
 15 17  1  0  0  0  0
  1 18  1  0  0  0  0
 15 18  1  0  0  0  0
 18 19  1  0  0  0  0
 18 20  1  0  0  0  0
 13 21  1  0  0  0  0
 21 22  1  0  0  0  0
M  END
> <VM2 Rank>
3

> <Conf_Id>
428

> <Probability>
6.67

> <Sum Probability>
22.30

> <Delta G>
0.107

> <G>
47.470

> <E>
20.456

> <-TS>
27.013

> <U+W>
2.572

> <U>
3.922

> <W>
-1.350

> <W(PB)>
-3.345

> <W(SA)>
1.995

> <Valence>
12.571

> <Coulomb>
-10.581

> <VdW>
1.932

> <VdW6>
-10.483

> <VdW12>
12.414

> <Bond>
0.268

> <Angle>
3.728

> <Pdih>
8.575

> <Idih>
0.000

> <Tether>
0.000

$$$$
VeraChem MOL file


 22 22  0  0  0  0  0  0  0  0999 V2000     
   19.2811   18.8974   21.3797 C   0  0  0  0  0  0  0  0  0  0  0  0
   19.0867   18.5182   20.3670 H   0  0  0  0  0  0  0  0  0  0  0  0
   18.3217   18.8068   21.9057 H   0  0  0  0  0  0  0  0  0  0  0  0
   19.6719   20.3897   21.2807 C   0  0  0  0  0  0  0  0  0  0  0  0
   20.7220   20.5011   20.9786 H   0  0  0  0  0  0  0  0  0  0  0  0
   19.0762   20.8403   20.4751 H   0  0  0  0  0  0  0  0  0  0  0  0
   19.3813   21.1821   22.5776 C   0  0  0  0  0  0  0  0  0  0  0  0
   18.3601   20.9706   22.9226 H   0  0  0  0  0  0  0  0  0  0  0  0
   19.3954   22.2539   22.3372 H   0  0  0  0  0  0  0  0  0  0  0  0
   20.3859   20.9417   23.7316 C   0  0  0  0  0  0  0  0  0  0  0  0
   21.3654   21.3420   23.4396 H   0  0  0  0  0  0  0  0  0  0  0  0
   20.0692   21.5380   24.5973 H   0  0  0  0  0  0  0  0  0  0  0  0
   20.5672   19.4786   24.1950 C   0  0  0  0  0  0  0  0  0  0  0  0
   21.2303   19.5028   25.0716 H   0  0  0  0  0  0  0  0  0  0  0  0
   21.2479   18.5909   23.1279 C   0  0  0  0  0  0  0  0  0  0  0  0
   22.0434   19.1708   22.6423 H   0  0  0  0  0  0  0  0  0  0  0  0
   21.7639   17.7713   23.6447 H   0  0  0  0  0  0  0  0  0  0  0  0
   20.3343   17.9696   22.0368 C   0  0  0  0  0  0  0  0  0  0  0  0
   20.9860   17.5702   21.2477 H   0  0  0  0  0  0  0  0  0  0  0  0
   19.8154   17.0963   22.4556 H   0  0  0  0  0  0  0  0  0  0  0  0
   19.3164   18.9279   24.5776 O   0  0  0  0  0  0  0  0  0  0  0  0
   18.8183   18.8616   23.7387 H   0  0  0  0  0  0  0  0  0  0  0  0
  1  2  1  0  0  0  0
  1  3  1  0  0  0  0
  1  4  1  0  0  0  0
  4  5  1  0  0  0  0
  4  6  1  0  0  0  0
  4  7  1  0  0  0  0
  7  8  1  0  0  0  0
  7  9  1  0  0  0  0
  7 10  1  0  0  0  0
 10 11  1  0  0  0  0
 10 12  1  0  0  0  0
 10 13  1  0  0  0  0
 13 14  1  0  0  0  0
 13 15  1  0  0  0  0
 15 16  1  0  0  0  0
 15 17  1  0  0  0  0
  1 18  1  0  0  0  0
 15 18  1  0  0  0  0
 18 19  1  0  0  0  0
 18 20  1  0  0  0  0
 13 21  1  0  0  0  0
 21 22  1  0  0  0  0
M  END
> <VM2 Rank>
4

> <Conf_Id>
7

> <Probability>
6.36

> <Sum Probability>
28.66

> <Delta G>
0.135

> <G>
47.498

> <E>
20.485

> <-TS>
27.013

> <U+W>
2.600

> <U>
3.922

> <W>
-1.322

> <W(PB)>
-3.302

> <W(SA)>
1.980

> <Valence>
12.571

> <Coulomb>
-10.581

> <VdW>
1.932

> <VdW6>
-10.483

> <VdW12>
12.414

> <Bond>
0.268

> <Angle>
3.728

> <Pdih>
8.575

> <Idih>
0.000

> <Tether>
0.000

$$$$
VeraChem MOL file


 22 22  0  0  0  0  0  0  0  0999 V2000     
   19.8710   19.1041   20.8415 C   0  0  0  0  0  0  0  0  0  0  0  0
   20.3616   18.9262   19.8748 H   0  0  0  0  0  0  0  0  0  0  0  0
   18.8001   18.9296   20.6693 H   0  0  0  0  0  0  0  0  0  0  0  0
   20.0922   20.5825   21.2421 C   0  0  0  0  0  0  0  0  0  0  0  0
   21.1480   20.7715   21.4792 H   0  0  0  0  0  0  0  0  0  0  0  0
   19.8618   21.2035   20.3656 H   0  0  0  0  0  0  0  0  0  0  0  0
   19.1751   21.0347   22.4025 C   0  0  0  0  0  0  0  0  0  0  0  0
   18.1926   20.5540   22.3002 H   0  0  0  0  0  0  0  0  0  0  0  0
   18.9860   22.1127   22.3081 H   0  0  0  0  0  0  0  0  0  0  0  0
   19.7368   20.7696   23.8215 C   0  0  0  0  0  0  0  0  0  0  0  0
   20.4182   21.5886   24.0859 H   0  0  0  0  0  0  0  0  0  0  0  0
   18.9027   20.8274   24.5338 H   0  0  0  0  0  0  0  0  0  0  0  0
   20.4966   19.4387   24.0271 C   0  0  0  0  0  0  0  0  0  0  0  0
   21.5263   19.5657   23.6631 H   0  0  0  0  0  0  0  0  0  0  0  0
   19.8777   18.2250   23.2989 C   0  0  0  0  0  0  0  0  0  0  0  0
   20.1403   17.3144   23.8539 H   0  0  0  0  0  0  0  0  0  0  0  0
   18.7819   18.2858   23.3109 H   0  0  0  0  0  0  0  0  0  0  0  0
   20.4029   18.0614   21.8515 C   0  0  0  0  0  0  0  0  0  0  0  0
   21.5012   18.0856   21.8568 H   0  0  0  0  0  0  0  0  0  0  0  0
   20.1270   17.0616   21.4895 H   0  0  0  0  0  0  0  0  0  0  0  0
   20.5337   19.1621   25.4219 O   0  0  0  0  0  0  0  0  0  0  0  0
   20.9742   19.9262   25.8496 H   0  0  0  0  0  0  0  0  0  0  0  0
  1  2  1  0  0  0  0
  1  3  1  0  0  0  0
  1  4  1  0  0  0  0
  4  5  1  0  0  0  0
  4  6  1  0  0  0  0
  4  7  1  0  0  0  0
  7  8  1  0  0  0  0
  7  9  1  0  0  0  0
  7 10  1  0  0  0  0
 10 11  1  0  0  0  0
 10 12  1  0  0  0  0
 10 13  1  0  0  0  0
 13 14  1  0  0  0  0
 13 15  1  0  0  0  0
 15 16  1  0  0  0  0
 15 17  1  0  0  0  0
  1 18  1  0  0  0  0
 15 18  1  0  0  0  0
 18 19  1  0  0  0  0
 18 20  1  0  0  0  0
 13 21  1  0  0  0  0
 21 22  1  0  0  0  0
M  END
> <VM2 Rank>
5

> <Conf_Id>
436

> <Probability>
5.11

> <Sum Probability>
33.78

> <Delta G>
0.265

> <G>
47.628

> <E>
20.970

> <-TS>
26.657

> <U+W>
3.085

> <U>
5.433

> <W>
-2.348

> <W(PB)>
-4.357

> <W(SA)>
2.010

> <Valence>
11.903

> <Coulomb>
-8.719

> <VdW>
2.250

> <VdW6>
-8.926

> <VdW12>
11.175

> <Bond>
0.223

> <Angle>
2.471

> <Pdih>
9.209

> <Idih>
0.000

> <Tether>
0.000

$$$$
VeraChem MOL file


 22 22  0  0  0  0  0  0  0  0999 V2000     
   19.8722   19.1045   20.8422 C   0  0  0  0  0  0  0  0  0  0  0  0
   18.8013   18.9313   20.6688 H   0  0  0  0  0  0  0  0  0  0  0  0
   20.3635   18.9263   19.8759 H   0  0  0  0  0  0  0  0  0  0  0  0
   20.0945   20.5828   21.2431 C   0  0  0  0  0  0  0  0  0  0  0  0
   21.1501   20.7706   21.4820 H   0  0  0  0  0  0  0  0  0  0  0  0
   19.8665   21.2039   20.3661 H   0  0  0  0  0  0  0  0  0  0  0  0
   19.1761   21.0368   22.4017 C   0  0  0  0  0  0  0  0  0  0  0  0
   18.1921   20.5600   22.2960 H   0  0  0  0  0  0  0  0  0  0  0  0
   18.9914   22.1157   22.3088 H   0  0  0  0  0  0  0  0  0  0  0  0
   19.7327   20.7670   23.8221 C   0  0  0  0  0  0  0  0  0  0  0  0
   20.4125   21.5844   24.0953 H   0  0  0  0  0  0  0  0  0  0  0  0
   18.8978   20.8197   24.5337 H   0  0  0  0  0  0  0  0  0  0  0  0
   20.4954   19.4381   24.0260 C   0  0  0  0  0  0  0  0  0  0  0  0
   21.5233   19.5706   23.6591 H   0  0  0  0  0  0  0  0  0  0  0  0
   19.8750   18.2241   23.2988 C   0  0  0  0  0  0  0  0  0  0  0  0
   20.1302   17.3096   23.8503 H   0  0  0  0  0  0  0  0  0  0  0  0
   18.7793   18.2898   23.3066 H   0  0  0  0  0  0  0  0  0  0  0  0
   20.4020   18.0606   21.8521 C   0  0  0  0  0  0  0  0  0  0  0  0
   21.5004   18.0834   21.8581 H   0  0  0  0  0  0  0  0  0  0  0  0
   20.1251   17.0615   21.4889 H   0  0  0  0  0  0  0  0  0  0  0  0
   20.5381   19.1640   25.4211 O   0  0  0  0  0  0  0  0  0  0  0  0
   21.0891   18.3614   25.5343 H   0  0  0  0  0  0  0  0  0  0  0  0
  1  2  1  0  0  0  0
  1  3  1  0  0  0  0
  1  4  1  0  0  0  0
  4  5  1  0  0  0  0
  4  6  1  0  0  0  0
  4  7  1  0  0  0  0
  7  8  1  0  0  0  0
  7  9  1  0  0  0  0
  7 10  1  0  0  0  0
 10 11  1  0  0  0  0
 10 12  1  0  0  0  0
 10 13  1  0  0  0  0
 13 14  1  0  0  0  0
 13 15  1  0  0  0  0
 15 16  1  0  0  0  0
 15 17  1  0  0  0  0
  1 18  1  0  0  0  0
 15 18  1  0  0  0  0
 18 19  1  0  0  0  0
 18 20  1  0  0  0  0
 13 21  1  0  0  0  0
 21 22  1  0  0  0  0
M  END
> <VM2 Rank>
6

> <Conf_Id>
742

> <Probability>
4.83

> <Sum Probability>
38.60

> <Delta G>
0.299

> <G>
47.662

> <E>
20.999

> <-TS>
26.663

> <U+W>
3.114

> <U>
5.411

> <W>
-2.297

> <W(PB)>
-4.300

> <W(SA)>
2.003

> <Valence>
11.909

> <Coulomb>
-8.733

> <VdW>
2.236

> <VdW6>
-8.936

> <VdW12>
11.172

> <Bond>
0.223

> <Angle>
2.457

> <Pdih>
9.228

> <Idih>
0.000

> <Tether>
0.000

$$$$
VeraChem MOL file


 22 22  0  0  0  0  0  0  0  0999 V2000     
   20.3584   19.2286   20.9955 C   0  0  0  0  0  0  0  0  0  0  0  0
   21.4158   19.4313   21.2135 H   0  0  0  0  0  0  0  0  0  0  0  0
   20.3227   18.8935   19.9498 H   0  0  0  0  0  0  0  0  0  0  0  0
   19.5133   20.5207   21.1037 C   0  0  0  0  0  0  0  0  0  0  0  0
   19.7945   21.1926   20.2813 H   0  0  0  0  0  0  0  0  0  0  0  0
   18.4542   20.2778   20.9416 H   0  0  0  0  0  0  0  0  0  0  0  0
   19.6622   21.2966   22.4326 C   0  0  0  0  0  0  0  0  0  0  0  0
   18.9674   22.1473   22.4122 H   0  0  0  0  0  0  0  0  0  0  0  0
   20.6687   21.7333   22.4894 H   0  0  0  0  0  0  0  0  0  0  0  0
   19.3881   20.4652   23.7097 C   0  0  0  0  0  0  0  0  0  0  0  0
   19.2974   21.1668   24.5494 H   0  0  0  0  0  0  0  0  0  0  0  0
   18.4216   19.9500   23.6364 H   0  0  0  0  0  0  0  0  0  0  0  0
   20.5172   19.4565   24.0185 C   0  0  0  0  0  0  0  0  0  0  0  0
   21.4694   19.8927   23.6840 H   0  0  0  0  0  0  0  0  0  0  0  0
   20.3500   18.0781   23.3392 C   0  0  0  0  0  0  0  0  0  0  0  0
   21.3275   17.5791   23.3576 H   0  0  0  0  0  0  0  0  0  0  0  0
   19.6815   17.4527   23.9458 H   0  0  0  0  0  0  0  0  0  0  0  0
   19.8209   18.0817   21.8831 C   0  0  0  0  0  0  0  0  0  0  0  0
   18.7228   18.1104   21.8914 H   0  0  0  0  0  0  0  0  0  0  0  0
   20.0864   17.1201   21.4231 H   0  0  0  0  0  0  0  0  0  0  0  0
   20.5759   19.2506   25.4247 O   0  0  0  0  0  0  0  0  0  0  0  0
   20.7579   20.1239   25.8305 H   0  0  0  0  0  0  0  0  0  0  0  0
  1  2  1  0  0  0  0
  1  3  1  0  0  0  0
  1  4  1  0  0  0  0
  4  5  1  0  0  0  0
  4  6  1  0  0  0  0
  4  7  1  0  0  0  0
  7  8  1  0  0  0  0
  7  9  1  0  0  0  0
  7 10  1  0  0  0  0
 10 11  1  0  0  0  0
 10 12  1  0  0  0  0
 10 13  1  0  0  0  0
 13 14  1  0  0  0  0
 13 15  1  0  0  0  0
 15 16  1  0  0  0  0
 15 17  1  0  0  0  0
  1 18  1  0  0  0  0
 15 18  1  0  0  0  0
 18 19  1  0  0  0  0
 18 20  1  0  0  0  0
 13 21  1  0  0  0  0
 21 22  1  0  0  0  0
M  END
> <VM2 Rank>
7

> <Conf_Id>
523

> <Probability>
4.69

> <Sum Probability>
43.29

> <Delta G>
0.317

> <G>
47.680

> <E>
21.017

> <-TS>
26.663

> <U+W>
3.132

> <U>
5.411

> <W>
-2.279

> <W(PB)>
-4.300

> <W(SA)>
2.021

> <Valence>
11.909

> <Coulomb>
-8.733

> <VdW>
2.236

> <VdW6>
-8.936

> <VdW12>
11.172

> <Bond>
0.223

> <Angle>
2.457

> <Pdih>
9.228

> <Idih>
0.000

> <Tether>
0.000

$$$$
VeraChem MOL file


 22 22  0  0  0  0  0  0  0  0999 V2000     
   19.5785   19.1194   21.0158 C   0  0  0  0  0  0  0  0  0  0  0  0
   19.6450   18.8663   19.9489 H   0  0  0  0  0  0  0  0  0  0  0  0
   18.5134   19.0575   21.2771 H   0  0  0  0  0  0  0  0  0  0  0  0
   20.1080   20.5609   21.1997 C   0  0  0  0  0  0  0  0  0  0  0  0
   21.2050   20.5432   21.2556 H   0  0  0  0  0  0  0  0  0  0  0  0
   19.8702   21.1443   20.2996 H   0  0  0  0  0  0  0  0  0  0  0  0
   19.5372   21.3182   22.4231 C   0  0  0  0  0  0  0  0  0  0  0  0
   18.5666   21.7554   22.1514 H   0  0  0  0  0  0  0  0  0  0  0  0
   20.1978   22.1691   22.6383 H   0  0  0  0  0  0  0  0  0  0  0  0
   19.3461   20.4871   23.7157 C   0  0  0  0  0  0  0  0  0  0  0  0
   19.2546   21.1878   24.5561 H   0  0  0  0  0  0  0  0  0  0  0  0
   18.3850   19.9591   23.6675 H   0  0  0  0  0  0  0  0  0  0  0  0
   20.4700   19.4667   24.0057 C   0  0  0  0  0  0  0  0  0  0  0  0
   21.4328   19.8684   23.6585 H   0  0  0  0  0  0  0  0  0  0  0  0
   20.2108   18.0984   23.3357 C   0  0  0  0  0  0  0  0  0  0  0  0
   20.8901   17.3575   23.7778 H   0  0  0  0  0  0  0  0  0  0  0  0
   19.1958   17.7607   23.5825 H   0  0  0  0  0  0  0  0  0  0  0  0
   20.4017   18.0695   21.8003 C   0  0  0  0  0  0  0  0  0  0  0  0
   20.1280   17.0688   21.4395 H   0  0  0  0  0  0  0  0  0  0  0  0
   21.4677   18.1915   21.5641 H   0  0  0  0  0  0  0  0  0  0  0  0
   20.5337   19.2578   25.4110 O   0  0  0  0  0  0  0  0  0  0  0  0
   20.7547   20.1232   25.8147 H   0  0  0  0  0  0  0  0  0  0  0  0
  1  2  1  0  0  0  0
  1  3  1  0  0  0  0
  1  4  1  0  0  0  0
  4  5  1  0  0  0  0
  4  6  1  0  0  0  0
  4  7  1  0  0  0  0
  7  8  1  0  0  0  0
  7  9  1  0  0  0  0
  7 10  1  0  0  0  0
 10 11  1  0  0  0  0
 10 12  1  0  0  0  0
 10 13  1  0  0  0  0
 13 14  1  0  0  0  0
 13 15  1  0  0  0  0
 15 16  1  0  0  0  0
 15 17  1  0  0  0  0
  1 18  1  0  0  0  0
 15 18  1  0  0  0  0
 18 19  1  0  0  0  0
 18 20  1  0  0  0  0
 13 21  1  0  0  0  0
 21 22  1  0  0  0  0
M  END
> <VM2 Rank>
8

> <Conf_Id>
543

> <Probability>
4.61

> <Sum Probability>
47.90

> <Delta G>
0.327

> <G>
47.689

> <E>
21.017

> <-TS>
26.672

> <U+W>
3.132

> <U>
5.406

> <W>
-2.274

> <W(PB)>
-4.290

> <W(SA)>
2.016

> <Valence>
12.011

> <Coulomb>
-8.863

> <VdW>
2.258

> <VdW6>
-8.944

> <VdW12>
11.203

> <Bond>
0.224

> <Angle>
2.419

> <Pdih>
9.368

> <Idih>
0.000

> <Tether>
0.000

$$$$
