VeraChem MOL file


 25 25  0  0  0  0  0  0  0  0999 V2000     
   21.2650   19.5700   21.1384 C   0  0  0  0  0  0  0  0  0  0  0  0
   21.7746   19.7415   20.1803 H   0  0  0  0  0  0  0  0  0  0  0  0
   22.0469   19.7183   21.8916 H   0  0  0  0  0  0  0  0  0  0  0  0
   20.7595   18.1038   21.1583 C   0  0  0  0  0  0  0  0  0  0  0  0
   19.7152   18.0409   20.8265 H   0  0  0  0  0  0  0  0  0  0  0  0
   21.3327   17.5468   20.4045 H   0  0  0  0  0  0  0  0  0  0  0  0
   20.9530   17.3662   22.5094 C   0  0  0  0  0  0  0  0  0  0  0  0
   22.0133   17.4005   22.7947 H   0  0  0  0  0  0  0  0  0  0  0  0
   20.7266   16.3039   22.3451 H   0  0  0  0  0  0  0  0  0  0  0  0
   20.0858   17.8548   23.7003 C   0  0  0  0  0  0  0  0  0  0  0  0
   19.0203   17.7990   23.4478 H   0  0  0  0  0  0  0  0  0  0  0  0
   20.2246   17.1310   24.5147 H   0  0  0  0  0  0  0  0  0  0  0  0
   20.4544   19.2646   24.2301 C   0  0  0  0  0  0  0  0  0  0  0  0
   21.4703   19.5138   23.9017 H   0  0  0  0  0  0  0  0  0  0  0  0
   19.4858   20.3914   23.7946 C   0  0  0  0  0  0  0  0  0  0  0  0
   18.5769   20.3182   24.4070 H   0  0  0  0  0  0  0  0  0  0  0  0
   19.9398   21.3598   24.0411 H   0  0  0  0  0  0  0  0  0  0  0  0
   19.0436   20.4095   22.3086 C   0  0  0  0  0  0  0  0  0  0  0  0
   18.3091   21.2185   22.1958 H   0  0  0  0  0  0  0  0  0  0  0  0
   18.4890   19.4967   22.0628 H   0  0  0  0  0  0  0  0  0  0  0  0
   20.1645   20.6552   21.2676 C   0  0  0  0  0  0  0  0  0  0  0  0
   19.6822   20.7603   20.2861 H   0  0  0  0  0  0  0  0  0  0  0  0
   20.6411   21.6244   21.4682 H   0  0  0  0  0  0  0  0  0  0  0  0
   20.4524   19.2274   25.6528 O   0  0  0  0  0  0  0  0  0  0  0  0
   20.7316   20.1156   25.9588 H   0  0  0  0  0  0  0  0  0  0  0  0
  1  2  1  0  0  0  0
  1  3  1  0  0  0  0
  1  4  1  0  0  0  0
  4  5  1  0  0  0  0
  4  6  1  0  0  0  0
  4  7  1  0  0  0  0
  7  8  1  0  0  0  0
  7  9  1  0  0  0  0
  7 10  1  0  0  0  0
 10 11  1  0  0  0  0
 10 12  1  0  0  0  0
 10 13  1  0  0  0  0
 13 14  1  0  0  0  0
 13 15  1  0  0  0  0
 15 16  1  0  0  0  0
 15 17  1  0  0  0  0
 15 18  1  0  0  0  0
 18 19  1  0  0  0  0
 18 20  1  0  0  0  0
  1 21  1  0  0  0  0
 18 21  1  0  0  0  0
 21 22  1  0  0  0  0
 21 23  1  0  0  0  0
 13 24  1  0  0  0  0
 24 25  1  0  0  0  0
M  END
> <VM2 Rank>
1

> <Conf_Id>
755

> <Probability>
4.84

> <Sum Probability>
4.84

> <Delta G>
0.000

> <G>
62.075

> <E>
29.291

> <-TS>
32.785

> <U+W>
8.723

> <U>
10.905

> <W>
-2.182

> <W(PB)>
-4.296

> <W(SA)>
2.114

> <Valence>
16.377

> <Coulomb>
-8.448

> <VdW>
2.976

> <VdW6>
-12.570

> <VdW12>
15.546

> <Bond>
0.439

> <Angle>
5.049

> <Pdih>
10.889

> <Idih>
0.000

> <Tether>
0.000

$$$$
VeraChem MOL file


 25 25  0  0  0  0  0  0  0  0999 V2000     
   21.2656   19.5696   21.1386 C   0  0  0  0  0  0  0  0  0  0  0  0
   21.7735   19.7405   20.1795 H   0  0  0  0  0  0  0  0  0  0  0  0
   22.0494   19.7178   21.8899 H   0  0  0  0  0  0  0  0  0  0  0  0
   20.7600   18.1034   21.1596 C   0  0  0  0  0  0  0  0  0  0  0  0
   19.7157   18.0406   20.8279 H   0  0  0  0  0  0  0  0  0  0  0  0
   21.3330   17.5460   20.4059 H   0  0  0  0  0  0  0  0  0  0  0  0
   20.9535   17.3659   22.5109 C   0  0  0  0  0  0  0  0  0  0  0  0
   22.0137   17.4008   22.7968 H   0  0  0  0  0  0  0  0  0  0  0  0
   20.7279   16.3034   22.3460 H   0  0  0  0  0  0  0  0  0  0  0  0
   20.0833   17.8542   23.6993 C   0  0  0  0  0  0  0  0  0  0  0  0
   19.0192   17.8029   23.4395 H   0  0  0  0  0  0  0  0  0  0  0  0
   20.2120   17.1260   24.5111 H   0  0  0  0  0  0  0  0  0  0  0  0
   20.4529   19.2643   24.2284 C   0  0  0  0  0  0  0  0  0  0  0  0
   21.4658   19.5191   23.8957 H   0  0  0  0  0  0  0  0  0  0  0  0
   19.4815   20.3888   23.7951 C   0  0  0  0  0  0  0  0  0  0  0  0
   18.5734   20.3112   24.4078 H   0  0  0  0  0  0  0  0  0  0  0  0
   19.9343   21.3556   24.0498 H   0  0  0  0  0  0  0  0  0  0  0  0
   19.0429   20.4114   22.3078 C   0  0  0  0  0  0  0  0  0  0  0  0
   18.3105   21.2223   22.1955 H   0  0  0  0  0  0  0  0  0  0  0  0
   18.4868   19.5004   22.0587 H   0  0  0  0  0  0  0  0  0  0  0  0
   20.1665   20.6565   21.2693 C   0  0  0  0  0  0  0  0  0  0  0  0
   20.6447   21.6242   21.4730 H   0  0  0  0  0  0  0  0  0  0  0  0
   19.6860   20.7650   20.2874 H   0  0  0  0  0  0  0  0  0  0  0  0
   20.4578   19.2289   25.6509 O   0  0  0  0  0  0  0  0  0  0  0  0
   21.1308   18.5667   25.9134 H   0  0  0  0  0  0  0  0  0  0  0  0
  1  2  1  0  0  0  0
  1  3  1  0  0  0  0
  1  4  1  0  0  0  0
  4  5  1  0  0  0  0
  4  6  1  0  0  0  0
  4  7  1  0  0  0  0
  7  8  1  0  0  0  0
  7  9  1  0  0  0  0
  7 10  1  0  0  0  0
 10 11  1  0  0  0  0
 10 12  1  0  0  0  0
 10 13  1  0  0  0  0
 13 14  1  0  0  0  0
 13 15  1  0  0  0  0
 15 16  1  0  0  0  0
 15 17  1  0  0  0  0
 15 18  1  0  0  0  0
 18 19  1  0  0  0  0
 18 20  1  0  0  0  0
  1 21  1  0  0  0  0
 18 21  1  0  0  0  0
 21 22  1  0  0  0  0
 21 23  1  0  0  0  0
 13 24  1  0  0  0  0
 24 25  1  0  0  0  0
M  END
> <VM2 Rank>
2

> <Conf_Id>
384

> <Probability>
4.56

> <Sum Probability>
9.39

> <Delta G>
0.036

> <G>
62.111

> <E>
29.304

> <-TS>
32.807

> <U+W>
8.736

> <U>
10.865

> <W>
-2.129

> <W(PB)>
-4.247

> <W(SA)>
2.118

> <Valence>
16.387

> <Coulomb>
-8.479

> <VdW>
2.957

> <VdW6>
-12.577

> <VdW12>
15.534

> <Bond>
0.441

> <Angle>
5.030

> <Pdih>
10.916

> <Idih>
0.000

> <Tether>
0.000

$$$$
VeraChem MOL file


 25 25  0  0  0  0  0  0  0  0999 V2000     
   21.2426   19.6238   21.1382 C   0  0  0  0  0  0  0  0  0  0  0  0
   21.7261   19.8585   20.1799 H   0  0  0  0  0  0  0  0  0  0  0  0
   21.8987   20.0759   21.8906 H   0  0  0  0  0  0  0  0  0  0  0  0
   21.2325   18.0789   21.2750 C   0  0  0  0  0  0  0  0  0  0  0  0
   20.9680   17.6586   20.2950 H   0  0  0  0  0  0  0  0  0  0  0  0
   22.2546   17.7322   21.4794 H   0  0  0  0  0  0  0  0  0  0  0  0
   20.2644   17.4646   22.3170 C   0  0  0  0  0  0  0  0  0  0  0  0
   20.3179   16.3727   22.2097 H   0  0  0  0  0  0  0  0  0  0  0  0
   19.2271   17.7162   22.0678 H   0  0  0  0  0  0  0  0  0  0  0  0
   20.5610   17.7975   23.8020 C   0  0  0  0  0  0  0  0  0  0  0  0
   19.8657   17.2092   24.4159 H   0  0  0  0  0  0  0  0  0  0  0  0
   21.5665   17.4355   24.0524 H   0  0  0  0  0  0  0  0  0  0  0  0
   20.4475   19.2813   24.2301 C   0  0  0  0  0  0  0  0  0  0  0  0
   21.3424   19.8222   23.9008 H   0  0  0  0  0  0  0  0  0  0  0  0
   19.1906   20.0142   23.6941 C   0  0  0  0  0  0  0  0  0  0  0  0
   18.3986   19.2986   23.4435 H   0  0  0  0  0  0  0  0  0  0  0  0
   18.7750   20.6279   24.5047 H   0  0  0  0  0  0  0  0  0  0  0  0
   19.4602   20.9672   22.4991 C   0  0  0  0  0  0  0  0  0  0  0  0
   20.2333   21.6945   22.7824 H   0  0  0  0  0  0  0  0  0  0  0  0
   18.5490   21.5570   22.3301 H   0  0  0  0  0  0  0  0  0  0  0  0
   19.8481   20.3025   21.1520 C   0  0  0  0  0  0  0  0  0  0  0  0
   19.0662   19.6065   20.8221 H   0  0  0  0  0  0  0  0  0  0  0  0
   19.8606   21.0979   20.3943 H   0  0  0  0  0  0  0  0  0  0  0  0
   20.4169   19.3130   25.6526 O   0  0  0  0  0  0  0  0  0  0  0  0
   21.2419   18.8842   25.9623 H   0  0  0  0  0  0  0  0  0  0  0  0
  1  2  1  0  0  0  0
  1  3  1  0  0  0  0
  1  4  1  0  0  0  0
  4  5  1  0  0  0  0
  4  6  1  0  0  0  0
  4  7  1  0  0  0  0
  7  8  1  0  0  0  0
  7  9  1  0  0  0  0
  7 10  1  0  0  0  0
 10 11  1  0  0  0  0
 10 12  1  0  0  0  0
 10 13  1  0  0  0  0
 13 14  1  0  0  0  0
 13 15  1  0  0  0  0
 15 16  1  0  0  0  0
 15 17  1  0  0  0  0
 15 18  1  0  0  0  0
 18 19  1  0  0  0  0
 18 20  1  0  0  0  0
  1 21  1  0  0  0  0
 18 21  1  0  0  0  0
 21 22  1  0  0  0  0
 21 23  1  0  0  0  0
 13 24  1  0  0  0  0
 24 25  1  0  0  0  0
M  END
> <VM2 Rank>
3

> <Conf_Id>
1279

> <Probability>
4.44

> <Sum Probability>
13.84

> <Delta G>
0.051

> <G>
62.126

> <E>
29.342

> <-TS>
32.784

> <U+W>
8.774

> <U>
10.905

> <W>
-2.131

> <W(PB)>
-4.281

> <W(SA)>
2.150

> <Valence>
16.378

> <Coulomb>
-8.448

> <VdW>
2.976

> <VdW6>
-12.570

> <VdW12>
15.546

> <Bond>
0.439

> <Angle>
5.049

> <Pdih>
10.889

> <Idih>
0.000

> <Tether>
0.000

$$$$
VeraChem MOL file


 25 25  0  0  0  0  0  0  0  0999 V2000     
   21.2430   19.6245   21.1385 C   0  0  0  0  0  0  0  0  0  0  0  0
   21.7249   19.8584   20.1793 H   0  0  0  0  0  0  0  0  0  0  0  0
   21.9002   20.0781   21.8890 H   0  0  0  0  0  0  0  0  0  0  0  0
   21.2350   18.0795   21.2768 C   0  0  0  0  0  0  0  0  0  0  0  0
   20.9743   17.6580   20.2963 H   0  0  0  0  0  0  0  0  0  0  0  0
   22.2571   17.7349   21.4844 H   0  0  0  0  0  0  0  0  0  0  0  0
   20.2653   17.4628   22.3162 C   0  0  0  0  0  0  0  0  0  0  0  0
   20.3216   16.3710   22.2094 H   0  0  0  0  0  0  0  0  0  0  0  0
   19.2283   17.7120   22.0636 H   0  0  0  0  0  0  0  0  0  0  0  0
   20.5560   17.7963   23.8025 C   0  0  0  0  0  0  0  0  0  0  0  0
   19.8580   17.2117   24.4166 H   0  0  0  0  0  0  0  0  0  0  0  0
   21.5594   17.4346   24.0612 H   0  0  0  0  0  0  0  0  0  0  0  0
   20.4461   19.2803   24.2284 C   0  0  0  0  0  0  0  0  0  0  0  0
   21.3429   19.8153   23.8949 H   0  0  0  0  0  0  0  0  0  0  0  0
   19.1884   20.0128   23.6930 C   0  0  0  0  0  0  0  0  0  0  0  0
   18.4006   19.2950   23.4350 H   0  0  0  0  0  0  0  0  0  0  0  0
   18.7624   20.6225   24.5010 H   0  0  0  0  0  0  0  0  0  0  0  0
   19.4604   20.9678   22.5005 C   0  0  0  0  0  0  0  0  0  0  0  0
   20.2338   21.6946   22.7845 H   0  0  0  0  0  0  0  0  0  0  0  0
   18.5497   21.5583   22.3308 H   0  0  0  0  0  0  0  0  0  0  0  0
   19.8483   20.3032   21.1533 C   0  0  0  0  0  0  0  0  0  0  0  0
   19.0665   19.6071   20.8233 H   0  0  0  0  0  0  0  0  0  0  0  0
   19.8605   21.0987   20.3957 H   0  0  0  0  0  0  0  0  0  0  0  0
   20.4215   19.3158   25.6507 O   0  0  0  0  0  0  0  0  0  0  0  0
   20.4280   20.2612   25.9086 H   0  0  0  0  0  0  0  0  0  0  0  0
  1  2  1  0  0  0  0
  1  3  1  0  0  0  0
  1  4  1  0  0  0  0
  4  5  1  0  0  0  0
  4  6  1  0  0  0  0
  4  7  1  0  0  0  0
  7  8  1  0  0  0  0
  7  9  1  0  0  0  0
  7 10  1  0  0  0  0
 10 11  1  0  0  0  0
 10 12  1  0  0  0  0
 10 13  1  0  0  0  0
 13 14  1  0  0  0  0
 13 15  1  0  0  0  0
 15 16  1  0  0  0  0
 15 17  1  0  0  0  0
 15 18  1  0  0  0  0
 18 19  1  0  0  0  0
 18 20  1  0  0  0  0
  1 21  1  0  0  0  0
 18 21  1  0  0  0  0
 21 22  1  0  0  0  0
 21 23  1  0  0  0  0
 13 24  1  0  0  0  0
 24 25  1  0  0  0  0
M  END
> <VM2 Rank>
4

> <Conf_Id>
1494

> <Probability>
4.44

> <Sum Probability>
18.28

> <Delta G>
0.051

> <G>
62.127

> <E>
29.319

> <-TS>
32.807

> <U+W>
8.752

> <U>
10.865

> <W>
-2.113

> <W(PB)>
-4.265

> <W(SA)>
2.152

> <Valence>
16.387

> <Coulomb>
-8.479

> <VdW>
2.957

> <VdW6>
-12.577

> <VdW12>
15.533

> <Bond>
0.441

> <Angle>
5.030

> <Pdih>
10.916

> <Idih>
0.000

> <Tether>
0.000

$$$$
VeraChem MOL file


 25 25  0  0  0  0  0  0  0  0999 V2000     
   20.7558   19.2415   20.8006 C   0  0  0  0  0  0  0  0  0  0  0  0
   20.7018   19.0670   19.7173 H   0  0  0  0  0  0  0  0  0  0  0  0
   21.8175   19.4274   21.0082 H   0  0  0  0  0  0  0  0  0  0  0  0
   20.2662   17.9508   21.5066 C   0  0  0  0  0  0  0  0  0  0  0  0
   19.2041   18.0306   21.7639 H   0  0  0  0  0  0  0  0  0  0  0  0
   20.3137   17.1256   20.7829 H   0  0  0  0  0  0  0  0  0  0  0  0
   21.1004   17.5255   22.7406 C   0  0  0  0  0  0  0  0  0  0  0  0
   22.0421   17.0936   22.3754 H   0  0  0  0  0  0  0  0  0  0  0  0
   20.5849   16.7050   23.2571 H   0  0  0  0  0  0  0  0  0  0  0  0
   21.4660   18.6396   23.7585 C   0  0  0  0  0  0  0  0  0  0  0  0
   22.1041   18.1862   24.5284 H   0  0  0  0  0  0  0  0  0  0  0  0
   22.1068   19.3873   23.2791 H   0  0  0  0  0  0  0  0  0  0  0  0
   20.2997   19.3461   24.4924 C   0  0  0  0  0  0  0  0  0  0  0  0
   20.7561   20.0337   25.2188 H   0  0  0  0  0  0  0  0  0  0  0  0
   19.3298   20.1868   23.6260 C   0  0  0  0  0  0  0  0  0  0  0  0
   18.5532   19.5556   23.1804 H   0  0  0  0  0  0  0  0  0  0  0  0
   18.7873   20.8467   24.3157 H   0  0  0  0  0  0  0  0  0  0  0  0
   19.9923   21.0753   22.5396 C   0  0  0  0  0  0  0  0  0  0  0  0
   21.0294   21.3196   22.8029 H   0  0  0  0  0  0  0  0  0  0  0  0
   19.4641   22.0386   22.5338 H   0  0  0  0  0  0  0  0  0  0  0  0
   19.9095   20.5060   21.0994 C   0  0  0  0  0  0  0  0  0  0  0  0
   18.8591   20.3095   20.8449 H   0  0  0  0  0  0  0  0  0  0  0  0
   20.2360   21.2961   20.4094 H   0  0  0  0  0  0  0  0  0  0  0  0
   19.5444   18.3713   25.1963 O   0  0  0  0  0  0  0  0  0  0  0  0
   19.2505   17.7297   24.5185 H   0  0  0  0  0  0  0  0  0  0  0  0
  1  2  1  0  0  0  0
  1  3  1  0  0  0  0
  1  4  1  0  0  0  0
  4  5  1  0  0  0  0
  4  6  1  0  0  0  0
  4  7  1  0  0  0  0
  7  8  1  0  0  0  0
  7  9  1  0  0  0  0
  7 10  1  0  0  0  0
 10 11  1  0  0  0  0
 10 12  1  0  0  0  0
 10 13  1  0  0  0  0
 13 14  1  0  0  0  0
 13 15  1  0  0  0  0
 15 16  1  0  0  0  0
 15 17  1  0  0  0  0
 15 18  1  0  0  0  0
 18 19  1  0  0  0  0
 18 20  1  0  0  0  0
  1 21  1  0  0  0  0
 18 21  1  0  0  0  0
 21 22  1  0  0  0  0
 21 23  1  0  0  0  0
 13 24  1  0  0  0  0
 24 25  1  0  0  0  0
M  END
> <VM2 Rank>
5

> <Conf_Id>
924

> <Probability>
3.96

> <Sum Probability>
22.24

> <Delta G>
0.120

> <G>
62.195

> <E>
29.408

> <-TS>
32.788

> <U+W>
8.840

> <U>
10.304

> <W>
-1.464

> <W(PB)>
-3.587

> <W(SA)>
2.123

> <Valence>
17.199

> <Coulomb>
-9.376

> <VdW>
2.481

> <VdW6>
-13.059

> <VdW12>
15.540

> <Bond>
0.429

> <Angle>
5.594

> <Pdih>
11.176

> <Idih>
0.000

> <Tether>
0.000

$$$$
VeraChem MOL file


 25 25  0  0  0  0  0  0  0  0999 V2000     
   20.6500   19.4973   20.8001 C   0  0  0  0  0  0  0  0  0  0  0  0
   21.5267   20.1245   21.0071 H   0  0  0  0  0  0  0  0  0  0  0  0
   20.4906   19.5762   19.7160 H   0  0  0  0  0  0  0  0  0  0  0  0
   20.9570   18.0085   21.1066 C   0  0  0  0  0  0  0  0  0  0  0  0
   20.0807   17.3965   20.8527 H   0  0  0  0  0  0  0  0  0  0  0  0
   21.7508   17.6839   20.4201 H   0  0  0  0  0  0  0  0  0  0  0  0
   21.4170   17.6748   22.5495 C   0  0  0  0  0  0  0  0  0  0  0  0
   22.3179   18.2438   22.8126 H   0  0  0  0  0  0  0  0  0  0  0  0
   21.7331   16.6227   22.5493 H   0  0  0  0  0  0  0  0  0  0  0  0
   20.3162   17.8308   23.6324 C   0  0  0  0  0  0  0  0  0  0  0  0
   19.3228   17.7179   23.1848 H   0  0  0  0  0  0  0  0  0  0  0  0
   20.4043   16.9845   24.3262 H   0  0  0  0  0  0  0  0  0  0  0  0
   20.3951   19.1158   24.4931 C   0  0  0  0  0  0  0  0  0  0  0  0
   21.2034   18.9621   25.2224 H   0  0  0  0  0  0  0  0  0  0  0  0
   20.7115   20.4392   23.7539 C   0  0  0  0  0  0  0  0  0  0  0  0
   20.8339   21.2155   24.5206 H   0  0  0  0  0  0  0  0  0  0  0  0
   21.6952   20.3693   23.2774 H   0  0  0  0  0  0  0  0  0  0  0  0
   19.6637   20.9554   22.7310 C   0  0  0  0  0  0  0  0  0  0  0  0
   20.0174   21.9279   22.3622 H   0  0  0  0  0  0  0  0  0  0  0  0
   18.7160   21.1659   23.2440 H   0  0  0  0  0  0  0  0  0  0  0  0
   19.3849   20.0568   21.5003 C   0  0  0  0  0  0  0  0  0  0  0  0
   18.8319   20.6662   20.7724 H   0  0  0  0  0  0  0  0  0  0  0  0
   18.6961   19.2451   21.7596 H   0  0  0  0  0  0  0  0  0  0  0  0
   19.1686   19.2644   25.1931 O   0  0  0  0  0  0  0  0  0  0  0  0
   18.5070   19.5019   24.5124 H   0  0  0  0  0  0  0  0  0  0  0  0
  1  2  1  0  0  0  0
  1  3  1  0  0  0  0
  1  4  1  0  0  0  0
  4  5  1  0  0  0  0
  4  6  1  0  0  0  0
  4  7  1  0  0  0  0
  7  8  1  0  0  0  0
  7  9  1  0  0  0  0
  7 10  1  0  0  0  0
 10 11  1  0  0  0  0
 10 12  1  0  0  0  0
 10 13  1  0  0  0  0
 13 14  1  0  0  0  0
 13 15  1  0  0  0  0
 15 16  1  0  0  0  0
 15 17  1  0  0  0  0
 15 18  1  0  0  0  0
 18 19  1  0  0  0  0
 18 20  1  0  0  0  0
  1 21  1  0  0  0  0
 18 21  1  0  0  0  0
 21 22  1  0  0  0  0
 21 23  1  0  0  0  0
 13 24  1  0  0  0  0
 24 25  1  0  0  0  0
M  END
> <VM2 Rank>
6

> <Conf_Id>
88

> <Probability>
3.80

> <Sum Probability>
26.04

> <Delta G>
0.144

> <G>
62.220

> <E>
29.432

> <-TS>
32.788

> <U+W>
8.864

> <U>
10.304

> <W>
-1.439

> <W(PB)>
-3.553

> <W(SA)>
2.114

> <Valence>
17.199

> <Coulomb>
-9.376

> <VdW>
2.481

> <VdW6>
-13.059

> <VdW12>
15.540

> <Bond>
0.429

> <Angle>
5.594

> <Pdih>
11.176

> <Idih>
0.000

> <Tether>
0.000

$$$$
VeraChem MOL file


 25 25  0  0  0  0  0  0  0  0999 V2000     
   21.2427   19.6234   21.1390 C   0  0  0  0  0  0  0  0  0  0  0  0
   21.7270   19.8592   20.1814 H   0  0  0  0  0  0  0  0  0  0  0  0
   21.8982   20.0741   21.8927 H   0  0  0  0  0  0  0  0  0  0  0  0
   21.2319   18.0785   21.2740 C   0  0  0  0  0  0  0  0  0  0  0  0
   20.9662   17.6591   20.2939 H   0  0  0  0  0  0  0  0  0  0  0  0
   22.2540   17.7313   21.4771 H   0  0  0  0  0  0  0  0  0  0  0  0
   20.2649   17.4640   22.3168 C   0  0  0  0  0  0  0  0  0  0  0  0
   20.3195   16.3721   22.2097 H   0  0  0  0  0  0  0  0  0  0  0  0
   19.2273   17.7145   22.0680 H   0  0  0  0  0  0  0  0  0  0  0  0
   20.5624   17.7974   23.8015 C   0  0  0  0  0  0  0  0  0  0  0  0
   19.8736   17.2021   24.4153 H   0  0  0  0  0  0  0  0  0  0  0  0
   21.5707   17.4429   24.0517 H   0  0  0  0  0  0  0  0  0  0  0  0
   20.4456   19.2809   24.2303 C   0  0  0  0  0  0  0  0  0  0  0  0
   21.3417   19.8211   23.9035 H   0  0  0  0  0  0  0  0  0  0  0  0
   19.1892   20.0151   23.6944 C   0  0  0  0  0  0  0  0  0  0  0  0
   18.3966   19.3011   23.4403 H   0  0  0  0  0  0  0  0  0  0  0  0
   18.7731   20.6323   24.5021 H   0  0  0  0  0  0  0  0  0  0  0  0
   19.4613   20.9676   22.4997 C   0  0  0  0  0  0  0  0  0  0  0  0
   20.2358   21.6934   22.7833 H   0  0  0  0  0  0  0  0  0  0  0  0
   18.5514   21.5593   22.3301 H   0  0  0  0  0  0  0  0  0  0  0  0
   19.8483   20.3022   21.1527 C   0  0  0  0  0  0  0  0  0  0  0  0
   19.8609   21.0974   20.3947 H   0  0  0  0  0  0  0  0  0  0  0  0
   19.0662   19.6064   20.8232 H   0  0  0  0  0  0  0  0  0  0  0  0
   20.4176   19.3139   25.6518 O   0  0  0  0  0  0  0  0  0  0  0  0
   19.6033   18.8430   25.9239 H   0  0  0  0  0  0  0  0  0  0  0  0
  1  2  1  0  0  0  0
  1  3  1  0  0  0  0
  1  4  1  0  0  0  0
  4  5  1  0  0  0  0
  4  6  1  0  0  0  0
  4  7  1  0  0  0  0
  7  8  1  0  0  0  0
  7  9  1  0  0  0  0
  7 10  1  0  0  0  0
 10 11  1  0  0  0  0
 10 12  1  0  0  0  0
 10 13  1  0  0  0  0
 13 14  1  0  0  0  0
 13 15  1  0  0  0  0
 15 16  1  0  0  0  0
 15 17  1  0  0  0  0
 15 18  1  0  0  0  0
 18 19  1  0  0  0  0
 18 20  1  0  0  0  0
  1 21  1  0  0  0  0
 18 21  1  0  0  0  0
 21 22  1  0  0  0  0
 21 23  1  0  0  0  0
 13 24  1  0  0  0  0
 24 25  1  0  0  0  0
M  END
> <VM2 Rank>
7

> <Conf_Id>
1311

> <Probability>
3.71

> <Sum Probability>
29.74

> <Delta G>
0.159

> <G>
62.234

> <E>
29.468

> <-TS>
32.766

> <U+W>
8.900

> <U>
10.935

> <W>
-2.035

> <W(PB)>
-4.170

> <W(SA)>
2.136

> <Valence>
16.757

> <Coulomb>
-8.731

> <VdW>
2.908

> <VdW6>
-12.597

> <VdW12>
15.505

> <Bond>
0.434

> <Angle>
5.069

> <Pdih>
11.254

> <Idih>
0.000

> <Tether>
0.000

$$$$
VeraChem MOL file


 25 25  0  0  0  0  0  0  0  0999 V2000     
   21.2648   19.5703   21.1392 C   0  0  0  0  0  0  0  0  0  0  0  0
   21.7758   19.7416   20.1818 H   0  0  0  0  0  0  0  0  0  0  0  0
   22.0454   19.7192   21.8938 H   0  0  0  0  0  0  0  0  0  0  0  0
   20.7595   18.1041   21.1590 C   0  0  0  0  0  0  0  0  0  0  0  0
   19.7151   18.0410   20.8276 H   0  0  0  0  0  0  0  0  0  0  0  0
   21.3325   17.5474   20.4049 H   0  0  0  0  0  0  0  0  0  0  0  0
   20.9539   17.3667   22.5099 C   0  0  0  0  0  0  0  0  0  0  0  0
   22.0142   17.4030   22.7955 H   0  0  0  0  0  0  0  0  0  0  0  0
   20.7298   16.3039   22.3451 H   0  0  0  0  0  0  0  0  0  0  0  0
   20.0853   17.8531   23.7005 C   0  0  0  0  0  0  0  0  0  0  0  0
   19.0206   17.7958   23.4445 H   0  0  0  0  0  0  0  0  0  0  0  0
   20.2263   17.1265   24.5121 H   0  0  0  0  0  0  0  0  0  0  0  0
   20.4528   19.2635   24.2303 C   0  0  0  0  0  0  0  0  0  0  0  0
   21.4689   19.5141   23.9045 H   0  0  0  0  0  0  0  0  0  0  0  0
   19.4867   20.3924   23.7941 C   0  0  0  0  0  0  0  0  0  0  0  0
   18.5775   20.3289   24.4063 H   0  0  0  0  0  0  0  0  0  0  0  0
   19.9480   21.3576   24.0405 H   0  0  0  0  0  0  0  0  0  0  0  0
   19.0436   20.4105   22.3083 C   0  0  0  0  0  0  0  0  0  0  0  0
   18.3100   21.2203   22.1958 H   0  0  0  0  0  0  0  0  0  0  0  0
   18.4880   19.4981   22.0628 H   0  0  0  0  0  0  0  0  0  0  0  0
   20.1639   20.6551   21.2666 C   0  0  0  0  0  0  0  0  0  0  0  0
   20.6403   21.6246   21.4661 H   0  0  0  0  0  0  0  0  0  0  0  0
   19.6815   20.7588   20.2850 H   0  0  0  0  0  0  0  0  0  0  0  0
   20.4534   19.2272   25.6521 O   0  0  0  0  0  0  0  0  0  0  0  0
   19.5443   18.9850   25.9234 H   0  0  0  0  0  0  0  0  0  0  0  0
  1  2  1  0  0  0  0
  1  3  1  0  0  0  0
  1  4  1  0  0  0  0
  4  5  1  0  0  0  0
  4  6  1  0  0  0  0
  4  7  1  0  0  0  0
  7  8  1  0  0  0  0
  7  9  1  0  0  0  0
  7 10  1  0  0  0  0
 10 11  1  0  0  0  0
 10 12  1  0  0  0  0
 10 13  1  0  0  0  0
 13 14  1  0  0  0  0
 13 15  1  0  0  0  0
 15 16  1  0  0  0  0
 15 17  1  0  0  0  0
 15 18  1  0  0  0  0
 18 19  1  0  0  0  0
 18 20  1  0  0  0  0
  1 21  1  0  0  0  0
 18 21  1  0  0  0  0
 21 22  1  0  0  0  0
 21 23  1  0  0  0  0
 13 24  1  0  0  0  0
 24 25  1  0  0  0  0
M  END
> <VM2 Rank>
8

> <Conf_Id>
1371

> <Probability>
3.62

> <Sum Probability>
33.36

> <Delta G>
0.173

> <G>
62.249

> <E>
29.482

> <-TS>
32.767

> <U+W>
8.915

> <U>
10.935

> <W>
-2.020

> <W(PB)>
-4.135

> <W(SA)>
2.115

> <Valence>
16.758

> <Coulomb>
-8.731

> <VdW>
2.908

> <VdW6>
-12.597

> <VdW12>
15.505

> <Bond>
0.434

> <Angle>
5.070

> <Pdih>
11.254

> <Idih>
0.000

> <Tether>
0.000

$$$$
