VeraChem MOL file


 29 28  0  0  0  0  0  0  0  0999 V2000     
   19.9950   18.9913   18.8122 C   0  0  0  0  0  0  0  0  0  0  0  0
   20.8996   19.6134   18.8050 H   0  0  0  0  0  0  0  0  0  0  0  0
   20.3036   17.9386   18.7677 H   0  0  0  0  0  0  0  0  0  0  0  0
   19.4252   19.2143   17.9009 H   0  0  0  0  0  0  0  0  0  0  0  0
   19.1426   19.2667   20.0690 C   0  0  0  0  0  0  0  0  0  0  0  0
   18.2298   18.6558   20.0314 H   0  0  0  0  0  0  0  0  0  0  0  0
   18.8212   20.3177   20.0684 H   0  0  0  0  0  0  0  0  0  0  0  0
   19.9220   18.9603   21.3669 C   0  0  0  0  0  0  0  0  0  0  0  0
   20.2432   17.9095   21.3619 H   0  0  0  0  0  0  0  0  0  0  0  0
   20.8346   19.5715   21.3990 H   0  0  0  0  0  0  0  0  0  0  0  0
   19.0717   19.2348   22.6277 C   0  0  0  0  0  0  0  0  0  0  0  0
   18.1591   18.6236   22.5948 H   0  0  0  0  0  0  0  0  0  0  0  0
   18.7507   20.2857   22.6319 H   0  0  0  0  0  0  0  0  0  0  0  0
   19.8517   18.9282   23.9260 C   0  0  0  0  0  0  0  0  0  0  0  0
   20.1729   17.8774   23.9214 H   0  0  0  0  0  0  0  0  0  0  0  0
   20.7643   19.5395   23.9585 H   0  0  0  0  0  0  0  0  0  0  0  0
   19.0012   19.2027   25.1867 C   0  0  0  0  0  0  0  0  0  0  0  0
   18.0885   18.5914   25.1547 H   0  0  0  0  0  0  0  0  0  0  0  0
   18.6799   20.2536   25.1918 H   0  0  0  0  0  0  0  0  0  0  0  0
   19.7803   18.8965   26.4847 C   0  0  0  0  0  0  0  0  0  0  0  0
   20.0987   17.8455   26.4858 H   0  0  0  0  0  0  0  0  0  0  0  0
   20.6907   19.5094   26.5230 H   0  0  0  0  0  0  0  0  0  0  0  0
   18.9245   19.1732   27.7332 C   0  0  0  0  0  0  0  0  0  0  0  0
   18.0245   18.5528   27.7077 H   0  0  0  0  0  0  0  0  0  0  0  0
   18.6188   20.2229   27.7450 H   0  0  0  0  0  0  0  0  0  0  0  0
   19.6549   18.8843   29.0286 N   0  3  0  0  0  0  0  0  0  0  0  0
   20.4996   19.4574   29.1268 H   0  0  0  0  0  0  0  0  0  0  0  0
   19.9466   17.9032   29.0920 H   0  0  0  0  0  0  0  0  0  0  0  0
   19.0675   19.0750   29.8479 H   0  0  0  0  0  0  0  0  0  0  0  0
  1  2  1  0  0  0  0
  1  3  1  0  0  0  0
  1  4  1  0  0  0  0
  1  5  1  0  0  0  0
  5  6  1  0  0  0  0
  5  7  1  0  0  0  0
  5  8  1  0  0  0  0
  8  9  1  0  0  0  0
  8 10  1  0  0  0  0
  8 11  1  0  0  0  0
 11 12  1  0  0  0  0
 11 13  1  0  0  0  0
 11 14  1  0  0  0  0
 14 15  1  0  0  0  0
 14 16  1  0  0  0  0
 14 17  1  0  0  0  0
 17 18  1  0  0  0  0
 17 19  1  0  0  0  0
 17 20  1  0  0  0  0
 20 21  1  0  0  0  0
 20 22  1  0  0  0  0
 20 23  1  0  0  0  0
 23 24  1  0  0  0  0
 23 25  1  0  0  0  0
 23 26  1  0  0  0  0
 26 27  1  0  0  0  0
 26 28  1  0  0  0  0
 26 29  1  0  0  0  0
M  END
> <VM2 Rank>
1

> <Conf_Id>
1101

> <Probability>
5.28

> <Sum Probability>
5.28

> <Delta G>
0.000

> <G>
58.146

> <E>
20.962

> <-TS>
37.184

> <U+W>
-3.183

> <U>
47.674

> <W>
-50.852

> <W(PB)>
-53.433

> <W(SA)>
2.581

> <Valence>
2.587

> <Coulomb>
44.357

> <VdW>
0.730

> <VdW6>
-6.901

> <VdW12>
7.631

> <Bond>
0.145

> <Angle>
0.401

> <Pdih>
2.040

> <Idih>
0.000

> <Tether>
0.000

$$$$
