@<TRIPOS>MOLECULE
guest-1_vm2.mol2 : vm2 ligand conformer 1
          17          16           1
SMALL
USER_CHARGES
 
@<TRIPOS>ATOM
       1    N1      19.626246   18.841343   24.138330 N.4        1 MOL1        -0.5891
       2    H1      20.058106   19.190740   24.999914 H          1 MOL1         0.3726
       3    H2      19.653168   17.818329   24.187449 H          1 MOL1         0.3726
       4    H3      18.640205   19.117983   24.168140 H          1 MOL1         0.3726
       5    C1      20.327110   19.369245   22.902423 C.3        1 MOL1         0.0314
       6    H4      21.375809   19.063914   22.952697 H          1 MOL1         0.0999
       7    H5      20.286610   20.461495   22.931992 H          1 MOL1         0.0999
       8    C2      19.703426   18.863720   21.588757 C.3        1 MOL1        -0.1308
       9    H6      19.731932   17.766084   21.569486 H          1 MOL1         0.1025
      10    H7      18.646412   19.158883   21.548873 H          1 MOL1         0.1025
      11    C3      20.446130   19.424329   20.356025 C.3        1 MOL1        -0.1243
      12    H8      21.504999   19.132035   20.397107 H          1 MOL1         0.1025
      13    H9      20.420692   20.523084   20.376432 H          1 MOL1         0.1025
      14    C4      19.826088   18.921362   19.034464 C.3        1 MOL1        -0.2258
      15    H10     18.775558   19.228319   18.948608 H          1 MOL1         0.1036
      16    H11     19.868378   17.826284   18.969484 H          1 MOL1         0.1036
      17    H12     20.367489   19.330508   18.171600 H          1 MOL1         0.1036
@<TRIPOS>BOND
    1     1     2    1
    2     1     3    1
    3     1     4    1
    4     1     5    1
    5     5     6    1
    6     5     7    1
    7     5     8    1
    8     8     9    1
    9     8    10    1
   10     8    11    1
   11    11    12    1
   12    11    13    1
   13    11    14    1
   14    14    15    1
   15    14    16    1
   16    14    17    1
@<TRIPOS>SUBSTRUCTURE
       1 MOL1            1 RESIDUE      1      MOL     
@<SCITEGIC>MOL_PROPERTY
VM2 Rank
SciTegic.value.IntegerValue
1

@<SCITEGIC>MOL_PROPERTY
Conf_Id
SciTegic.value.IntegerValue
119

@<SCITEGIC>MOL_PROPERTY
Probability
SciTegic.value.DoubleValue
28.02

@<SCITEGIC>MOL_PROPERTY
Sum Probability
SciTegic.value.DoubleValue
28.02

@<SCITEGIC>MOL_PROPERTY
Delta G
SciTegic.value.DoubleValue
0.000

@<SCITEGIC>MOL_PROPERTY
G
SciTegic.value.DoubleValue
15.406

@<SCITEGIC>MOL_PROPERTY
E
SciTegic.value.DoubleValue
-2.452

@<SCITEGIC>MOL_PROPERTY
-TS
SciTegic.value.DoubleValue
17.858

@<SCITEGIC>MOL_PROPERTY
U+W
SciTegic.value.DoubleValue
-15.866

@<SCITEGIC>MOL_PROPERTY
U
SciTegic.value.DoubleValue
44.664

@<SCITEGIC>MOL_PROPERTY
W
SciTegic.value.DoubleValue
-60.530

@<SCITEGIC>MOL_PROPERTY
W(PB)
SciTegic.value.DoubleValue
-62.308

@<SCITEGIC>MOL_PROPERTY
W(SA)
SciTegic.value.DoubleValue
1.778

@<SCITEGIC>MOL_PROPERTY
Valence
SciTegic.value.DoubleValue
0.872

@<SCITEGIC>MOL_PROPERTY
Coulomb
SciTegic.value.DoubleValue
43.648

@<SCITEGIC>MOL_PROPERTY
VdW
SciTegic.value.DoubleValue
0.144

@<SCITEGIC>MOL_PROPERTY
VdW6
SciTegic.value.DoubleValue
-2.370

@<SCITEGIC>MOL_PROPERTY
VdW12
SciTegic.value.DoubleValue
2.515

@<SCITEGIC>MOL_PROPERTY
Bond
SciTegic.value.DoubleValue
0.080

@<SCITEGIC>MOL_PROPERTY
Angle
SciTegic.value.DoubleValue
0.375

@<SCITEGIC>MOL_PROPERTY
Pdih
SciTegic.value.DoubleValue
0.416

@<SCITEGIC>MOL_PROPERTY
Idih
SciTegic.value.DoubleValue
0.000

@<SCITEGIC>MOL_PROPERTY
Tether
SciTegic.value.DoubleValue
0.000

