VeraChem MOL file


 22 21  0  0  0  0  0  0  0  0999 V2000     
   19.8314   19.1341   26.1875 C   0  0  0  0  0  0  0  0  0  0  0  0
   20.0587   20.2372   26.6434 O   0  5  0  0  0  0  0  0  0  0  0  0
   20.1745   18.0999   26.7251 O   0  0  0  0  0  0  0  0  0  0  0  0
   19.0946   19.0433   24.8559 C   0  0  0  0  0  0  0  0  0  0  0  0
   18.3980   19.8879   24.7937 H   0  0  0  0  0  0  0  0  0  0  0  0
   18.4929   18.1264   24.8613 H   0  0  0  0  0  0  0  0  0  0  0  0
   20.0506   19.0480   23.6377 C   0  0  0  0  0  0  0  0  0  0  0  0
   20.6548   19.9657   23.6541 H   0  0  0  0  0  0  0  0  0  0  0  0
   20.7496   18.2043   23.7217 H   0  0  0  0  0  0  0  0  0  0  0  0
   19.2808   18.9554   22.3025 C   0  0  0  0  0  0  0  0  0  0  0  0
   18.5821   19.7995   22.2223 H   0  0  0  0  0  0  0  0  0  0  0  0
   18.6768   18.0376   22.2898 H   0  0  0  0  0  0  0  0  0  0  0  0
   20.2363   18.9603   21.0900 C   0  0  0  0  0  0  0  0  0  0  0  0
   20.8405   19.8778   21.1023 H   0  0  0  0  0  0  0  0  0  0  0  0
   20.9351   18.1162   21.1698 H   0  0  0  0  0  0  0  0  0  0  0  0
   19.4677   18.8679   19.7552 C   0  0  0  0  0  0  0  0  0  0  0  0
   18.7690   19.7118   19.6708 H   0  0  0  0  0  0  0  0  0  0  0  0
   18.8635   17.9502   19.7382 H   0  0  0  0  0  0  0  0  0  0  0  0
   20.4254   18.8730   18.5468 C   0  0  0  0  0  0  0  0  0  0  0  0
   21.0205   19.7953   18.5213 H   0  0  0  0  0  0  0  0  0  0  0  0
   19.8624   18.8068   17.6067 H   0  0  0  0  0  0  0  0  0  0  0  0
   21.1158   18.0204   18.5892 H   0  0  0  0  0  0  0  0  0  0  0  0
  1  2  1  0  0  0  0
  1  3  2  0  0  0  0
  1  4  1  0  0  0  0
  4  5  1  0  0  0  0
  4  6  1  0  0  0  0
  4  7  1  0  0  0  0
  7  8  1  0  0  0  0
  7  9  1  0  0  0  0
  7 10  1  0  0  0  0
 10 11  1  0  0  0  0
 10 12  1  0  0  0  0
 10 13  1  0  0  0  0
 13 14  1  0  0  0  0
 13 15  1  0  0  0  0
 13 16  1  0  0  0  0
 16 17  1  0  0  0  0
 16 18  1  0  0  0  0
 16 19  1  0  0  0  0
 19 20  1  0  0  0  0
 19 21  1  0  0  0  0
 19 22  1  0  0  0  0
M  END
> <VM2 Rank>
1

> <Conf_Id>
394

> <Probability>
32.50

> <Sum Probability>
32.50

> <Delta G>
0.000

> <G>
-16.998

> <E>
-36.566

> <-TS>
19.568

> <U+W>
-54.451

> <U>
5.779

> <W>
-60.230

> <W(PB)>
-62.557

> <W(SA)>
2.328

> <Valence>
7.101

> <Coulomb>
-2.079

> <VdW>
0.757

> <VdW6>
-6.496

> <VdW12>
7.253

> <Bond>
0.100

> <Angle>
2.262

> <Pdih>
4.739

> <Idih>
0.001

> <Tether>
0.000

$$$$
VeraChem MOL file


 22 21  0  0  0  0  0  0  0  0999 V2000     
   19.7290   18.8549   25.9656 C   0  0  0  0  0  0  0  0  0  0  0  0
   19.2129   19.6430   26.7331 O   0  5  0  0  0  0  0  0  0  0  0  0
   20.5232   18.0022   26.3100 O   0  0  0  0  0  0  0  0  0  0  0  0
   19.3783   18.9570   24.4854 C   0  0  0  0  0  0  0  0  0  0  0  0
   18.3434   19.3104   24.4046 H   0  0  0  0  0  0  0  0  0  0  0  0
   19.4108   17.9456   24.0649 H   0  0  0  0  0  0  0  0  0  0  0  0
   20.3293   19.9034   23.7076 C   0  0  0  0  0  0  0  0  0  0  0  0
   20.3431   20.8804   24.2104 H   0  0  0  0  0  0  0  0  0  0  0  0
   21.3557   19.5145   23.7577 H   0  0  0  0  0  0  0  0  0  0  0  0
   19.9207   20.1122   22.2300 C   0  0  0  0  0  0  0  0  0  0  0  0
   20.5735   20.8804   21.7933 H   0  0  0  0  0  0  0  0  0  0  0  0
   18.8979   20.5106   22.1839 H   0  0  0  0  0  0  0  0  0  0  0  0
   20.0180   18.8259   21.3776 C   0  0  0  0  0  0  0  0  0  0  0  0
   21.0269   18.4007   21.4682 H   0  0  0  0  0  0  0  0  0  0  0  0
   19.3163   18.0713   21.7559 H   0  0  0  0  0  0  0  0  0  0  0  0
   19.7076   19.1024   19.8915 C   0  0  0  0  0  0  0  0  0  0  0  0
   20.4100   19.8506   19.4987 H   0  0  0  0  0  0  0  0  0  0  0  0
   18.6997   19.5298   19.7971 H   0  0  0  0  0  0  0  0  0  0  0  0
   19.8010   17.8181   19.0433 C   0  0  0  0  0  0  0  0  0  0  0  0
   19.0854   17.0628   19.3940 H   0  0  0  0  0  0  0  0  0  0  0  0
   20.8088   17.3857   19.0950 H   0  0  0  0  0  0  0  0  0  0  0  0
   19.5779   18.0330   17.9901 H   0  0  0  0  0  0  0  0  0  0  0  0
  1  2  1  0  0  0  0
  1  3  2  0  0  0  0
  1  4  1  0  0  0  0
  4  5  1  0  0  0  0
  4  6  1  0  0  0  0
  4  7  1  0  0  0  0
  7  8  1  0  0  0  0
  7  9  1  0  0  0  0
  7 10  1  0  0  0  0
 10 11  1  0  0  0  0
 10 12  1  0  0  0  0
 10 13  1  0  0  0  0
 13 14  1  0  0  0  0
 13 15  1  0  0  0  0
 13 16  1  0  0  0  0
 16 17  1  0  0  0  0
 16 18  1  0  0  0  0
 16 19  1  0  0  0  0
 19 20  1  0  0  0  0
 19 21  1  0  0  0  0
 19 22  1  0  0  0  0
M  END
> <VM2 Rank>
2

> <Conf_Id>
231

> <Probability>
8.38

> <Sum Probability>
40.88

> <Delta G>
0.808

> <G>
-16.190

> <E>
-35.867

> <-TS>
19.677

> <U+W>
-53.752

> <U>
6.782

> <W>
-60.534

> <W(PB)>
-62.847

> <W(SA)>
2.313

> <Valence>
7.621

> <Coulomb>
-1.711

> <VdW>
0.872

> <VdW6>
-7.188

> <VdW12>
8.060

> <Bond>
0.142

> <Angle>
2.504

> <Pdih>
4.974

> <Idih>
0.001

> <Tether>
0.000

$$$$
VeraChem MOL file


 22 21  0  0  0  0  0  0  0  0999 V2000     
   20.1334   19.1302   25.9560 C   0  0  0  0  0  0  0  0  0  0  0  0
   19.6138   19.9158   26.7237 O   0  5  0  0  0  0  0  0  0  0  0  0
   20.6479   18.0869   26.3070 O   0  0  0  0  0  0  0  0  0  0  0  0
   20.1189   19.4613   24.4679 C   0  0  0  0  0  0  0  0  0  0  0  0
   21.0341   19.0511   24.0264 H   0  0  0  0  0  0  0  0  0  0  0  0
   20.1662   20.5517   24.3615 H   0  0  0  0  0  0  0  0  0  0  0  0
   18.8654   18.9069   23.7423 C   0  0  0  0  0  0  0  0  0  0  0  0
   18.8531   17.8107   23.8170 H   0  0  0  0  0  0  0  0  0  0  0  0
   17.9680   19.2635   24.2667 H   0  0  0  0  0  0  0  0  0  0  0  0
   18.7730   19.3309   22.2572 C   0  0  0  0  0  0  0  0  0  0  0  0
   18.7755   20.4272   22.1868 H   0  0  0  0  0  0  0  0  0  0  0  0
   17.8054   18.9960   21.8589 H   0  0  0  0  0  0  0  0  0  0  0  0
   19.9060   18.7497   21.3803 C   0  0  0  0  0  0  0  0  0  0  0  0
   20.8770   19.1337   21.7189 H   0  0  0  0  0  0  0  0  0  0  0  0
   19.9350   17.6574   21.4940 H   0  0  0  0  0  0  0  0  0  0  0  0
   19.7145   19.1071   19.8913 C   0  0  0  0  0  0  0  0  0  0  0  0
   19.6831   20.1992   19.7738 H   0  0  0  0  0  0  0  0  0  0  0  0
   18.7487   18.7199   19.5381 H   0  0  0  0  0  0  0  0  0  0  0  0
   20.8471   18.5302   19.0184 C   0  0  0  0  0  0  0  0  0  0  0  0
   21.8229   18.9260   19.3291 H   0  0  0  0  0  0  0  0  0  0  0  0
   20.6948   18.7933   17.9636 H   0  0  0  0  0  0  0  0  0  0  0  0
   20.8816   17.4354   19.0932 H   0  0  0  0  0  0  0  0  0  0  0  0
  1  2  1  0  0  0  0
  1  3  2  0  0  0  0
  1  4  1  0  0  0  0
  4  5  1  0  0  0  0
  4  6  1  0  0  0  0
  4  7  1  0  0  0  0
  7  8  1  0  0  0  0
  7  9  1  0  0  0  0
  7 10  1  0  0  0  0
 10 11  1  0  0  0  0
 10 12  1  0  0  0  0
 10 13  1  0  0  0  0
 13 14  1  0  0  0  0
 13 15  1  0  0  0  0
 13 16  1  0  0  0  0
 16 17  1  0  0  0  0
 16 18  1  0  0  0  0
 16 19  1  0  0  0  0
 19 20  1  0  0  0  0
 19 21  1  0  0  0  0
 19 22  1  0  0  0  0
M  END
> <VM2 Rank>
3

> <Conf_Id>
110

> <Probability>
7.52

> <Sum Probability>
48.40

> <Delta G>
0.873

> <G>
-16.125

> <E>
-35.802

> <-TS>
19.677

> <U+W>
-53.687

> <U>
6.782

> <W>
-60.469

> <W(PB)>
-62.789

> <W(SA)>
2.320

> <Valence>
7.621

> <Coulomb>
-1.711

> <VdW>
0.872

> <VdW6>
-7.188

> <VdW12>
8.060

> <Bond>
0.142

> <Angle>
2.504

> <Pdih>
4.974

> <Idih>
0.001

> <Tether>
0.000

$$$$
VeraChem MOL file


 22 21  0  0  0  0  0  0  0  0999 V2000     
   19.9961   19.0328   25.9874 C   0  0  0  0  0  0  0  0  0  0  0  0
   20.3224   20.0800   26.5104 O   0  5  0  0  0  0  0  0  0  0  0  0
   20.4207   17.9476   26.3318 O   0  0  0  0  0  0  0  0  0  0  0  0
   19.0155   19.0853   24.8213 C   0  0  0  0  0  0  0  0  0  0  0  0
   18.3318   19.9261   24.9890 H   0  0  0  0  0  0  0  0  0  0  0  0
   18.4134   18.1688   24.8408 H   0  0  0  0  0  0  0  0  0  0  0  0
   19.7191   19.2327   23.4497 C   0  0  0  0  0  0  0  0  0  0  0  0
   20.3245   20.1497   23.4494 H   0  0  0  0  0  0  0  0  0  0  0  0
   20.4116   18.3916   23.3142 H   0  0  0  0  0  0  0  0  0  0  0  0
   18.7022   19.2787   22.2857 C   0  0  0  0  0  0  0  0  0  0  0  0
   17.9736   20.0777   22.4798 H   0  0  0  0  0  0  0  0  0  0  0  0
   18.1327   18.3397   22.2536 H   0  0  0  0  0  0  0  0  0  0  0  0
   19.3550   19.5357   20.9068 C   0  0  0  0  0  0  0  0  0  0  0  0
   18.5570   19.6777   20.1652 H   0  0  0  0  0  0  0  0  0  0  0  0
   19.9215   20.4764   20.9373 H   0  0  0  0  0  0  0  0  0  0  0  0
   20.2767   18.3875   20.4374 C   0  0  0  0  0  0  0  0  0  0  0  0
   19.7250   17.4375   20.4573 H   0  0  0  0  0  0  0  0  0  0  0  0
   21.1264   18.2793   21.1242 H   0  0  0  0  0  0  0  0  0  0  0  0
   20.8123   18.6387   19.0134 C   0  0  0  0  0  0  0  0  0  0  0  0
   21.4672   17.8169   18.6960 H   0  0  0  0  0  0  0  0  0  0  0  0
   21.3921   19.5701   18.9710 H   0  0  0  0  0  0  0  0  0  0  0  0
   19.9889   18.7140   18.2911 H   0  0  0  0  0  0  0  0  0  0  0  0
  1  2  1  0  0  0  0
  1  3  2  0  0  0  0
  1  4  1  0  0  0  0
  4  5  1  0  0  0  0
  4  6  1  0  0  0  0
  4  7  1  0  0  0  0
  7  8  1  0  0  0  0
  7  9  1  0  0  0  0
  7 10  1  0  0  0  0
 10 11  1  0  0  0  0
 10 12  1  0  0  0  0
 10 13  1  0  0  0  0
 13 14  1  0  0  0  0
 13 15  1  0  0  0  0
 13 16  1  0  0  0  0
 16 17  1  0  0  0  0
 16 18  1  0  0  0  0
 16 19  1  0  0  0  0
 19 20  1  0  0  0  0
 19 21  1  0  0  0  0
 19 22  1  0  0  0  0
M  END
> <VM2 Rank>
4

> <Conf_Id>
132

> <Probability>
7.46

> <Sum Probability>
55.85

> <Delta G>
0.878

> <G>
-16.120

> <E>
-35.794

> <-TS>
19.673

> <U+W>
-53.679

> <U>
7.026

> <W>
-60.705

> <W(PB)>
-63.009

> <W(SA)>
2.304

> <Valence>
7.638

> <Coulomb>
-1.488

> <VdW>
0.877

> <VdW6>
-7.165

> <VdW12>
8.042

> <Bond>
0.134

> <Angle>
2.513

> <Pdih>
4.990

> <Idih>
0.001

> <Tether>
0.000

$$$$
VeraChem MOL file


 22 21  0  0  0  0  0  0  0  0999 V2000     
   19.6002   19.0277   25.9802 C   0  0  0  0  0  0  0  0  0  0  0  0
   19.2278   20.0659   26.4900 O   0  5  0  0  0  0  0  0  0  0  0  0
   19.1925   17.9317   26.3104 O   0  0  0  0  0  0  0  0  0  0  0  0
   20.6207   19.1060   24.8503 C   0  0  0  0  0  0  0  0  0  0  0  0
   21.2452   18.2055   24.8920 H   0  0  0  0  0  0  0  0  0  0  0  0
   21.2759   19.9642   25.0421 H   0  0  0  0  0  0  0  0  0  0  0  0
   19.9635   19.2358   23.4540 C   0  0  0  0  0  0  0  0  0  0  0  0
   19.2984   18.3770   23.2941 H   0  0  0  0  0  0  0  0  0  0  0  0
   19.3349   20.1367   23.4314 H   0  0  0  0  0  0  0  0  0  0  0  0
   21.0203   19.3085   22.3276 C   0  0  0  0  0  0  0  0  0  0  0  0
   21.6147   18.3846   22.3164 H   0  0  0  0  0  0  0  0  0  0  0  0
   21.7205   20.1260   22.5474 H   0  0  0  0  0  0  0  0  0  0  0  0
   20.4113   19.5493   20.9258 C   0  0  0  0  0  0  0  0  0  0  0  0
   19.8201   20.4752   20.9355 H   0  0  0  0  0  0  0  0  0  0  0  0
   21.2316   19.7122   20.2134 H   0  0  0  0  0  0  0  0  0  0  0  0
   19.5369   18.3780   20.4240 C   0  0  0  0  0  0  0  0  0  0  0  0
   18.6661   18.2477   21.0798 H   0  0  0  0  0  0  0  0  0  0  0  0
   20.1118   17.4425   20.4642 H   0  0  0  0  0  0  0  0  0  0  0  0
   19.0467   18.6161   18.9816 C   0  0  0  0  0  0  0  0  0  0  0  0
   18.4450   19.5323   18.9179 H   0  0  0  0  0  0  0  0  0  0  0  0
   18.4250   17.7779   18.6411 H   0  0  0  0  0  0  0  0  0  0  0  0
   19.8934   18.7129   18.2893 H   0  0  0  0  0  0  0  0  0  0  0  0
  1  2  1  0  0  0  0
  1  3  2  0  0  0  0
  1  4  1  0  0  0  0
  4  5  1  0  0  0  0
  4  6  1  0  0  0  0
  4  7  1  0  0  0  0
  7  8  1  0  0  0  0
  7  9  1  0  0  0  0
  7 10  1  0  0  0  0
 10 11  1  0  0  0  0
 10 12  1  0  0  0  0
 10 13  1  0  0  0  0
 13 14  1  0  0  0  0
 13 15  1  0  0  0  0
 13 16  1  0  0  0  0
 16 17  1  0  0  0  0
 16 18  1  0  0  0  0
 16 19  1  0  0  0  0
 19 20  1  0  0  0  0
 19 21  1  0  0  0  0
 19 22  1  0  0  0  0
M  END
> <VM2 Rank>
5

> <Conf_Id>
494

> <Probability>
7.06

> <Sum Probability>
62.91

> <Delta G>
0.910

> <G>
-16.088

> <E>
-35.761

> <-TS>
19.674

> <U+W>
-53.646

> <U>
7.026

> <W>
-60.672

> <W(PB)>
-62.965

> <W(SA)>
2.292

> <Valence>
7.638

> <Coulomb>
-1.489

> <VdW>
0.877

> <VdW6>
-7.165

> <VdW12>
8.042

> <Bond>
0.134

> <Angle>
2.513

> <Pdih>
4.990

> <Idih>
0.001

> <Tether>
0.000

$$$$
VeraChem MOL file


 22 21  0  0  0  0  0  0  0  0999 V2000     
   19.7329   19.2233   26.0947 C   0  0  0  0  0  0  0  0  0  0  0  0
   20.1388   20.2915   26.5078 O   0  5  0  0  0  0  0  0  0  0  0  0
   19.7906   18.1897   26.7310 O   0  0  0  0  0  0  0  0  0  0  0  0
   19.1379   19.1729   24.6920 C   0  0  0  0  0  0  0  0  0  0  0  0
   18.6462   20.1333   24.4957 H   0  0  0  0  0  0  0  0  0  0  0  0
   18.3587   18.4013   24.6798 H   0  0  0  0  0  0  0  0  0  0  0  0
   20.1960   18.8811   23.5996 C   0  0  0  0  0  0  0  0  0  0  0  0
   20.9752   19.6552   23.6329 H   0  0  0  0  0  0  0  0  0  0  0  0
   20.6881   17.9232   23.8182 H   0  0  0  0  0  0  0  0  0  0  0  0
   19.5687   18.8351   22.1893 C   0  0  0  0  0  0  0  0  0  0  0  0
   19.0740   19.7934   21.9842 H   0  0  0  0  0  0  0  0  0  0  0  0
   18.7918   18.0590   22.1583 H   0  0  0  0  0  0  0  0  0  0  0  0
   20.6295   18.5473   21.1021 C   0  0  0  0  0  0  0  0  0  0  0  0
   21.3808   19.3489   21.0964 H   0  0  0  0  0  0  0  0  0  0  0  0
   21.1635   17.6224   21.3597 H   0  0  0  0  0  0  0  0  0  0  0  0
   20.0307   18.3899   19.6851 C   0  0  0  0  0  0  0  0  0  0  0  0
   19.2833   17.5845   19.6854 H   0  0  0  0  0  0  0  0  0  0  0  0
   20.8280   18.0729   18.9988 H   0  0  0  0  0  0  0  0  0  0  0  0
   19.3950   19.6882   19.1424 C   0  0  0  0  0  0  0  0  0  0  0  0
   18.5177   19.9819   19.7321 H   0  0  0  0  0  0  0  0  0  0  0  0
   19.0659   19.5495   18.1044 H   0  0  0  0  0  0  0  0  0  0  0  0
   20.1158   20.5161   19.1606 H   0  0  0  0  0  0  0  0  0  0  0  0
  1  2  1  0  0  0  0
  1  3  2  0  0  0  0
  1  4  1  0  0  0  0
  4  5  1  0  0  0  0
  4  6  1  0  0  0  0
  4  7  1  0  0  0  0
  7  8  1  0  0  0  0
  7  9  1  0  0  0  0
  7 10  1  0  0  0  0
 10 11  1  0  0  0  0
 10 12  1  0  0  0  0
 10 13  1  0  0  0  0
 13 14  1  0  0  0  0
 13 15  1  0  0  0  0
 13 16  1  0  0  0  0
 16 17  1  0  0  0  0
 16 18  1  0  0  0  0
 16 19  1  0  0  0  0
 19 20  1  0  0  0  0
 19 21  1  0  0  0  0
 19 22  1  0  0  0  0
M  END
> <VM2 Rank>
6

> <Conf_Id>
422

> <Probability>
6.48

> <Sum Probability>
69.39

> <Delta G>
0.962

> <G>
-16.036

> <E>
-35.714

> <-TS>
19.677

> <U+W>
-53.599

> <U>
6.751

> <W>
-60.350

> <W(PB)>
-62.659

> <W(SA)>
2.309

> <Valence>
7.602

> <Coulomb>
-1.744

> <VdW>
0.893

> <VdW6>
-7.110

> <VdW12>
8.004

> <Bond>
0.131

> <Angle>
2.489

> <Pdih>
4.981

> <Idih>
0.001

> <Tether>
0.000

$$$$
VeraChem MOL file


 22 21  0  0  0  0  0  0  0  0999 V2000     
   19.7435   19.0279   26.1022 C   0  0  0  0  0  0  0  0  0  0  0  0
   19.6871   20.1073   26.6573 O   0  5  0  0  0  0  0  0  0  0  0  0
   20.2603   18.0443   26.5941 O   0  0  0  0  0  0  0  0  0  0  0  0
   19.1523   18.9066   24.7022 C   0  0  0  0  0  0  0  0  0  0  0  0
   18.2945   19.5865   24.6344 H   0  0  0  0  0  0  0  0  0  0  0  0
   18.7678   17.8866   24.5819 H   0  0  0  0  0  0  0  0  0  0  0  0
   20.1772   19.2265   23.5863 C   0  0  0  0  0  0  0  0  0  0  0  0
   20.5623   20.2458   23.7291 H   0  0  0  0  0  0  0  0  0  0  0  0
   21.0352   18.5458   23.6755 H   0  0  0  0  0  0  0  0  0  0  0  0
   19.5545   19.0968   22.1793 C   0  0  0  0  0  0  0  0  0  0  0  0
   18.6985   19.7799   22.0923 H   0  0  0  0  0  0  0  0  0  0  0  0
   19.1668   18.0778   22.0500 H   0  0  0  0  0  0  0  0  0  0  0  0
   20.5826   19.4134   21.0689 C   0  0  0  0  0  0  0  0  0  0  0  0
   21.0126   20.4075   21.2529 H   0  0  0  0  0  0  0  0  0  0  0  0
   21.4159   18.6994   21.1214 H   0  0  0  0  0  0  0  0  0  0  0  0
   19.9761   19.3966   19.6465 C   0  0  0  0  0  0  0  0  0  0  0  0
   20.7374   19.7445   18.9347 H   0  0  0  0  0  0  0  0  0  0  0  0
   19.1461   20.1143   19.5884 H   0  0  0  0  0  0  0  0  0  0  0  0
   19.4866   17.9996   19.2071 C   0  0  0  0  0  0  0  0  0  0  0  0
   20.2924   17.2582   19.2856 H   0  0  0  0  0  0  0  0  0  0  0  0
   19.1488   18.0223   18.1629 H   0  0  0  0  0  0  0  0  0  0  0  0
   18.6437   17.6589   19.8212 H   0  0  0  0  0  0  0  0  0  0  0  0
  1  2  1  0  0  0  0
  1  3  2  0  0  0  0
  1  4  1  0  0  0  0
  4  5  1  0  0  0  0
  4  6  1  0  0  0  0
  4  7  1  0  0  0  0
  7  8  1  0  0  0  0
  7  9  1  0  0  0  0
  7 10  1  0  0  0  0
 10 11  1  0  0  0  0
 10 12  1  0  0  0  0
 10 13  1  0  0  0  0
 13 14  1  0  0  0  0
 13 15  1  0  0  0  0
 13 16  1  0  0  0  0
 16 17  1  0  0  0  0
 16 18  1  0  0  0  0
 16 19  1  0  0  0  0
 19 20  1  0  0  0  0
 19 21  1  0  0  0  0
 19 22  1  0  0  0  0
M  END
> <VM2 Rank>
7

> <Conf_Id>
421

> <Probability>
6.12

> <Sum Probability>
75.51

> <Delta G>
0.995

> <G>
-16.003

> <E>
-35.680

> <-TS>
19.677

> <U+W>
-53.565

> <U>
6.751

> <W>
-60.316

> <W(PB)>
-62.638

> <W(SA)>
2.321

> <Valence>
7.602

> <Coulomb>
-1.744

> <VdW>
0.893

> <VdW6>
-7.110

> <VdW12>
8.004

> <Bond>
0.131

> <Angle>
2.489

> <Pdih>
4.982

> <Idih>
0.001

> <Tether>
0.000

$$$$
VeraChem MOL file


 22 21  0  0  0  0  0  0  0  0999 V2000     
   19.9960   19.0181   25.8023 C   0  0  0  0  0  0  0  0  0  0  0  0
   20.5946   19.9818   26.2379 O   0  5  0  0  0  0  0  0  0  0  0  0
   20.3757   17.8720   25.9402 O   0  0  0  0  0  0  0  0  0  0  0  0
   18.6863   19.2617   25.0576 C   0  0  0  0  0  0  0  0  0  0  0  0
   18.1021   19.9780   25.6473 H   0  0  0  0  0  0  0  0  0  0  0  0
   18.1150   18.3257   25.0383 H   0  0  0  0  0  0  0  0  0  0  0  0
   18.8715   19.8058   23.6172 C   0  0  0  0  0  0  0  0  0  0  0  0
   17.8887   20.0805   23.2109 H   0  0  0  0  0  0  0  0  0  0  0  0
   19.4689   20.7275   23.6504 H   0  0  0  0  0  0  0  0  0  0  0  0
   19.5431   18.7803   22.6764 C   0  0  0  0  0  0  0  0  0  0  0  0
   18.9492   17.8562   22.6571 H   0  0  0  0  0  0  0  0  0  0  0  0
   20.5347   18.5134   23.0674 H   0  0  0  0  0  0  0  0  0  0  0  0
   19.6887   19.3308   21.2414 C   0  0  0  0  0  0  0  0  0  0  0  0
   18.6981   19.5958   20.8472 H   0  0  0  0  0  0  0  0  0  0  0  0
   20.2827   20.2549   21.2616 H   0  0  0  0  0  0  0  0  0  0  0  0
   20.3600   18.3076   20.3015 C   0  0  0  0  0  0  0  0  0  0  0  0
   19.7678   17.3823   20.2775 H   0  0  0  0  0  0  0  0  0  0  0  0
   21.3522   18.0416   20.6917 H   0  0  0  0  0  0  0  0  0  0  0  0
   20.5041   18.8610   18.8695 C   0  0  0  0  0  0  0  0  0  0  0  0
   19.5227   19.1061   18.4426 H   0  0  0  0  0  0  0  0  0  0  0  0
   20.9830   18.1210   18.2152 H   0  0  0  0  0  0  0  0  0  0  0  0
   21.1191   19.7704   18.8599 H   0  0  0  0  0  0  0  0  0  0  0  0
  1  2  1  0  0  0  0
  1  3  2  0  0  0  0
  1  4  1  0  0  0  0
  4  5  1  0  0  0  0
  4  6  1  0  0  0  0
  4  7  1  0  0  0  0
  7  8  1  0  0  0  0
  7  9  1  0  0  0  0
  7 10  1  0  0  0  0
 10 11  1  0  0  0  0
 10 12  1  0  0  0  0
 10 13  1  0  0  0  0
 13 14  1  0  0  0  0
 13 15  1  0  0  0  0
 13 16  1  0  0  0  0
 16 17  1  0  0  0  0
 16 18  1  0  0  0  0
 16 19  1  0  0  0  0
 19 20  1  0  0  0  0
 19 21  1  0  0  0  0
 19 22  1  0  0  0  0
M  END
> <VM2 Rank>
8

> <Conf_Id>
134

> <Probability>
2.89

> <Sum Probability>
78.40

> <Delta G>
1.443

> <G>
-15.555

> <E>
-35.435

> <-TS>
19.880

> <U+W>
-53.320

> <U>
7.937

> <W>
-61.257

> <W(PB)>
-63.561

> <W(SA)>
2.304

> <Valence>
7.358

> <Coulomb>
-0.021

> <VdW>
0.600

> <VdW6>
-7.363

> <VdW12>
7.964

> <Bond>
0.121

> <Angle>
2.425

> <Pdih>
4.811

> <Idih>
0.001

> <Tether>
0.000

$$$$
