@<TRIPOS>MOLECULE
guest-5_vm2.mol2 : vm2 ligand conformer 1
          22          22           1
SMALL
USER_CHARGES
 
@<TRIPOS>ATOM
       1    C1      19.882519   19.048990   20.902620 C.3        1 MOL1        -0.1685
       2    H1      20.893205   19.156593   20.485830 H          1 MOL1         0.0832
       3    H2      19.282361   18.575999   20.113390 H          1 MOL1         0.0832
       4    C2      19.291694   20.449273   21.183577 C.3        1 MOL1        -0.1685
       5    H3      19.361055   21.041191   20.260745 H          1 MOL1         0.0832
       6    H4      18.218538   20.355880   21.398939 H          1 MOL1         0.0832
       7    C3      19.980599   21.234437   22.324937 C.3        1 MOL1        -0.1685
       8    H5      19.622383   22.271966   22.279941 H          1 MOL1         0.0832
       9    H6      21.066957   21.280317   22.168794 H          1 MOL1         0.0832
      10    C4      19.646640   20.673237   23.728257 C.3        1 MOL1        -0.1761
      11    H7      19.718497   21.490442   24.457741 H          1 MOL1         0.0832
      12    H8      18.597361   20.350632   23.748664 H          1 MOL1         0.0832
      13    C5      20.564409   19.531304   24.223447 C.3        1 MOL1         0.1218
      14    H9      21.477110   19.984953   24.635841 H          1 MOL1         0.0789
      15    C6      21.006783   18.501845   23.157792 C.3        1 MOL1        -0.1761
      16    H10     21.888353   18.889453   22.631160 H          1 MOL1         0.0832
      17    H11     21.356394   17.599104   23.676642 H          1 MOL1         0.0832
      18    C7      19.926452   18.100056   22.123483 C.3        1 MOL1        -0.1685
      19    H12     20.165995   17.093095   21.755507 H          1 MOL1         0.0832
      20    H13     18.937094   18.024857   22.593967 H          1 MOL1         0.0832
      21    O1      19.886906   18.838859   25.262886 O.3        1 MOL1        -0.5509
      22    H14     19.142265   18.371416   24.832692 H          1 MOL1         0.3779
@<TRIPOS>BOND
    1     1     2    1
    2     1     3    1
    3     1     4    1
    4     4     5    1
    5     4     6    1
    6     4     7    1
    7     7     8    1
    8     7     9    1
    9     7    10    1
   10    10    11    1
   11    10    12    1
   12    10    13    1
   13    13    14    1
   14    13    15    1
   15    15    16    1
   16    15    17    1
   17     1    18    1
   18    15    18    1
   19    18    19    1
   20    18    20    1
   21    13    21    1
   22    21    22    1
@<TRIPOS>SUBSTRUCTURE
       1 MOL1            1 RESIDUE      1      MOL     
@<SCITEGIC>MOL_PROPERTY
VM2 Rank
SciTegic.value.IntegerValue
1

@<SCITEGIC>MOL_PROPERTY
Conf_Id
SciTegic.value.IntegerValue
620

@<SCITEGIC>MOL_PROPERTY
Probability
SciTegic.value.DoubleValue
7.97

@<SCITEGIC>MOL_PROPERTY
Sum Probability
SciTegic.value.DoubleValue
7.97

@<SCITEGIC>MOL_PROPERTY
Delta G
SciTegic.value.DoubleValue
0.000

@<SCITEGIC>MOL_PROPERTY
G
SciTegic.value.DoubleValue
47.363

@<SCITEGIC>MOL_PROPERTY
E
SciTegic.value.DoubleValue
20.694

@<SCITEGIC>MOL_PROPERTY
-TS
SciTegic.value.DoubleValue
26.669

@<SCITEGIC>MOL_PROPERTY
U+W
SciTegic.value.DoubleValue
2.809

@<SCITEGIC>MOL_PROPERTY
U
SciTegic.value.DoubleValue
4.530

@<SCITEGIC>MOL_PROPERTY
W
SciTegic.value.DoubleValue
-1.721

@<SCITEGIC>MOL_PROPERTY
W(PB)
SciTegic.value.DoubleValue
-3.723

@<SCITEGIC>MOL_PROPERTY
W(SA)
SciTegic.value.DoubleValue
2.002

@<SCITEGIC>MOL_PROPERTY
Valence
SciTegic.value.DoubleValue
12.224

@<SCITEGIC>MOL_PROPERTY
Coulomb
SciTegic.value.DoubleValue
-9.755

@<SCITEGIC>MOL_PROPERTY
VdW
SciTegic.value.DoubleValue
2.062

@<SCITEGIC>MOL_PROPERTY
VdW6
SciTegic.value.DoubleValue
-9.196

@<SCITEGIC>MOL_PROPERTY
VdW12
SciTegic.value.DoubleValue
11.257

@<SCITEGIC>MOL_PROPERTY
Bond
SciTegic.value.DoubleValue
0.216

@<SCITEGIC>MOL_PROPERTY
Angle
SciTegic.value.DoubleValue
2.754

@<SCITEGIC>MOL_PROPERTY
Pdih
SciTegic.value.DoubleValue
9.253

@<SCITEGIC>MOL_PROPERTY
Idih
SciTegic.value.DoubleValue
0.000

@<SCITEGIC>MOL_PROPERTY
Tether
SciTegic.value.DoubleValue
0.000

