@<TRIPOS>MOLECULE
guest-1_vm2.mol2 : vm2 ligand conformer 1
          17          16           1
SMALL
USER_CHARGES
 
@<TRIPOS>ATOM
       1    N1      19.626246   18.841343   24.138330 N.4        1 MOL1        -0.5891
       2    H1      20.058106   19.190740   24.999914 H          1 MOL1         0.3726
       3    H2      19.653168   17.818329   24.187449 H          1 MOL1         0.3726
       4    H3      18.640205   19.117983   24.168140 H          1 MOL1         0.3726
       5    C1      20.327110   19.369245   22.902423 C.3        1 MOL1         0.0314
       6    H4      21.375809   19.063914   22.952697 H          1 MOL1         0.0999
       7    H5      20.286610   20.461495   22.931992 H          1 MOL1         0.0999
       8    C2      19.703426   18.863720   21.588757 C.3        1 MOL1        -0.1308
       9    H6      19.731932   17.766084   21.569486 H          1 MOL1         0.1025
      10    H7      18.646412   19.158883   21.548873 H          1 MOL1         0.1025
      11    C3      20.446130   19.424329   20.356025 C.3        1 MOL1        -0.1243
      12    H8      21.504999   19.132035   20.397107 H          1 MOL1         0.1025
      13    H9      20.420692   20.523084   20.376432 H          1 MOL1         0.1025
      14    C4      19.826088   18.921362   19.034464 C.3        1 MOL1        -0.2258
      15    H10     18.775558   19.228319   18.948608 H          1 MOL1         0.1036
      16    H11     19.868378   17.826284   18.969484 H          1 MOL1         0.1036
      17    H12     20.367489   19.330508   18.171600 H          1 MOL1         0.1036
@<TRIPOS>BOND
    1     1     2    1
    2     1     3    1
    3     1     4    1
    4     1     5    1
    5     5     6    1
    6     5     7    1
    7     5     8    1
    8     8     9    1
    9     8    10    1
   10     8    11    1
   11    11    12    1
   12    11    13    1
   13    11    14    1
   14    14    15    1
   15    14    16    1
   16    14    17    1
@<TRIPOS>SUBSTRUCTURE
       1 MOL1            1 RESIDUE      1      MOL     
@<SCITEGIC>MOL_PROPERTY
VM2 Rank
SciTegic.value.IntegerValue
1

@<SCITEGIC>MOL_PROPERTY
Conf_Id
SciTegic.value.IntegerValue
119

@<SCITEGIC>MOL_PROPERTY
Probability
SciTegic.value.DoubleValue
28.02

@<SCITEGIC>MOL_PROPERTY
Sum Probability
SciTegic.value.DoubleValue
28.02

@<SCITEGIC>MOL_PROPERTY
Delta G
SciTegic.value.DoubleValue
0.000

@<SCITEGIC>MOL_PROPERTY
G
SciTegic.value.DoubleValue
15.406

@<SCITEGIC>MOL_PROPERTY
E
SciTegic.value.DoubleValue
-2.452

@<SCITEGIC>MOL_PROPERTY
-TS
SciTegic.value.DoubleValue
17.858

@<SCITEGIC>MOL_PROPERTY
U+W
SciTegic.value.DoubleValue
-15.866

@<SCITEGIC>MOL_PROPERTY
U
SciTegic.value.DoubleValue
44.664

@<SCITEGIC>MOL_PROPERTY
W
SciTegic.value.DoubleValue
-60.530

@<SCITEGIC>MOL_PROPERTY
W(PB)
SciTegic.value.DoubleValue
-62.308

@<SCITEGIC>MOL_PROPERTY
W(SA)
SciTegic.value.DoubleValue
1.778

@<SCITEGIC>MOL_PROPERTY
Valence
SciTegic.value.DoubleValue
0.872

@<SCITEGIC>MOL_PROPERTY
Coulomb
SciTegic.value.DoubleValue
43.648

@<SCITEGIC>MOL_PROPERTY
VdW
SciTegic.value.DoubleValue
0.144

@<SCITEGIC>MOL_PROPERTY
VdW6
SciTegic.value.DoubleValue
-2.370

@<SCITEGIC>MOL_PROPERTY
VdW12
SciTegic.value.DoubleValue
2.515

@<SCITEGIC>MOL_PROPERTY
Bond
SciTegic.value.DoubleValue
0.080

@<SCITEGIC>MOL_PROPERTY
Angle
SciTegic.value.DoubleValue
0.375

@<SCITEGIC>MOL_PROPERTY
Pdih
SciTegic.value.DoubleValue
0.416

@<SCITEGIC>MOL_PROPERTY
Idih
SciTegic.value.DoubleValue
0.000

@<SCITEGIC>MOL_PROPERTY
Tether
SciTegic.value.DoubleValue
0.000

@<TRIPOS>MOLECULE
guest-1_vm2.mol2 : vm2 ligand conformer 2
          17          16           1
SMALL
USER_CHARGES
 
@<TRIPOS>ATOM
       1    N1      19.294857   19.373951   23.686920 N.4        1 MOL1        -0.5891
       2    H1      18.851838   20.159006   23.201358 H          1 MOL1         0.3726
       3    H2      19.457205   19.675258   24.653205 H          1 MOL1         0.3726
       4    H3      18.607835   18.614909   23.724297 H          1 MOL1         0.3726
       5    C1      20.580626   18.941025   23.008574 C.3        1 MOL1         0.0314
       6    H4      21.014926   18.134426   23.605569 H          1 MOL1         0.0999
       7    H5      21.274370   19.785965   23.024458 H          1 MOL1         0.0999
       8    C2      20.388869   18.455035   21.558231 C.3        1 MOL1        -0.1308
       9    H6      21.349629   18.070264   21.191058 H          1 MOL1         0.1025
      10    H7      19.688050   17.609739   21.544166 H          1 MOL1         0.1025
      11    C3      19.890569   19.572672   20.611985 C.3        1 MOL1        -0.1243
      12    H8      20.581168   20.426867   20.652496 H          1 MOL1         0.1025
      13    H9      18.910870   19.940810   20.945519 H          1 MOL1         0.1025
      14    C4      19.774078   19.077317   19.154290 C.3        1 MOL1        -0.2258
      15    H10     19.065370   18.242560   19.076098 H          1 MOL1         0.1036
      16    H11     20.745808   18.737252   18.773131 H          1 MOL1         0.1036
      17    H12     19.418925   19.882564   18.498181 H          1 MOL1         0.1036
@<TRIPOS>BOND
    1     1     2    1
    2     1     3    1
    3     1     4    1
    4     1     5    1
    5     5     6    1
    6     5     7    1
    7     5     8    1
    8     8     9    1
    9     8    10    1
   10     8    11    1
   11    11    12    1
   12    11    13    1
   13    11    14    1
   14    14    15    1
   15    14    16    1
   16    14    17    1
@<TRIPOS>SUBSTRUCTURE
       1 MOL1            1 RESIDUE      1      MOL     
@<SCITEGIC>MOL_PROPERTY
VM2 Rank
SciTegic.value.IntegerValue
2

@<SCITEGIC>MOL_PROPERTY
Conf_Id
SciTegic.value.IntegerValue
274

@<SCITEGIC>MOL_PROPERTY
Probability
SciTegic.value.DoubleValue
15.66

@<SCITEGIC>MOL_PROPERTY
Sum Probability
SciTegic.value.DoubleValue
43.68

@<SCITEGIC>MOL_PROPERTY
Delta G
SciTegic.value.DoubleValue
0.347

@<SCITEGIC>MOL_PROPERTY
G
SciTegic.value.DoubleValue
15.753

@<SCITEGIC>MOL_PROPERTY
E
SciTegic.value.DoubleValue
-2.202

@<SCITEGIC>MOL_PROPERTY
-TS
SciTegic.value.DoubleValue
17.955

@<SCITEGIC>MOL_PROPERTY
U+W
SciTegic.value.DoubleValue
-15.616

@<SCITEGIC>MOL_PROPERTY
U
SciTegic.value.DoubleValue
45.278

@<SCITEGIC>MOL_PROPERTY
W
SciTegic.value.DoubleValue
-60.894

@<SCITEGIC>MOL_PROPERTY
W(PB)
SciTegic.value.DoubleValue
-62.643

@<SCITEGIC>MOL_PROPERTY
W(SA)
SciTegic.value.DoubleValue
1.750

@<SCITEGIC>MOL_PROPERTY
Valence
SciTegic.value.DoubleValue
0.993

@<SCITEGIC>MOL_PROPERTY
Coulomb
SciTegic.value.DoubleValue
44.034

@<SCITEGIC>MOL_PROPERTY
VdW
SciTegic.value.DoubleValue
0.251

@<SCITEGIC>MOL_PROPERTY
VdW6
SciTegic.value.DoubleValue
-2.855

@<SCITEGIC>MOL_PROPERTY
VdW12
SciTegic.value.DoubleValue
3.107

@<SCITEGIC>MOL_PROPERTY
Bond
SciTegic.value.DoubleValue
0.101

@<SCITEGIC>MOL_PROPERTY
Angle
SciTegic.value.DoubleValue
0.434

@<SCITEGIC>MOL_PROPERTY
Pdih
SciTegic.value.DoubleValue
0.458

@<SCITEGIC>MOL_PROPERTY
Idih
SciTegic.value.DoubleValue
0.000

@<SCITEGIC>MOL_PROPERTY
Tether
SciTegic.value.DoubleValue
0.000

@<TRIPOS>MOLECULE
guest-1_vm2.mol2 : vm2 ligand conformer 3
          17          16           1
SMALL
USER_CHARGES
 
@<TRIPOS>ATOM
       1    N1      20.068237   18.381755   23.701618 N.4        1 MOL1        -0.5891
       2    H1      20.728231   17.751734   23.237045 H          1 MOL1         0.3726
       3    H2      19.163934   17.901468   23.734833 H          1 MOL1         0.3726
       4    H3      20.386124   18.483481   24.670869 H          1 MOL1         0.3726
       5    C1      19.972252   19.721557   22.996993 C.3        1 MOL1         0.0314
       6    H4      20.960724   20.188372   23.018479 H          1 MOL1         0.0999
       7    H5      19.287657   20.350455   23.572699 H          1 MOL1         0.0999
       8    C2      19.475053   19.627430   21.540841 C.3        1 MOL1        -0.1308
       9    H6      18.484461   19.153915   21.521267 H          1 MOL1         0.1025
      10    H7      19.341959   20.646085   21.152833 H          1 MOL1         0.1025
      11    C3      20.450597   18.854086   20.622663 C.3        1 MOL1        -0.1243
      12    H8      20.563363   17.820482   20.976968 H          1 MOL1         0.1025
      13    H9      21.446958   19.315960   20.669041 H          1 MOL1         0.1025
      14    C4      19.962861   18.835173   19.157885 C.3        1 MOL1        -0.2258
      15    H10     18.981440   18.350351   19.074461 H          1 MOL1         0.1036
      16    H11     20.666278   18.282169   18.521939 H          1 MOL1         0.1036
      17    H12     19.876104   19.853321   18.756597 H          1 MOL1         0.1036
@<TRIPOS>BOND
    1     1     2    1
    2     1     3    1
    3     1     4    1
    4     1     5    1
    5     5     6    1
    6     5     7    1
    7     5     8    1
    8     8     9    1
    9     8    10    1
   10     8    11    1
   11    11    12    1
   12    11    13    1
   13    11    14    1
   14    14    15    1
   15    14    16    1
   16    14    17    1
@<TRIPOS>SUBSTRUCTURE
       1 MOL1            1 RESIDUE      1      MOL     
@<SCITEGIC>MOL_PROPERTY
VM2 Rank
SciTegic.value.IntegerValue
3

@<SCITEGIC>MOL_PROPERTY
Conf_Id
SciTegic.value.IntegerValue
249

@<SCITEGIC>MOL_PROPERTY
Probability
SciTegic.value.DoubleValue
15.08

@<SCITEGIC>MOL_PROPERTY
Sum Probability
SciTegic.value.DoubleValue
58.76

@<SCITEGIC>MOL_PROPERTY
Delta G
SciTegic.value.DoubleValue
0.369

@<SCITEGIC>MOL_PROPERTY
G
SciTegic.value.DoubleValue
15.775

@<SCITEGIC>MOL_PROPERTY
E
SciTegic.value.DoubleValue
-2.180

@<SCITEGIC>MOL_PROPERTY
-TS
SciTegic.value.DoubleValue
17.955

@<SCITEGIC>MOL_PROPERTY
U+W
SciTegic.value.DoubleValue
-15.594

@<SCITEGIC>MOL_PROPERTY
U
SciTegic.value.DoubleValue
45.278

@<SCITEGIC>MOL_PROPERTY
W
SciTegic.value.DoubleValue
-60.872

@<SCITEGIC>MOL_PROPERTY
W(PB)
SciTegic.value.DoubleValue
-62.614

@<SCITEGIC>MOL_PROPERTY
W(SA)
SciTegic.value.DoubleValue
1.742

@<SCITEGIC>MOL_PROPERTY
Valence
SciTegic.value.DoubleValue
0.993

@<SCITEGIC>MOL_PROPERTY
Coulomb
SciTegic.value.DoubleValue
44.034

@<SCITEGIC>MOL_PROPERTY
VdW
SciTegic.value.DoubleValue
0.251

@<SCITEGIC>MOL_PROPERTY
VdW6
SciTegic.value.DoubleValue
-2.856

@<SCITEGIC>MOL_PROPERTY
VdW12
SciTegic.value.DoubleValue
3.107

@<SCITEGIC>MOL_PROPERTY
Bond
SciTegic.value.DoubleValue
0.101

@<SCITEGIC>MOL_PROPERTY
Angle
SciTegic.value.DoubleValue
0.434

@<SCITEGIC>MOL_PROPERTY
Pdih
SciTegic.value.DoubleValue
0.458

@<SCITEGIC>MOL_PROPERTY
Idih
SciTegic.value.DoubleValue
0.000

@<SCITEGIC>MOL_PROPERTY
Tether
SciTegic.value.DoubleValue
0.000

@<TRIPOS>MOLECULE
guest-1_vm2.mol2 : vm2 ligand conformer 4
          17          16           1
SMALL
USER_CHARGES
 
@<TRIPOS>ATOM
       1    N1      19.553924   18.986525   24.002588 N.4        1 MOL1        -0.5891
       2    H1      18.963192   18.149522   24.012928 H          1 MOL1         0.3726
       3    H2      19.093776   19.681461   24.599389 H          1 MOL1         0.3726
       4    H3      20.435123   18.738326   24.462518 H          1 MOL1         0.3726
       5    C1      19.774471   19.508312   22.596721 C.3        1 MOL1         0.0314
       6    H4      20.383877   20.413579   22.663971 H          1 MOL1         0.0999
       7    H5      18.800112   19.780769   22.182922 H          1 MOL1         0.0999
       8    C2      20.464801   18.487401   21.671979 C.3        1 MOL1        -0.1308
       9    H6      21.423965   18.190308   22.116519 H          1 MOL1         0.1025
      10    H7      19.853536   17.577532   21.605790 H          1 MOL1         0.1025
      11    C3      20.719534   19.045440   20.252221 C.3        1 MOL1        -0.1243
      12    H8      21.283030   18.301266   19.671998 H          1 MOL1         0.1025
      13    H9      21.358934   19.937361   20.314087 H          1 MOL1         0.1025
      14    C4      19.416269   19.392322   19.496491 C.3        1 MOL1        -0.2258
      15    H10     18.755879   18.518234   19.425922 H          1 MOL1         0.1036
      16    H11     19.640760   19.725512   18.474926 H          1 MOL1         0.1036
      17    H12     18.864251   20.199814   19.993806 H          1 MOL1         0.1036
@<TRIPOS>BOND
    1     1     2    1
    2     1     3    1
    3     1     4    1
    4     1     5    1
    5     5     6    1
    6     5     7    1
    7     5     8    1
    8     8     9    1
    9     8    10    1
   10     8    11    1
   11    11    12    1
   12    11    13    1
   13    11    14    1
   14    14    15    1
   15    14    16    1
   16    14    17    1
@<TRIPOS>SUBSTRUCTURE
       1 MOL1            1 RESIDUE      1      MOL     
@<SCITEGIC>MOL_PROPERTY
VM2 Rank
SciTegic.value.IntegerValue
4

@<SCITEGIC>MOL_PROPERTY
Conf_Id
SciTegic.value.IntegerValue
82

@<SCITEGIC>MOL_PROPERTY
Probability
SciTegic.value.DoubleValue
15.00

@<SCITEGIC>MOL_PROPERTY
Sum Probability
SciTegic.value.DoubleValue
73.76

@<SCITEGIC>MOL_PROPERTY
Delta G
SciTegic.value.DoubleValue
0.372

@<SCITEGIC>MOL_PROPERTY
G
SciTegic.value.DoubleValue
15.778

@<SCITEGIC>MOL_PROPERTY
E
SciTegic.value.DoubleValue
-2.177

@<SCITEGIC>MOL_PROPERTY
-TS
SciTegic.value.DoubleValue
17.955

@<SCITEGIC>MOL_PROPERTY
U+W
SciTegic.value.DoubleValue
-15.590

@<SCITEGIC>MOL_PROPERTY
U
SciTegic.value.DoubleValue
45.174

@<SCITEGIC>MOL_PROPERTY
W
SciTegic.value.DoubleValue
-60.765

@<SCITEGIC>MOL_PROPERTY
W(PB)
SciTegic.value.DoubleValue
-62.518

@<SCITEGIC>MOL_PROPERTY
W(SA)
SciTegic.value.DoubleValue
1.754

@<SCITEGIC>MOL_PROPERTY
Valence
SciTegic.value.DoubleValue
1.161

@<SCITEGIC>MOL_PROPERTY
Coulomb
SciTegic.value.DoubleValue
43.789

@<SCITEGIC>MOL_PROPERTY
VdW
SciTegic.value.DoubleValue
0.224

@<SCITEGIC>MOL_PROPERTY
VdW6
SciTegic.value.DoubleValue
-2.897

@<SCITEGIC>MOL_PROPERTY
VdW12
SciTegic.value.DoubleValue
3.121

@<SCITEGIC>MOL_PROPERTY
Bond
SciTegic.value.DoubleValue
0.100

@<SCITEGIC>MOL_PROPERTY
Angle
SciTegic.value.DoubleValue
0.500

@<SCITEGIC>MOL_PROPERTY
Pdih
SciTegic.value.DoubleValue
0.561

@<SCITEGIC>MOL_PROPERTY
Idih
SciTegic.value.DoubleValue
0.000

@<SCITEGIC>MOL_PROPERTY
Tether
SciTegic.value.DoubleValue
0.000

@<TRIPOS>MOLECULE
guest-1_vm2.mol2 : vm2 ligand conformer 5
          17          16           1
SMALL
USER_CHARGES
 
@<TRIPOS>ATOM
       1    N1      19.751361   18.733305   24.006342 N.4        1 MOL1        -0.5891
       2    H1      18.795331   18.365010   24.009803 H          1 MOL1         0.3726
       3    H2      19.719436   19.656769   24.448883 H          1 MOL1         0.3726
       4    H3      20.304194   18.128568   24.622389 H          1 MOL1         0.3726
       5    C1      20.331281   18.793840   22.607275 C.3        1 MOL1         0.0314
       6    H4      20.363290   17.774983   22.212630 H          1 MOL1         0.0999
       7    H5      21.356956   19.165000   22.682367 H          1 MOL1         0.0999
       8    C2      19.523330   19.695274   21.654073 C.3        1 MOL1        -0.1308
       9    H6      18.492742   19.323414   21.579936 H          1 MOL1         0.1025
      10    H7      19.463223   20.705964   22.079242 H          1 MOL1         0.1025
      11    C3      20.146994   19.779920   20.241314 C.3        1 MOL1        -0.1243
      12    H8      21.167042   20.183547   20.310376 H          1 MOL1         0.1025
      13    H9      19.571311   20.497045   19.639399 H          1 MOL1         0.1025
      14    C4      20.176033   18.417661   19.510996 C.3        1 MOL1        -0.2258
      15    H10     20.817206   17.694734   20.030963 H          1 MOL1         0.1036
      16    H11     20.568468   18.535216   18.492574 H          1 MOL1         0.1036
      17    H12     19.168299   17.989103   19.433966 H          1 MOL1         0.1036
@<TRIPOS>BOND
    1     1     2    1
    2     1     3    1
    3     1     4    1
    4     1     5    1
    5     5     6    1
    6     5     7    1
    7     5     8    1
    8     8     9    1
    9     8    10    1
   10     8    11    1
   11    11    12    1
   12    11    13    1
   13    11    14    1
   14    14    15    1
   15    14    16    1
   16    14    17    1
@<TRIPOS>SUBSTRUCTURE
       1 MOL1            1 RESIDUE      1      MOL     
@<SCITEGIC>MOL_PROPERTY
VM2 Rank
SciTegic.value.IntegerValue
5

@<SCITEGIC>MOL_PROPERTY
Conf_Id
SciTegic.value.IntegerValue
69

@<SCITEGIC>MOL_PROPERTY
Probability
SciTegic.value.DoubleValue
14.12

@<SCITEGIC>MOL_PROPERTY
Sum Probability
SciTegic.value.DoubleValue
87.88

@<SCITEGIC>MOL_PROPERTY
Delta G
SciTegic.value.DoubleValue
0.409

@<SCITEGIC>MOL_PROPERTY
G
SciTegic.value.DoubleValue
15.814

@<SCITEGIC>MOL_PROPERTY
E
SciTegic.value.DoubleValue
-2.140

@<SCITEGIC>MOL_PROPERTY
-TS
SciTegic.value.DoubleValue
17.955

@<SCITEGIC>MOL_PROPERTY
U+W
SciTegic.value.DoubleValue
-15.554

@<SCITEGIC>MOL_PROPERTY
U
SciTegic.value.DoubleValue
45.174

@<SCITEGIC>MOL_PROPERTY
W
SciTegic.value.DoubleValue
-60.728

@<SCITEGIC>MOL_PROPERTY
W(PB)
SciTegic.value.DoubleValue
-62.487

@<SCITEGIC>MOL_PROPERTY
W(SA)
SciTegic.value.DoubleValue
1.758

@<SCITEGIC>MOL_PROPERTY
Valence
SciTegic.value.DoubleValue
1.161

@<SCITEGIC>MOL_PROPERTY
Coulomb
SciTegic.value.DoubleValue
43.789

@<SCITEGIC>MOL_PROPERTY
VdW
SciTegic.value.DoubleValue
0.224

@<SCITEGIC>MOL_PROPERTY
VdW6
SciTegic.value.DoubleValue
-2.897

@<SCITEGIC>MOL_PROPERTY
VdW12
SciTegic.value.DoubleValue
3.121

@<SCITEGIC>MOL_PROPERTY
Bond
SciTegic.value.DoubleValue
0.100

@<SCITEGIC>MOL_PROPERTY
Angle
SciTegic.value.DoubleValue
0.500

@<SCITEGIC>MOL_PROPERTY
Pdih
SciTegic.value.DoubleValue
0.561

@<SCITEGIC>MOL_PROPERTY
Idih
SciTegic.value.DoubleValue
0.000

@<SCITEGIC>MOL_PROPERTY
Tether
SciTegic.value.DoubleValue
0.000

@<TRIPOS>MOLECULE
guest-1_vm2.mol2 : vm2 ligand conformer 6
          17          16           1
SMALL
USER_CHARGES
 
@<TRIPOS>ATOM
       1    N1      19.605658   18.334198   23.432107 N.4        1 MOL1        -0.5891
       2    H1      18.859880   18.294227   24.134165 H          1 MOL1         0.3726
       3    H2      20.485460   18.145479   23.921711 H          1 MOL1         0.3726
       4    H3      19.447561   17.557767   22.783565 H          1 MOL1         0.3726
       5    C1      19.633060   19.669530   22.713781 C.3        1 MOL1         0.0314
       6    H4      19.766981   20.450331   23.467408 H          1 MOL1         0.0999
       7    H5      18.659401   19.820429   22.240471 H          1 MOL1         0.0999
       8    C2      20.749464   19.784486   21.655315 C.3        1 MOL1        -0.1308
       9    H6      20.733269   20.799466   21.236559 H          1 MOL1         0.1025
      10    H7      21.724976   19.672179   22.146754 H          1 MOL1         0.1025
      11    C3      20.633134   18.756149   20.502686 C.3        1 MOL1        -0.1243
      12    H8      20.739855   17.735646   20.894910 H          1 MOL1         0.1025
      13    H9      21.473730   18.904214   19.810313 H          1 MOL1         0.1025
      14    C4      19.307684   18.875637   19.716111 C.3        1 MOL1        -0.2258
      15    H10     18.440749   18.645519   20.348108 H          1 MOL1         0.1036
      16    H11     19.296749   18.174760   18.871350 H          1 MOL1         0.1036
      17    H12     19.178293   19.888252   19.312455 H          1 MOL1         0.1036
@<TRIPOS>BOND
    1     1     2    1
    2     1     3    1
    3     1     4    1
    4     1     5    1
    5     5     6    1
    6     5     7    1
    7     5     8    1
    8     8     9    1
    9     8    10    1
   10     8    11    1
   11    11    12    1
   12    11    13    1
   13    11    14    1
   14    14    15    1
   15    14    16    1
   16    14    17    1
@<TRIPOS>SUBSTRUCTURE
       1 MOL1            1 RESIDUE      1      MOL     
@<SCITEGIC>MOL_PROPERTY
VM2 Rank
SciTegic.value.IntegerValue
6

@<SCITEGIC>MOL_PROPERTY
Conf_Id
SciTegic.value.IntegerValue
234

@<SCITEGIC>MOL_PROPERTY
Probability
SciTegic.value.DoubleValue
6.04

@<SCITEGIC>MOL_PROPERTY
Sum Probability
SciTegic.value.DoubleValue
93.92

@<SCITEGIC>MOL_PROPERTY
Delta G
SciTegic.value.DoubleValue
0.915

@<SCITEGIC>MOL_PROPERTY
G
SciTegic.value.DoubleValue
16.320

@<SCITEGIC>MOL_PROPERTY
E
SciTegic.value.DoubleValue
-1.810

@<SCITEGIC>MOL_PROPERTY
-TS
SciTegic.value.DoubleValue
18.131

@<SCITEGIC>MOL_PROPERTY
U+W
SciTegic.value.DoubleValue
-15.224

@<SCITEGIC>MOL_PROPERTY
U
SciTegic.value.DoubleValue
45.697

@<SCITEGIC>MOL_PROPERTY
W
SciTegic.value.DoubleValue
-60.920

@<SCITEGIC>MOL_PROPERTY
W(PB)
SciTegic.value.DoubleValue
-62.632

@<SCITEGIC>MOL_PROPERTY
W(SA)
SciTegic.value.DoubleValue
1.712

@<SCITEGIC>MOL_PROPERTY
Valence
SciTegic.value.DoubleValue
1.263

@<SCITEGIC>MOL_PROPERTY
Coulomb
SciTegic.value.DoubleValue
44.179

@<SCITEGIC>MOL_PROPERTY
VdW
SciTegic.value.DoubleValue
0.255

@<SCITEGIC>MOL_PROPERTY
VdW6
SciTegic.value.DoubleValue
-3.552

@<SCITEGIC>MOL_PROPERTY
VdW12
SciTegic.value.DoubleValue
3.807

@<SCITEGIC>MOL_PROPERTY
Bond
SciTegic.value.DoubleValue
0.125

@<SCITEGIC>MOL_PROPERTY
Angle
SciTegic.value.DoubleValue
0.616

@<SCITEGIC>MOL_PROPERTY
Pdih
SciTegic.value.DoubleValue
0.521

@<SCITEGIC>MOL_PROPERTY
Idih
SciTegic.value.DoubleValue
0.000

@<SCITEGIC>MOL_PROPERTY
Tether
SciTegic.value.DoubleValue
0.000

@<TRIPOS>MOLECULE
guest-1_vm2.mol2 : vm2 ligand conformer 7
          17          16           1
SMALL
USER_CHARGES
 
@<TRIPOS>ATOM
       1    N1      19.139690   18.931772   23.423228 N.4        1 MOL1        -0.5891
       2    H1      18.908991   18.231333   24.135149 H          1 MOL1         0.3726
       3    H2      18.357555   18.955538   22.762814 H          1 MOL1         0.3726
       4    H3      19.164159   19.839966   23.896477 H          1 MOL1         0.3726
       5    C1      20.451594   18.619805   22.729367 C.3        1 MOL1         0.0314
       6    H4      20.367300   17.630147   22.272996 H          1 MOL1         0.0999
       7    H5      21.230543   18.573394   23.495280 H          1 MOL1         0.0999
       8    C2      20.850565   19.654836   21.657240 C.3        1 MOL1        -0.1308
       9    H6      20.972487   20.637222   22.132425 H          1 MOL1         0.1025
      10    H7      21.836871   19.384154   21.257570 H          1 MOL1         0.1025
      11    C3      19.841606   19.771251   20.487621 C.3        1 MOL1        -0.1243
      12    H8      20.200147   20.537526   19.786069 H          1 MOL1         0.1025
      13    H9      18.872406   20.130571   20.859368 H          1 MOL1         0.1025
      14    C4      19.645546   18.442335   19.722545 C.3        1 MOL1        -0.2258
      15    H10     18.975384   18.586875   18.865246 H          1 MOL1         0.1036
      16    H11     19.201890   17.669389   20.362601 H          1 MOL1         0.1036
      17    H12     20.601727   18.062743   19.339536 H          1 MOL1         0.1036
@<TRIPOS>BOND
    1     1     2    1
    2     1     3    1
    3     1     4    1
    4     1     5    1
    5     5     6    1
    6     5     7    1
    7     5     8    1
    8     8     9    1
    9     8    10    1
   10     8    11    1
   11    11    12    1
   12    11    13    1
   13    11    14    1
   14    14    15    1
   15    14    16    1
   16    14    17    1
@<TRIPOS>SUBSTRUCTURE
       1 MOL1            1 RESIDUE      1      MOL     
@<SCITEGIC>MOL_PROPERTY
VM2 Rank
SciTegic.value.IntegerValue
7

@<SCITEGIC>MOL_PROPERTY
Conf_Id
SciTegic.value.IntegerValue
113

@<SCITEGIC>MOL_PROPERTY
Probability
SciTegic.value.DoubleValue
5.61

@<SCITEGIC>MOL_PROPERTY
Sum Probability
SciTegic.value.DoubleValue
99.53

@<SCITEGIC>MOL_PROPERTY
Delta G
SciTegic.value.DoubleValue
0.959

@<SCITEGIC>MOL_PROPERTY
G
SciTegic.value.DoubleValue
16.365

@<SCITEGIC>MOL_PROPERTY
E
SciTegic.value.DoubleValue
-1.766

@<SCITEGIC>MOL_PROPERTY
-TS
SciTegic.value.DoubleValue
18.131

@<SCITEGIC>MOL_PROPERTY
U+W
SciTegic.value.DoubleValue
-15.180

@<SCITEGIC>MOL_PROPERTY
U
SciTegic.value.DoubleValue
45.697

@<SCITEGIC>MOL_PROPERTY
W
SciTegic.value.DoubleValue
-60.876

@<SCITEGIC>MOL_PROPERTY
W(PB)
SciTegic.value.DoubleValue
-62.587

@<SCITEGIC>MOL_PROPERTY
W(SA)
SciTegic.value.DoubleValue
1.710

@<SCITEGIC>MOL_PROPERTY
Valence
SciTegic.value.DoubleValue
1.263

@<SCITEGIC>MOL_PROPERTY
Coulomb
SciTegic.value.DoubleValue
44.179

@<SCITEGIC>MOL_PROPERTY
VdW
SciTegic.value.DoubleValue
0.255

@<SCITEGIC>MOL_PROPERTY
VdW6
SciTegic.value.DoubleValue
-3.552

@<SCITEGIC>MOL_PROPERTY
VdW12
SciTegic.value.DoubleValue
3.807

@<SCITEGIC>MOL_PROPERTY
Bond
SciTegic.value.DoubleValue
0.125

@<SCITEGIC>MOL_PROPERTY
Angle
SciTegic.value.DoubleValue
0.616

@<SCITEGIC>MOL_PROPERTY
Pdih
SciTegic.value.DoubleValue
0.521

@<SCITEGIC>MOL_PROPERTY
Idih
SciTegic.value.DoubleValue
0.000

@<SCITEGIC>MOL_PROPERTY
Tether
SciTegic.value.DoubleValue
0.000

@<TRIPOS>MOLECULE
guest-1_vm2.mol2 : vm2 ligand conformer 8
          17          16           1
SMALL
USER_CHARGES
 
@<TRIPOS>ATOM
       1    N1      19.444294   18.203823   23.213011 N.4        1 MOL1        -0.5891
       2    H1      19.347453   17.546247   22.435155 H          1 MOL1         0.3726
       3    H2      18.507358   18.559662   23.425165 H          1 MOL1         0.3726
       4    H3      19.749099   17.663935   24.029367 H          1 MOL1         0.3726
       5    C1      20.411745   19.324638   22.884618 C.3        1 MOL1         0.0314
       6    H4      21.405520   18.894082   22.735171 H          1 MOL1         0.0999
       7    H5      20.454586   19.977121   23.760957 H          1 MOL1         0.0999
       8    C2      20.015367   20.164018   21.651760 C.3        1 MOL1        -0.1308
       9    H6      18.941305   20.390426   21.681080 H          1 MOL1         0.1025
      10    H7      20.529227   21.131623   21.726160 H          1 MOL1         0.1025
      11    C3      20.394984   19.526263   20.290928 C.3        1 MOL1        -0.1243
      12    H8      21.481084   19.362887   20.249493 H          1 MOL1         0.1025
      13    H9      20.165811   20.248220   19.494532 H          1 MOL1         0.1025
      14    C4      19.662610   18.201258   19.979683 C.3        1 MOL1        -0.2258
      15    H10     20.015926   17.385857   20.621528 H          1 MOL1         0.1036
      16    H11     19.849572   17.897992   18.941304 H          1 MOL1         0.1036
      17    H12     18.577142   18.306722   20.105344 H          1 MOL1         0.1036
@<TRIPOS>BOND
    1     1     2    1
    2     1     3    1
    3     1     4    1
    4     1     5    1
    5     5     6    1
    6     5     7    1
    7     5     8    1
    8     8     9    1
    9     8    10    1
   10     8    11    1
   11    11    12    1
   12    11    13    1
   13    11    14    1
   14    14    15    1
   15    14    16    1
   16    14    17    1
@<TRIPOS>SUBSTRUCTURE
       1 MOL1            1 RESIDUE      1      MOL     
@<SCITEGIC>MOL_PROPERTY
VM2 Rank
SciTegic.value.IntegerValue
8

@<SCITEGIC>MOL_PROPERTY
Conf_Id
SciTegic.value.IntegerValue
19

@<SCITEGIC>MOL_PROPERTY
Probability
SciTegic.value.DoubleValue
0.25

@<SCITEGIC>MOL_PROPERTY
Sum Probability
SciTegic.value.DoubleValue
99.77

@<SCITEGIC>MOL_PROPERTY
Delta G
SciTegic.value.DoubleValue
2.821

@<SCITEGIC>MOL_PROPERTY
G
SciTegic.value.DoubleValue
18.226

@<SCITEGIC>MOL_PROPERTY
E
SciTegic.value.DoubleValue
0.211

@<SCITEGIC>MOL_PROPERTY
-TS
SciTegic.value.DoubleValue
18.016

@<SCITEGIC>MOL_PROPERTY
U+W
SciTegic.value.DoubleValue
-13.203

@<SCITEGIC>MOL_PROPERTY
U
SciTegic.value.DoubleValue
47.423

@<SCITEGIC>MOL_PROPERTY
W
SciTegic.value.DoubleValue
-60.626

@<SCITEGIC>MOL_PROPERTY
W(PB)
SciTegic.value.DoubleValue
-62.328

@<SCITEGIC>MOL_PROPERTY
W(SA)
SciTegic.value.DoubleValue
1.702

@<SCITEGIC>MOL_PROPERTY
Valence
SciTegic.value.DoubleValue
2.414

@<SCITEGIC>MOL_PROPERTY
Coulomb
SciTegic.value.DoubleValue
44.831

@<SCITEGIC>MOL_PROPERTY
VdW
SciTegic.value.DoubleValue
0.178

@<SCITEGIC>MOL_PROPERTY
VdW6
SciTegic.value.DoubleValue
-3.743

@<SCITEGIC>MOL_PROPERTY
VdW12
SciTegic.value.DoubleValue
3.921

@<SCITEGIC>MOL_PROPERTY
Bond
SciTegic.value.DoubleValue
0.138

@<SCITEGIC>MOL_PROPERTY
Angle
SciTegic.value.DoubleValue
0.941

@<SCITEGIC>MOL_PROPERTY
Pdih
SciTegic.value.DoubleValue
1.335

@<SCITEGIC>MOL_PROPERTY
Idih
SciTegic.value.DoubleValue
0.000

@<SCITEGIC>MOL_PROPERTY
Tether
SciTegic.value.DoubleValue
0.000

