VeraChem MOL file


 13 12  0  0  0  0  0  0  0  0999 V2000     
   20.0726   19.2403   23.9326 C   0  0  0  0  0  0  0  0  0  0  0  0
   20.6422   20.2279   24.3518 O   0  5  0  0  0  0  0  0  0  0  0  0
   19.9465   18.2159   24.5730 O   0  0  0  0  0  0  0  0  0  0  0  0
   19.5017   19.2824   22.5192 C   0  0  0  0  0  0  0  0  0  0  0  0
   19.1790   20.3100   22.3118 H   0  0  0  0  0  0  0  0  0  0  0  0
   18.6053   18.6508   22.4941 H   0  0  0  0  0  0  0  0  0  0  0  0
   20.5130   18.8146   21.4449 C   0  0  0  0  0  0  0  0  0  0  0  0
   21.4104   19.4478   21.4859 H   0  0  0  0  0  0  0  0  0  0  0  0
   20.8364   17.7883   21.6682 H   0  0  0  0  0  0  0  0  0  0  0  0
   19.9061   18.8689   20.0286 C   0  0  0  0  0  0  0  0  0  0  0  0
   20.6373   18.5339   19.2814 H   0  0  0  0  0  0  0  0  0  0  0  0
   19.0237   18.2197   19.9542 H   0  0  0  0  0  0  0  0  0  0  0  0
   19.6021   19.8919   19.7705 H   0  0  0  0  0  0  0  0  0  0  0  0
  1  2  1  0  0  0  0
  1  3  2  0  0  0  0
  1  4  1  0  0  0  0
  4  5  1  0  0  0  0
  4  6  1  0  0  0  0
  4  7  1  0  0  0  0
  7  8  1  0  0  0  0
  7  9  1  0  0  0  0
  7 10  1  0  0  0  0
 10 11  1  0  0  0  0
 10 12  1  0  0  0  0
 10 13  1  0  0  0  0
M  END
> <VM2 Rank>
1

> <Conf_Id>
1

> <Probability>
88.65

> <Sum Probability>
88.65

> <Delta G>
0.000

> <G>
-44.757

> <E>
-49.835

> <-TS>
5.078

> <U+W>
-59.672

> <U>
7.389

> <W>
-67.060

> <W(PB)>
-68.767

> <W(SA)>
1.707

> <Valence>
5.822

> <Coulomb>
1.255

> <VdW>
0.312

> <VdW6>
-3.061

> <VdW12>
3.372

> <Bond>
0.059

> <Angle>
2.241

> <Pdih>
3.522

> <Idih>
0.000

> <Tether>
0.000

$$$$
