VeraChem MOL file


 25 24  0  0  0  0  0  0  0  0999 V2000     
   20.1602   19.3401   27.8084 C   0  0  0  0  0  0  0  0  0  0  0  0
   21.2160   19.7053   28.2866 O   0  5  0  0  0  0  0  0  0  0  0  0
   19.0781   19.5687   28.3118 O   0  0  0  0  0  0  0  0  0  0  0  0
   20.1938   18.5724   26.4918 C   0  0  0  0  0  0  0  0  0  0  0  0
   19.3542   17.8670   26.4874 H   0  0  0  0  0  0  0  0  0  0  0  0
   21.1158   17.9792   26.4669 H   0  0  0  0  0  0  0  0  0  0  0  0
   20.1203   19.4990   25.2533 C   0  0  0  0  0  0  0  0  0  0  0  0
   19.1984   20.0952   25.3003 H   0  0  0  0  0  0  0  0  0  0  0  0
   20.9599   20.2075   25.2799 H   0  0  0  0  0  0  0  0  0  0  0  0
   20.1561   18.6986   23.9335 C   0  0  0  0  0  0  0  0  0  0  0  0
   19.3163   17.9905   23.9105 H   0  0  0  0  0  0  0  0  0  0  0  0
   21.0782   18.1028   23.8902 H   0  0  0  0  0  0  0  0  0  0  0  0
   20.0828   19.6250   22.7006 C   0  0  0  0  0  0  0  0  0  0  0  0
   19.1607   20.2207   22.7436 H   0  0  0  0  0  0  0  0  0  0  0  0
   20.9225   20.3331   22.7233 H   0  0  0  0  0  0  0  0  0  0  0  0
   20.1187   18.8252   21.3804 C   0  0  0  0  0  0  0  0  0  0  0  0
   19.2790   18.1170   21.3573 H   0  0  0  0  0  0  0  0  0  0  0  0
   21.0407   18.2293   21.3371 H   0  0  0  0  0  0  0  0  0  0  0  0
   20.0455   19.7510   20.1479 C   0  0  0  0  0  0  0  0  0  0  0  0
   19.1233   20.3473   20.1868 H   0  0  0  0  0  0  0  0  0  0  0  0
   20.8850   20.4598   20.1667 H   0  0  0  0  0  0  0  0  0  0  0  0
   20.0816   18.9487   18.8317 C   0  0  0  0  0  0  0  0  0  0  0  0
   19.2341   18.2533   18.7721 H   0  0  0  0  0  0  0  0  0  0  0  0
   20.0289   19.6222   17.9664 H   0  0  0  0  0  0  0  0  0  0  0  0
   21.0090   18.3665   18.7519 H   0  0  0  0  0  0  0  0  0  0  0  0
  1  2  1  0  0  0  0
  1  3  2  0  0  0  0
  1  4  1  0  0  0  0
  4  5  1  0  0  0  0
  4  6  1  0  0  0  0
  4  7  1  0  0  0  0
  7  8  1  0  0  0  0
  7  9  1  0  0  0  0
  7 10  1  0  0  0  0
 10 11  1  0  0  0  0
 10 12  1  0  0  0  0
 10 13  1  0  0  0  0
 13 14  1  0  0  0  0
 13 15  1  0  0  0  0
 13 16  1  0  0  0  0
 16 17  1  0  0  0  0
 16 18  1  0  0  0  0
 16 19  1  0  0  0  0
 19 20  1  0  0  0  0
 19 21  1  0  0  0  0
 19 22  1  0  0  0  0
 22 23  1  0  0  0  0
 22 24  1  0  0  0  0
 22 25  1  0  0  0  0
M  END
> <VM2 Rank>
1

> <Conf_Id>
1130

> <Probability>
22.96

> <Sum Probability>
22.96

> <Delta G>
0.000

> <G>
-7.962

> <E>
-32.361

> <-TS>
24.398

> <U+W>
-52.928

> <U>
5.617

> <W>
-58.543

> <W(PB)>
-61.065

> <W(SA)>
2.522

> <Valence>
7.531

> <Coulomb>
-2.818

> <VdW>
0.904

> <VdW6>
-7.640

> <VdW12>
8.544

> <Bond>
0.115

> <Angle>
2.271

> <Pdih>
5.144

> <Idih>
0.001

> <Tether>
0.000

$$$$
