VeraChem MOL file


 23 22  0  0  0  0  0  0  0  0999 V2000     
   19.7414   18.6610   26.4278 N   0  3  0  0  0  0  0  0  0  0  0  0
   20.7321   18.4175   26.5284 H   0  0  0  0  0  0  0  0  0  0  0  0
   19.2107   17.7845   26.4591 H   0  0  0  0  0  0  0  0  0  0  0  0
   19.4803   19.1972   27.2623 H   0  0  0  0  0  0  0  0  0  0  0  0
   19.4763   19.4376   25.1540 C   0  0  0  0  0  0  0  0  0  0  0  0
   20.0477   20.3686   25.2013 H   0  0  0  0  0  0  0  0  0  0  0  0
   18.4124   19.6883   25.1268 H   0  0  0  0  0  0  0  0  0  0  0  0
   19.8579   18.6596   23.8821 C   0  0  0  0  0  0  0  0  0  0  0  0
   20.9233   18.3958   23.9215 H   0  0  0  0  0  0  0  0  0  0  0  0
   19.2937   17.7180   23.8472 H   0  0  0  0  0  0  0  0  0  0  0  0
   19.5729   19.4847   22.6077 C   0  0  0  0  0  0  0  0  0  0  0  0
   20.1350   20.4281   22.6490 H   0  0  0  0  0  0  0  0  0  0  0  0
   18.5072   19.7511   22.5748 H   0  0  0  0  0  0  0  0  0  0  0  0
   19.9525   18.7125   21.3237 C   0  0  0  0  0  0  0  0  0  0  0  0
   21.0181   18.4461   21.3564 H   0  0  0  0  0  0  0  0  0  0  0  0
   19.3905   17.7692   21.2823 H   0  0  0  0  0  0  0  0  0  0  0  0
   19.6673   19.5379   20.0493 C   0  0  0  0  0  0  0  0  0  0  0  0
   20.2293   20.4818   20.0848 H   0  0  0  0  0  0  0  0  0  0  0  0
   18.6018   19.8049   20.0107 H   0  0  0  0  0  0  0  0  0  0  0  0
   20.0477   18.7637   18.7693 C   0  0  0  0  0  0  0  0  0  0  0  0
   21.1163   18.5122   18.7629 H   0  0  0  0  0  0  0  0  0  0  0  0
   19.8380   19.3655   17.8755 H   0  0  0  0  0  0  0  0  0  0  0  0
   19.4761   17.8299   18.6882 H   0  0  0  0  0  0  0  0  0  0  0  0
  1  2  1  0  0  0  0
  1  3  1  0  0  0  0
  1  4  1  0  0  0  0
  1  5  1  0  0  0  0
  5  6  1  0  0  0  0
  5  7  1  0  0  0  0
  5  8  1  0  0  0  0
  8  9  1  0  0  0  0
  8 10  1  0  0  0  0
  8 11  1  0  0  0  0
 11 12  1  0  0  0  0
 11 13  1  0  0  0  0
 11 14  1  0  0  0  0
 14 15  1  0  0  0  0
 14 16  1  0  0  0  0
 14 17  1  0  0  0  0
 17 18  1  0  0  0  0
 17 19  1  0  0  0  0
 17 20  1  0  0  0  0
 20 21  1  0  0  0  0
 20 22  1  0  0  0  0
 20 23  1  0  0  0  0
M  END
> <VM2 Rank>
1

> <Conf_Id>
242

> <Probability>
11.98

> <Sum Probability>
11.98

> <Delta G>
0.000

> <G>
37.916

> <E>
10.396

> <-TS>
27.520

> <U+W>
-8.383

> <U>
46.604

> <W>
-54.986

> <W(PB)>
-57.162

> <W(SA)>
2.176

> <Valence>
1.727

> <Coulomb>
44.434

> <VdW>
0.443

> <VdW6>
-4.623

> <VdW12>
5.066

> <Bond>
0.112

> <Angle>
0.386

> <Pdih>
1.228

> <Idih>
0.000

> <Tether>
0.000

$$$$
