VeraChem MOL file


 17 16  0  0  0  0  0  0  0  0999 V2000     
   19.6262   18.8413   24.1383 N   0  3  0  0  0  0  0  0  0  0  0  0
   20.0581   19.1907   24.9999 H   0  0  0  0  0  0  0  0  0  0  0  0
   19.6532   17.8183   24.1874 H   0  0  0  0  0  0  0  0  0  0  0  0
   18.6402   19.1180   24.1681 H   0  0  0  0  0  0  0  0  0  0  0  0
   20.3271   19.3692   22.9024 C   0  0  0  0  0  0  0  0  0  0  0  0
   21.3758   19.0639   22.9527 H   0  0  0  0  0  0  0  0  0  0  0  0
   20.2866   20.4615   22.9320 H   0  0  0  0  0  0  0  0  0  0  0  0
   19.7034   18.8637   21.5888 C   0  0  0  0  0  0  0  0  0  0  0  0
   19.7319   17.7661   21.5695 H   0  0  0  0  0  0  0  0  0  0  0  0
   18.6464   19.1589   21.5489 H   0  0  0  0  0  0  0  0  0  0  0  0
   20.4461   19.4243   20.3560 C   0  0  0  0  0  0  0  0  0  0  0  0
   21.5050   19.1320   20.3971 H   0  0  0  0  0  0  0  0  0  0  0  0
   20.4207   20.5231   20.3764 H   0  0  0  0  0  0  0  0  0  0  0  0
   19.8261   18.9214   19.0345 C   0  0  0  0  0  0  0  0  0  0  0  0
   18.7756   19.2283   18.9486 H   0  0  0  0  0  0  0  0  0  0  0  0
   19.8684   17.8263   18.9695 H   0  0  0  0  0  0  0  0  0  0  0  0
   20.3675   19.3305   18.1716 H   0  0  0  0  0  0  0  0  0  0  0  0
  1  2  1  0  0  0  0
  1  3  1  0  0  0  0
  1  4  1  0  0  0  0
  1  5  1  0  0  0  0
  5  6  1  0  0  0  0
  5  7  1  0  0  0  0
  5  8  1  0  0  0  0
  8  9  1  0  0  0  0
  8 10  1  0  0  0  0
  8 11  1  0  0  0  0
 11 12  1  0  0  0  0
 11 13  1  0  0  0  0
 11 14  1  0  0  0  0
 14 15  1  0  0  0  0
 14 16  1  0  0  0  0
 14 17  1  0  0  0  0
M  END
> <VM2 Rank>
1

> <Conf_Id>
119

> <Probability>
28.02

> <Sum Probability>
28.02

> <Delta G>
0.000

> <G>
15.406

> <E>
-2.452

> <-TS>
17.858

> <U+W>
-15.866

> <U>
44.664

> <W>
-60.530

> <W(PB)>
-62.308

> <W(SA)>
1.778

> <Valence>
0.872

> <Coulomb>
43.648

> <VdW>
0.144

> <VdW6>
-2.370

> <VdW12>
2.515

> <Bond>
0.080

> <Angle>
0.375

> <Pdih>
0.416

> <Idih>
0.000

> <Tether>
0.000

$$$$
