@<TRIPOS>MOLECULE
guest-s20_vm2.mol2 : vm2 ligand conformer 1
          17          16           1
SMALL
USER_CHARGES
 
@<TRIPOS>ATOM
       1    C1      20.121698   19.026745   25.064307 C.2        1 MOL1         0.6132
       2    O1      21.229461   19.333199   25.459261 O.co2      1 MOL1        -0.6749
       3    O2      19.098643   19.545689   25.465678 O.co2      1 MOL1        -0.6749
       4    C2      20.007578   17.913623   24.027201 C.3        1 MOL1        -0.1955
       5    H1      19.074568   17.370956   24.218890 H          1 MOL1         0.0733
       6    H2      20.816029   17.197173   24.213872 H          1 MOL1         0.0733
       7    C3      20.047895   18.359437   22.571866 C.2        1 MOL1        -0.1395
       8    H3      19.964718   17.539547   21.861293 H          1 MOL1         0.0816
       9    C4      20.172187   19.623337   22.141665 C.2        1 MOL1        -0.1394
      10    H4      20.254889   20.437203   22.860847 H          1 MOL1         0.0816
      11    C5      20.214514   20.087236   20.695035 C.3        1 MOL1        -0.1826
      12    H5      19.406915   20.813331   20.530480 H          1 MOL1         0.0736
      13    H6      21.147734   20.641446   20.526334 H          1 MOL1         0.0736
      14    C6      20.101024   18.962734   19.641987 C.3        1 MOL1        -0.2882
      15    H7      20.140004   19.380453   18.627577 H          1 MOL1         0.0749
      16    H8      20.925816   18.244941   19.741470 H          1 MOL1         0.0749
      17    H9      19.152164   18.420185   19.745469 H          1 MOL1         0.0749
@<TRIPOS>BOND
    1     1     2    1
    2     1     3    2
    3     1     4    1
    4     4     5    1
    5     4     6    1
    6     4     7    1
    7     7     8    1
    8     7     9    2
    9     9    10    1
   10     9    11    1
   11    11    12    1
   12    11    13    1
   13    11    14    1
   14    14    15    1
   15    14    16    1
   16    14    17    1
@<TRIPOS>SUBSTRUCTURE
       1 MOL1            1 RESIDUE      1      MOL     
@<SCITEGIC>MOL_PROPERTY
VM2 Rank
SciTegic.value.IntegerValue
1

@<SCITEGIC>MOL_PROPERTY
Conf_Id
SciTegic.value.IntegerValue
97

@<SCITEGIC>MOL_PROPERTY
Probability
SciTegic.value.DoubleValue
14.29

@<SCITEGIC>MOL_PROPERTY
Sum Probability
SciTegic.value.DoubleValue
14.29

@<SCITEGIC>MOL_PROPERTY
Delta G
SciTegic.value.DoubleValue
0.000

@<SCITEGIC>MOL_PROPERTY
G
SciTegic.value.DoubleValue
-26.662

@<SCITEGIC>MOL_PROPERTY
E
SciTegic.value.DoubleValue
-36.827

@<SCITEGIC>MOL_PROPERTY
-TS
SciTegic.value.DoubleValue
10.165

@<SCITEGIC>MOL_PROPERTY
U+W
SciTegic.value.DoubleValue
-50.240

@<SCITEGIC>MOL_PROPERTY
U
SciTegic.value.DoubleValue
14.007

@<SCITEGIC>MOL_PROPERTY
W
SciTegic.value.DoubleValue
-64.247

@<SCITEGIC>MOL_PROPERTY
W(PB)
SciTegic.value.DoubleValue
-66.284

@<SCITEGIC>MOL_PROPERTY
W(SA)
SciTegic.value.DoubleValue
2.038

@<SCITEGIC>MOL_PROPERTY
Valence
SciTegic.value.DoubleValue
12.998

@<SCITEGIC>MOL_PROPERTY
Coulomb
SciTegic.value.DoubleValue
-0.405

@<SCITEGIC>MOL_PROPERTY
VdW
SciTegic.value.DoubleValue
1.414

@<SCITEGIC>MOL_PROPERTY
VdW6
SciTegic.value.DoubleValue
-5.682

@<SCITEGIC>MOL_PROPERTY
VdW12
SciTegic.value.DoubleValue
7.096

@<SCITEGIC>MOL_PROPERTY
Bond
SciTegic.value.DoubleValue
0.147

@<SCITEGIC>MOL_PROPERTY
Angle
SciTegic.value.DoubleValue
3.367

@<SCITEGIC>MOL_PROPERTY
Pdih
SciTegic.value.DoubleValue
9.484

@<SCITEGIC>MOL_PROPERTY
Idih
SciTegic.value.DoubleValue
0.001

@<SCITEGIC>MOL_PROPERTY
Tether
SciTegic.value.DoubleValue
0.000

