@<TRIPOS>MOLECULE
guest-s17_vm2.mol2 : vm2 ligand conformer 1
          25          25           1
SMALL
USER_CHARGES
 
@<TRIPOS>ATOM
       1    C1      21.264951   19.569990   21.138382 C.3        1 MOL1        -0.1684
       2    H1      21.774590   19.741489   20.180289 H          1 MOL1         0.0833
       3    H2      22.046891   19.718303   21.891625 H          1 MOL1         0.0833
       4    C2      20.759537   18.103813   21.158315 C.3        1 MOL1        -0.1684
       5    H3      19.715241   18.040876   20.826514 H          1 MOL1         0.0833
       6    H4      21.332705   17.546830   20.404485 H          1 MOL1         0.0833
       7    C3      20.952977   17.366202   22.509382 C.3        1 MOL1        -0.1684
       8    H5      22.013350   17.400497   22.794724 H          1 MOL1         0.0833
       9    H6      20.726636   16.303861   22.345137 H          1 MOL1         0.0833
      10    C4      20.085767   17.854788   23.700274 C.3        1 MOL1        -0.1760
      11    H7      19.020277   17.798951   23.447819 H          1 MOL1         0.0833
      12    H8      20.224579   17.130962   24.514731 H          1 MOL1         0.0833
      13    C5      20.454440   19.264584   24.230119 C.3        1 MOL1         0.1219
      14    H9      21.470266   19.513816   23.901731 H          1 MOL1         0.0790
      15    C6      19.485795   20.391424   23.794557 C.3        1 MOL1        -0.1760
      16    H10     18.576944   20.318217   24.407049 H          1 MOL1         0.0833
      17    H11     19.939832   21.359808   24.041135 H          1 MOL1         0.0833
      18    C7      19.043645   20.409515   22.308556 C.3        1 MOL1        -0.1684
      19    H12     18.309080   21.218470   22.195838 H          1 MOL1         0.0833
      20    H13     18.489037   19.496668   22.062765 H          1 MOL1         0.0833
      21    C8      20.164504   20.655243   21.267577 C.3        1 MOL1        -0.1684
      22    H14     19.682165   20.760332   20.286093 H          1 MOL1         0.0833
      23    H15     20.641081   21.624371   21.468161 H          1 MOL1         0.0833
      24    O1      20.452384   19.227442   25.652837 O.3        1 MOL1        -0.5508
      25    H16     20.731553   20.115640   25.958792 H          1 MOL1         0.3780
@<TRIPOS>BOND
    1     1     2    1
    2     1     3    1
    3     1     4    1
    4     4     5    1
    5     4     6    1
    6     4     7    1
    7     7     8    1
    8     7     9    1
    9     7    10    1
   10    10    11    1
   11    10    12    1
   12    10    13    1
   13    13    14    1
   14    13    15    1
   15    15    16    1
   16    15    17    1
   17    15    18    1
   18    18    19    1
   19    18    20    1
   20     1    21    1
   21    18    21    1
   22    21    22    1
   23    21    23    1
   24    13    24    1
   25    24    25    1
@<TRIPOS>SUBSTRUCTURE
       1 MOL1            1 RESIDUE      1      MOL     
@<SCITEGIC>MOL_PROPERTY
VM2 Rank
SciTegic.value.IntegerValue
1

@<SCITEGIC>MOL_PROPERTY
Conf_Id
SciTegic.value.IntegerValue
755

@<SCITEGIC>MOL_PROPERTY
Probability
SciTegic.value.DoubleValue
4.84

@<SCITEGIC>MOL_PROPERTY
Sum Probability
SciTegic.value.DoubleValue
4.84

@<SCITEGIC>MOL_PROPERTY
Delta G
SciTegic.value.DoubleValue
0.000

@<SCITEGIC>MOL_PROPERTY
G
SciTegic.value.DoubleValue
62.075

@<SCITEGIC>MOL_PROPERTY
E
SciTegic.value.DoubleValue
29.291

@<SCITEGIC>MOL_PROPERTY
-TS
SciTegic.value.DoubleValue
32.785

@<SCITEGIC>MOL_PROPERTY
U+W
SciTegic.value.DoubleValue
8.723

@<SCITEGIC>MOL_PROPERTY
U
SciTegic.value.DoubleValue
10.905

@<SCITEGIC>MOL_PROPERTY
W
SciTegic.value.DoubleValue
-2.182

@<SCITEGIC>MOL_PROPERTY
W(PB)
SciTegic.value.DoubleValue
-4.296

@<SCITEGIC>MOL_PROPERTY
W(SA)
SciTegic.value.DoubleValue
2.114

@<SCITEGIC>MOL_PROPERTY
Valence
SciTegic.value.DoubleValue
16.377

@<SCITEGIC>MOL_PROPERTY
Coulomb
SciTegic.value.DoubleValue
-8.448

@<SCITEGIC>MOL_PROPERTY
VdW
SciTegic.value.DoubleValue
2.976

@<SCITEGIC>MOL_PROPERTY
VdW6
SciTegic.value.DoubleValue
-12.570

@<SCITEGIC>MOL_PROPERTY
VdW12
SciTegic.value.DoubleValue
15.546

@<SCITEGIC>MOL_PROPERTY
Bond
SciTegic.value.DoubleValue
0.439

@<SCITEGIC>MOL_PROPERTY
Angle
SciTegic.value.DoubleValue
5.049

@<SCITEGIC>MOL_PROPERTY
Pdih
SciTegic.value.DoubleValue
10.889

@<SCITEGIC>MOL_PROPERTY
Idih
SciTegic.value.DoubleValue
0.000

@<SCITEGIC>MOL_PROPERTY
Tether
SciTegic.value.DoubleValue
0.000

