VeraChem MOL file


 17 16  0  0  0  0  0  0  0  0999 V2000     
   19.6262   18.8413   24.1383 N   0  3  0  0  0  0  0  0  0  0  0  0
   20.0581   19.1907   24.9999 H   0  0  0  0  0  0  0  0  0  0  0  0
   19.6532   17.8183   24.1874 H   0  0  0  0  0  0  0  0  0  0  0  0
   18.6402   19.1180   24.1681 H   0  0  0  0  0  0  0  0  0  0  0  0
   20.3271   19.3692   22.9024 C   0  0  0  0  0  0  0  0  0  0  0  0
   21.3758   19.0639   22.9527 H   0  0  0  0  0  0  0  0  0  0  0  0
   20.2866   20.4615   22.9320 H   0  0  0  0  0  0  0  0  0  0  0  0
   19.7034   18.8637   21.5888 C   0  0  0  0  0  0  0  0  0  0  0  0
   19.7319   17.7661   21.5695 H   0  0  0  0  0  0  0  0  0  0  0  0
   18.6464   19.1589   21.5489 H   0  0  0  0  0  0  0  0  0  0  0  0
   20.4461   19.4243   20.3560 C   0  0  0  0  0  0  0  0  0  0  0  0
   21.5050   19.1320   20.3971 H   0  0  0  0  0  0  0  0  0  0  0  0
   20.4207   20.5231   20.3764 H   0  0  0  0  0  0  0  0  0  0  0  0
   19.8261   18.9214   19.0345 C   0  0  0  0  0  0  0  0  0  0  0  0
   18.7756   19.2283   18.9486 H   0  0  0  0  0  0  0  0  0  0  0  0
   19.8684   17.8263   18.9695 H   0  0  0  0  0  0  0  0  0  0  0  0
   20.3675   19.3305   18.1716 H   0  0  0  0  0  0  0  0  0  0  0  0
  1  2  1  0  0  0  0
  1  3  1  0  0  0  0
  1  4  1  0  0  0  0
  1  5  1  0  0  0  0
  5  6  1  0  0  0  0
  5  7  1  0  0  0  0
  5  8  1  0  0  0  0
  8  9  1  0  0  0  0
  8 10  1  0  0  0  0
  8 11  1  0  0  0  0
 11 12  1  0  0  0  0
 11 13  1  0  0  0  0
 11 14  1  0  0  0  0
 14 15  1  0  0  0  0
 14 16  1  0  0  0  0
 14 17  1  0  0  0  0
M  END
> <VM2 Rank>
1

> <Conf_Id>
119

> <Probability>
28.02

> <Sum Probability>
28.02

> <Delta G>
0.000

> <G>
15.406

> <E>
-2.452

> <-TS>
17.858

> <U+W>
-15.866

> <U>
44.664

> <W>
-60.530

> <W(PB)>
-62.308

> <W(SA)>
1.778

> <Valence>
0.872

> <Coulomb>
43.648

> <VdW>
0.144

> <VdW6>
-2.370

> <VdW12>
2.515

> <Bond>
0.080

> <Angle>
0.375

> <Pdih>
0.416

> <Idih>
0.000

> <Tether>
0.000

$$$$
VeraChem MOL file


 17 16  0  0  0  0  0  0  0  0999 V2000     
   19.2949   19.3740   23.6869 N   0  3  0  0  0  0  0  0  0  0  0  0
   18.8518   20.1590   23.2014 H   0  0  0  0  0  0  0  0  0  0  0  0
   19.4572   19.6753   24.6532 H   0  0  0  0  0  0  0  0  0  0  0  0
   18.6078   18.6149   23.7243 H   0  0  0  0  0  0  0  0  0  0  0  0
   20.5806   18.9410   23.0086 C   0  0  0  0  0  0  0  0  0  0  0  0
   21.0149   18.1344   23.6056 H   0  0  0  0  0  0  0  0  0  0  0  0
   21.2744   19.7860   23.0245 H   0  0  0  0  0  0  0  0  0  0  0  0
   20.3889   18.4550   21.5582 C   0  0  0  0  0  0  0  0  0  0  0  0
   21.3496   18.0703   21.1911 H   0  0  0  0  0  0  0  0  0  0  0  0
   19.6881   17.6097   21.5442 H   0  0  0  0  0  0  0  0  0  0  0  0
   19.8906   19.5727   20.6120 C   0  0  0  0  0  0  0  0  0  0  0  0
   20.5812   20.4269   20.6525 H   0  0  0  0  0  0  0  0  0  0  0  0
   18.9109   19.9408   20.9455 H   0  0  0  0  0  0  0  0  0  0  0  0
   19.7741   19.0773   19.1543 C   0  0  0  0  0  0  0  0  0  0  0  0
   19.0654   18.2426   19.0761 H   0  0  0  0  0  0  0  0  0  0  0  0
   20.7458   18.7373   18.7731 H   0  0  0  0  0  0  0  0  0  0  0  0
   19.4189   19.8826   18.4982 H   0  0  0  0  0  0  0  0  0  0  0  0
  1  2  1  0  0  0  0
  1  3  1  0  0  0  0
  1  4  1  0  0  0  0
  1  5  1  0  0  0  0
  5  6  1  0  0  0  0
  5  7  1  0  0  0  0
  5  8  1  0  0  0  0
  8  9  1  0  0  0  0
  8 10  1  0  0  0  0
  8 11  1  0  0  0  0
 11 12  1  0  0  0  0
 11 13  1  0  0  0  0
 11 14  1  0  0  0  0
 14 15  1  0  0  0  0
 14 16  1  0  0  0  0
 14 17  1  0  0  0  0
M  END
> <VM2 Rank>
2

> <Conf_Id>
274

> <Probability>
15.66

> <Sum Probability>
43.68

> <Delta G>
0.347

> <G>
15.753

> <E>
-2.202

> <-TS>
17.955

> <U+W>
-15.616

> <U>
45.278

> <W>
-60.894

> <W(PB)>
-62.643

> <W(SA)>
1.750

> <Valence>
0.993

> <Coulomb>
44.034

> <VdW>
0.251

> <VdW6>
-2.855

> <VdW12>
3.107

> <Bond>
0.101

> <Angle>
0.434

> <Pdih>
0.458

> <Idih>
0.000

> <Tether>
0.000

$$$$
VeraChem MOL file


 17 16  0  0  0  0  0  0  0  0999 V2000     
   20.0682   18.3818   23.7016 N   0  3  0  0  0  0  0  0  0  0  0  0
   20.7282   17.7517   23.2370 H   0  0  0  0  0  0  0  0  0  0  0  0
   19.1639   17.9015   23.7348 H   0  0  0  0  0  0  0  0  0  0  0  0
   20.3861   18.4835   24.6709 H   0  0  0  0  0  0  0  0  0  0  0  0
   19.9723   19.7216   22.9970 C   0  0  0  0  0  0  0  0  0  0  0  0
   20.9607   20.1884   23.0185 H   0  0  0  0  0  0  0  0  0  0  0  0
   19.2877   20.3505   23.5727 H   0  0  0  0  0  0  0  0  0  0  0  0
   19.4751   19.6274   21.5408 C   0  0  0  0  0  0  0  0  0  0  0  0
   18.4845   19.1539   21.5213 H   0  0  0  0  0  0  0  0  0  0  0  0
   19.3420   20.6461   21.1528 H   0  0  0  0  0  0  0  0  0  0  0  0
   20.4506   18.8541   20.6227 C   0  0  0  0  0  0  0  0  0  0  0  0
   20.5634   17.8205   20.9770 H   0  0  0  0  0  0  0  0  0  0  0  0
   21.4470   19.3160   20.6690 H   0  0  0  0  0  0  0  0  0  0  0  0
   19.9629   18.8352   19.1579 C   0  0  0  0  0  0  0  0  0  0  0  0
   18.9814   18.3504   19.0745 H   0  0  0  0  0  0  0  0  0  0  0  0
   20.6663   18.2822   18.5219 H   0  0  0  0  0  0  0  0  0  0  0  0
   19.8761   19.8533   18.7566 H   0  0  0  0  0  0  0  0  0  0  0  0
  1  2  1  0  0  0  0
  1  3  1  0  0  0  0
  1  4  1  0  0  0  0
  1  5  1  0  0  0  0
  5  6  1  0  0  0  0
  5  7  1  0  0  0  0
  5  8  1  0  0  0  0
  8  9  1  0  0  0  0
  8 10  1  0  0  0  0
  8 11  1  0  0  0  0
 11 12  1  0  0  0  0
 11 13  1  0  0  0  0
 11 14  1  0  0  0  0
 14 15  1  0  0  0  0
 14 16  1  0  0  0  0
 14 17  1  0  0  0  0
M  END
> <VM2 Rank>
3

> <Conf_Id>
249

> <Probability>
15.08

> <Sum Probability>
58.76

> <Delta G>
0.369

> <G>
15.775

> <E>
-2.180

> <-TS>
17.955

> <U+W>
-15.594

> <U>
45.278

> <W>
-60.872

> <W(PB)>
-62.614

> <W(SA)>
1.742

> <Valence>
0.993

> <Coulomb>
44.034

> <VdW>
0.251

> <VdW6>
-2.856

> <VdW12>
3.107

> <Bond>
0.101

> <Angle>
0.434

> <Pdih>
0.458

> <Idih>
0.000

> <Tether>
0.000

$$$$
VeraChem MOL file


 17 16  0  0  0  0  0  0  0  0999 V2000     
   19.5539   18.9865   24.0026 N   0  3  0  0  0  0  0  0  0  0  0  0
   18.9632   18.1495   24.0129 H   0  0  0  0  0  0  0  0  0  0  0  0
   19.0938   19.6815   24.5994 H   0  0  0  0  0  0  0  0  0  0  0  0
   20.4351   18.7383   24.4625 H   0  0  0  0  0  0  0  0  0  0  0  0
   19.7745   19.5083   22.5967 C   0  0  0  0  0  0  0  0  0  0  0  0
   20.3839   20.4136   22.6640 H   0  0  0  0  0  0  0  0  0  0  0  0
   18.8001   19.7808   22.1829 H   0  0  0  0  0  0  0  0  0  0  0  0
   20.4648   18.4874   21.6720 C   0  0  0  0  0  0  0  0  0  0  0  0
   21.4240   18.1903   22.1165 H   0  0  0  0  0  0  0  0  0  0  0  0
   19.8535   17.5775   21.6058 H   0  0  0  0  0  0  0  0  0  0  0  0
   20.7195   19.0454   20.2522 C   0  0  0  0  0  0  0  0  0  0  0  0
   21.2830   18.3013   19.6720 H   0  0  0  0  0  0  0  0  0  0  0  0
   21.3589   19.9374   20.3141 H   0  0  0  0  0  0  0  0  0  0  0  0
   19.4163   19.3923   19.4965 C   0  0  0  0  0  0  0  0  0  0  0  0
   18.7559   18.5182   19.4259 H   0  0  0  0  0  0  0  0  0  0  0  0
   19.6408   19.7255   18.4749 H   0  0  0  0  0  0  0  0  0  0  0  0
   18.8643   20.1998   19.9938 H   0  0  0  0  0  0  0  0  0  0  0  0
  1  2  1  0  0  0  0
  1  3  1  0  0  0  0
  1  4  1  0  0  0  0
  1  5  1  0  0  0  0
  5  6  1  0  0  0  0
  5  7  1  0  0  0  0
  5  8  1  0  0  0  0
  8  9  1  0  0  0  0
  8 10  1  0  0  0  0
  8 11  1  0  0  0  0
 11 12  1  0  0  0  0
 11 13  1  0  0  0  0
 11 14  1  0  0  0  0
 14 15  1  0  0  0  0
 14 16  1  0  0  0  0
 14 17  1  0  0  0  0
M  END
> <VM2 Rank>
4

> <Conf_Id>
82

> <Probability>
15.00

> <Sum Probability>
73.76

> <Delta G>
0.372

> <G>
15.778

> <E>
-2.177

> <-TS>
17.955

> <U+W>
-15.590

> <U>
45.174

> <W>
-60.765

> <W(PB)>
-62.518

> <W(SA)>
1.754

> <Valence>
1.161

> <Coulomb>
43.789

> <VdW>
0.224

> <VdW6>
-2.897

> <VdW12>
3.121

> <Bond>
0.100

> <Angle>
0.500

> <Pdih>
0.561

> <Idih>
0.000

> <Tether>
0.000

$$$$
VeraChem MOL file


 17 16  0  0  0  0  0  0  0  0999 V2000     
   19.7514   18.7333   24.0063 N   0  3  0  0  0  0  0  0  0  0  0  0
   18.7953   18.3650   24.0098 H   0  0  0  0  0  0  0  0  0  0  0  0
   19.7194   19.6568   24.4489 H   0  0  0  0  0  0  0  0  0  0  0  0
   20.3042   18.1286   24.6224 H   0  0  0  0  0  0  0  0  0  0  0  0
   20.3313   18.7938   22.6073 C   0  0  0  0  0  0  0  0  0  0  0  0
   20.3633   17.7750   22.2126 H   0  0  0  0  0  0  0  0  0  0  0  0
   21.3570   19.1650   22.6824 H   0  0  0  0  0  0  0  0  0  0  0  0
   19.5233   19.6953   21.6541 C   0  0  0  0  0  0  0  0  0  0  0  0
   18.4927   19.3234   21.5799 H   0  0  0  0  0  0  0  0  0  0  0  0
   19.4632   20.7060   22.0792 H   0  0  0  0  0  0  0  0  0  0  0  0
   20.1470   19.7799   20.2413 C   0  0  0  0  0  0  0  0  0  0  0  0
   21.1670   20.1835   20.3104 H   0  0  0  0  0  0  0  0  0  0  0  0
   19.5713   20.4970   19.6394 H   0  0  0  0  0  0  0  0  0  0  0  0
   20.1760   18.4177   19.5110 C   0  0  0  0  0  0  0  0  0  0  0  0
   20.8172   17.6947   20.0310 H   0  0  0  0  0  0  0  0  0  0  0  0
   20.5685   18.5352   18.4926 H   0  0  0  0  0  0  0  0  0  0  0  0
   19.1683   17.9891   19.4340 H   0  0  0  0  0  0  0  0  0  0  0  0
  1  2  1  0  0  0  0
  1  3  1  0  0  0  0
  1  4  1  0  0  0  0
  1  5  1  0  0  0  0
  5  6  1  0  0  0  0
  5  7  1  0  0  0  0
  5  8  1  0  0  0  0
  8  9  1  0  0  0  0
  8 10  1  0  0  0  0
  8 11  1  0  0  0  0
 11 12  1  0  0  0  0
 11 13  1  0  0  0  0
 11 14  1  0  0  0  0
 14 15  1  0  0  0  0
 14 16  1  0  0  0  0
 14 17  1  0  0  0  0
M  END
> <VM2 Rank>
5

> <Conf_Id>
69

> <Probability>
14.12

> <Sum Probability>
87.88

> <Delta G>
0.409

> <G>
15.814

> <E>
-2.140

> <-TS>
17.955

> <U+W>
-15.554

> <U>
45.174

> <W>
-60.728

> <W(PB)>
-62.487

> <W(SA)>
1.758

> <Valence>
1.161

> <Coulomb>
43.789

> <VdW>
0.224

> <VdW6>
-2.897

> <VdW12>
3.121

> <Bond>
0.100

> <Angle>
0.500

> <Pdih>
0.561

> <Idih>
0.000

> <Tether>
0.000

$$$$
VeraChem MOL file


 17 16  0  0  0  0  0  0  0  0999 V2000     
   19.6057   18.3342   23.4321 N   0  3  0  0  0  0  0  0  0  0  0  0
   18.8599   18.2942   24.1342 H   0  0  0  0  0  0  0  0  0  0  0  0
   20.4855   18.1455   23.9217 H   0  0  0  0  0  0  0  0  0  0  0  0
   19.4476   17.5578   22.7836 H   0  0  0  0  0  0  0  0  0  0  0  0
   19.6331   19.6695   22.7138 C   0  0  0  0  0  0  0  0  0  0  0  0
   19.7670   20.4503   23.4674 H   0  0  0  0  0  0  0  0  0  0  0  0
   18.6594   19.8204   22.2405 H   0  0  0  0  0  0  0  0  0  0  0  0
   20.7495   19.7845   21.6553 C   0  0  0  0  0  0  0  0  0  0  0  0
   20.7333   20.7995   21.2366 H   0  0  0  0  0  0  0  0  0  0  0  0
   21.7250   19.6722   22.1468 H   0  0  0  0  0  0  0  0  0  0  0  0
   20.6331   18.7561   20.5027 C   0  0  0  0  0  0  0  0  0  0  0  0
   20.7399   17.7356   20.8949 H   0  0  0  0  0  0  0  0  0  0  0  0
   21.4737   18.9042   19.8103 H   0  0  0  0  0  0  0  0  0  0  0  0
   19.3077   18.8756   19.7161 C   0  0  0  0  0  0  0  0  0  0  0  0
   18.4407   18.6455   20.3481 H   0  0  0  0  0  0  0  0  0  0  0  0
   19.2967   18.1748   18.8713 H   0  0  0  0  0  0  0  0  0  0  0  0
   19.1783   19.8883   19.3125 H   0  0  0  0  0  0  0  0  0  0  0  0
  1  2  1  0  0  0  0
  1  3  1  0  0  0  0
  1  4  1  0  0  0  0
  1  5  1  0  0  0  0
  5  6  1  0  0  0  0
  5  7  1  0  0  0  0
  5  8  1  0  0  0  0
  8  9  1  0  0  0  0
  8 10  1  0  0  0  0
  8 11  1  0  0  0  0
 11 12  1  0  0  0  0
 11 13  1  0  0  0  0
 11 14  1  0  0  0  0
 14 15  1  0  0  0  0
 14 16  1  0  0  0  0
 14 17  1  0  0  0  0
M  END
> <VM2 Rank>
6

> <Conf_Id>
234

> <Probability>
6.04

> <Sum Probability>
93.92

> <Delta G>
0.915

> <G>
16.320

> <E>
-1.810

> <-TS>
18.131

> <U+W>
-15.224

> <U>
45.697

> <W>
-60.920

> <W(PB)>
-62.632

> <W(SA)>
1.712

> <Valence>
1.263

> <Coulomb>
44.179

> <VdW>
0.255

> <VdW6>
-3.552

> <VdW12>
3.807

> <Bond>
0.125

> <Angle>
0.616

> <Pdih>
0.521

> <Idih>
0.000

> <Tether>
0.000

$$$$
VeraChem MOL file


 17 16  0  0  0  0  0  0  0  0999 V2000     
   19.1397   18.9318   23.4232 N   0  3  0  0  0  0  0  0  0  0  0  0
   18.9090   18.2313   24.1351 H   0  0  0  0  0  0  0  0  0  0  0  0
   18.3576   18.9555   22.7628 H   0  0  0  0  0  0  0  0  0  0  0  0
   19.1642   19.8400   23.8965 H   0  0  0  0  0  0  0  0  0  0  0  0
   20.4516   18.6198   22.7294 C   0  0  0  0  0  0  0  0  0  0  0  0
   20.3673   17.6301   22.2730 H   0  0  0  0  0  0  0  0  0  0  0  0
   21.2305   18.5734   23.4953 H   0  0  0  0  0  0  0  0  0  0  0  0
   20.8506   19.6548   21.6572 C   0  0  0  0  0  0  0  0  0  0  0  0
   20.9725   20.6372   22.1324 H   0  0  0  0  0  0  0  0  0  0  0  0
   21.8369   19.3842   21.2576 H   0  0  0  0  0  0  0  0  0  0  0  0
   19.8416   19.7713   20.4876 C   0  0  0  0  0  0  0  0  0  0  0  0
   20.2001   20.5375   19.7861 H   0  0  0  0  0  0  0  0  0  0  0  0
   18.8724   20.1306   20.8594 H   0  0  0  0  0  0  0  0  0  0  0  0
   19.6455   18.4423   19.7225 C   0  0  0  0  0  0  0  0  0  0  0  0
   18.9754   18.5869   18.8652 H   0  0  0  0  0  0  0  0  0  0  0  0
   19.2019   17.6694   20.3626 H   0  0  0  0  0  0  0  0  0  0  0  0
   20.6017   18.0627   19.3395 H   0  0  0  0  0  0  0  0  0  0  0  0
  1  2  1  0  0  0  0
  1  3  1  0  0  0  0
  1  4  1  0  0  0  0
  1  5  1  0  0  0  0
  5  6  1  0  0  0  0
  5  7  1  0  0  0  0
  5  8  1  0  0  0  0
  8  9  1  0  0  0  0
  8 10  1  0  0  0  0
  8 11  1  0  0  0  0
 11 12  1  0  0  0  0
 11 13  1  0  0  0  0
 11 14  1  0  0  0  0
 14 15  1  0  0  0  0
 14 16  1  0  0  0  0
 14 17  1  0  0  0  0
M  END
> <VM2 Rank>
7

> <Conf_Id>
113

> <Probability>
5.61

> <Sum Probability>
99.53

> <Delta G>
0.959

> <G>
16.365

> <E>
-1.766

> <-TS>
18.131

> <U+W>
-15.180

> <U>
45.697

> <W>
-60.876

> <W(PB)>
-62.587

> <W(SA)>
1.710

> <Valence>
1.263

> <Coulomb>
44.179

> <VdW>
0.255

> <VdW6>
-3.552

> <VdW12>
3.807

> <Bond>
0.125

> <Angle>
0.616

> <Pdih>
0.521

> <Idih>
0.000

> <Tether>
0.000

$$$$
VeraChem MOL file


 17 16  0  0  0  0  0  0  0  0999 V2000     
   19.4443   18.2038   23.2130 N   0  3  0  0  0  0  0  0  0  0  0  0
   19.3475   17.5462   22.4352 H   0  0  0  0  0  0  0  0  0  0  0  0
   18.5074   18.5597   23.4252 H   0  0  0  0  0  0  0  0  0  0  0  0
   19.7491   17.6639   24.0294 H   0  0  0  0  0  0  0  0  0  0  0  0
   20.4117   19.3246   22.8846 C   0  0  0  0  0  0  0  0  0  0  0  0
   21.4055   18.8941   22.7352 H   0  0  0  0  0  0  0  0  0  0  0  0
   20.4546   19.9771   23.7610 H   0  0  0  0  0  0  0  0  0  0  0  0
   20.0154   20.1640   21.6518 C   0  0  0  0  0  0  0  0  0  0  0  0
   18.9413   20.3904   21.6811 H   0  0  0  0  0  0  0  0  0  0  0  0
   20.5292   21.1316   21.7262 H   0  0  0  0  0  0  0  0  0  0  0  0
   20.3950   19.5263   20.2909 C   0  0  0  0  0  0  0  0  0  0  0  0
   21.4811   19.3629   20.2495 H   0  0  0  0  0  0  0  0  0  0  0  0
   20.1658   20.2482   19.4945 H   0  0  0  0  0  0  0  0  0  0  0  0
   19.6626   18.2013   19.9797 C   0  0  0  0  0  0  0  0  0  0  0  0
   20.0159   17.3859   20.6215 H   0  0  0  0  0  0  0  0  0  0  0  0
   19.8496   17.8980   18.9413 H   0  0  0  0  0  0  0  0  0  0  0  0
   18.5771   18.3067   20.1053 H   0  0  0  0  0  0  0  0  0  0  0  0
  1  2  1  0  0  0  0
  1  3  1  0  0  0  0
  1  4  1  0  0  0  0
  1  5  1  0  0  0  0
  5  6  1  0  0  0  0
  5  7  1  0  0  0  0
  5  8  1  0  0  0  0
  8  9  1  0  0  0  0
  8 10  1  0  0  0  0
  8 11  1  0  0  0  0
 11 12  1  0  0  0  0
 11 13  1  0  0  0  0
 11 14  1  0  0  0  0
 14 15  1  0  0  0  0
 14 16  1  0  0  0  0
 14 17  1  0  0  0  0
M  END
> <VM2 Rank>
8

> <Conf_Id>
19

> <Probability>
0.25

> <Sum Probability>
99.77

> <Delta G>
2.821

> <G>
18.226

> <E>
0.211

> <-TS>
18.016

> <U+W>
-13.203

> <U>
47.423

> <W>
-60.626

> <W(PB)>
-62.328

> <W(SA)>
1.702

> <Valence>
2.414

> <Coulomb>
44.831

> <VdW>
0.178

> <VdW6>
-3.743

> <VdW12>
3.921

> <Bond>
0.138

> <Angle>
0.941

> <Pdih>
1.335

> <Idih>
0.000

> <Tether>
0.000

$$$$
