VeraChem MOL file


 29 28  0  0  0  0  0  0  0  0999 V2000     
   19.5306   19.9313   18.7439 C   0  0  0  0  0  0  0  0  0  0  0  0
   18.5906   20.4924   18.8259 H   0  0  0  0  0  0  0  0  0  0  0  0
   20.3585   20.6521   18.7241 H   0  0  0  0  0  0  0  0  0  0  0  0
   19.5233   19.3998   17.7835 H   0  0  0  0  0  0  0  0  0  0  0  0
   19.6877   18.9385   19.9150 C   0  0  0  0  0  0  0  0  0  0  0  0
   20.6190   18.3690   19.7877 H   0  0  0  0  0  0  0  0  0  0  0  0
   18.8647   18.2106   19.8887 H   0  0  0  0  0  0  0  0  0  0  0  0
   19.7011   19.6615   21.2799 C   0  0  0  0  0  0  0  0  0  0  0  0
   20.5238   20.3896   21.3006 H   0  0  0  0  0  0  0  0  0  0  0  0
   18.7693   20.2311   21.4015 H   0  0  0  0  0  0  0  0  0  0  0  0
   19.8584   18.6704   22.4551 C   0  0  0  0  0  0  0  0  0  0  0  0
   20.7898   18.1006   22.3314 H   0  0  0  0  0  0  0  0  0  0  0  0
   19.0351   17.9429   22.4339 H   0  0  0  0  0  0  0  0  0  0  0  0
   19.8724   19.3942   23.8204 C   0  0  0  0  0  0  0  0  0  0  0  0
   20.6981   20.1191   23.8421 H   0  0  0  0  0  0  0  0  0  0  0  0
   18.9418   19.9661   23.9337 H   0  0  0  0  0  0  0  0  0  0  0  0
   20.0289   18.3990   24.9958 C   0  0  0  0  0  0  0  0  0  0  0  0
   20.9354   17.8002   24.8354 H   0  0  0  0  0  0  0  0  0  0  0  0
   19.1855   17.6957   25.0018 H   0  0  0  0  0  0  0  0  0  0  0  0
   20.1314   19.0989   26.3682 C   0  0  2  0  0  0  0  0  0  0  0  0
   20.9619   19.8105   26.3292 H   0  0  0  0  0  0  0  0  0  0  0  0
   20.4280   18.0708   27.4716 C   0  0  0  0  0  0  0  0  0  0  0  0
   20.5383   18.5660   28.4442 H   0  0  0  0  0  0  0  0  0  0  0  0
   19.6207   17.3322   27.5534 H   0  0  0  0  0  0  0  0  0  0  0  0
   21.3622   17.5344   27.2636 H   0  0  0  0  0  0  0  0  0  0  0  0
   18.8975   19.8912   26.7041 N   0  3  0  0  0  0  0  0  0  0  0  0
   18.9910   20.3639   27.6077 H   0  0  0  0  0  0  0  0  0  0  0  0
   18.0710   19.2898   26.7565 H   0  0  0  0  0  0  0  0  0  0  0  0
   18.7121   20.6104   25.9999 H   0  0  0  0  0  0  0  0  0  0  0  0
  1  2  1  0  0  0  0
  1  3  1  0  0  0  0
  1  4  1  0  0  0  0
  1  5  1  0  0  0  0
  5  6  1  0  0  0  0
  5  7  1  0  0  0  0
  5  8  1  0  0  0  0
  8  9  1  0  0  0  0
  8 10  1  0  0  0  0
  8 11  1  0  0  0  0
 11 12  1  0  0  0  0
 11 13  1  0  0  0  0
 11 14  1  0  0  0  0
 14 15  1  0  0  0  0
 14 16  1  0  0  0  0
 14 17  1  0  0  0  0
 17 18  1  0  0  0  0
 17 19  1  0  0  0  0
 17 20  1  0  0  0  0
 20 21  1  0  0  0  0
 20 22  1  0  0  0  0
 22 23  1  0  0  0  0
 22 24  1  0  0  0  0
 22 25  1  0  0  0  0
 20 26  1  0  0  0  0
 26 27  1  0  0  0  0
 26 28  1  0  0  0  0
 26 29  1  0  0  0  0
M  END
> <VM2 Rank>
1

> <Conf_Id>
1424

> <Probability>
10.38

> <Sum Probability>
10.38

> <Delta G>
0.000

> <G>
33.702

> <E>
-3.682

> <-TS>
37.384

> <U+W>
-27.827

> <U>
23.963

> <W>
-51.788

> <W(PB)>
-54.341

> <W(SA)>
2.554

> <Valence>
3.166

> <Coulomb>
19.734

> <VdW>
1.062

> <VdW6>
-7.938

> <VdW12>
9.001

> <Bond>
0.188

> <Angle>
0.880

> <Pdih>
2.098

> <Idih>
0.000

> <Tether>
0.000

$$$$
