VeraChem MOL file


 13 13  0  0  0  0  0  0  0  0999 V2000     
   19.7184   18.9887   20.9308 C   0  0  0  0  0  0  0  0  0  0  0  0
   18.7845   19.2996   20.4442 H   0  0  0  0  0  0  0  0  0  0  0  0
   20.4604   18.7657   20.1549 H   0  0  0  0  0  0  0  0  0  0  0  0
   19.5460   17.9070   22.0478 C   0  0  0  0  0  0  0  0  0  0  0  0
   20.4632   17.3616   22.3028 H   0  0  0  0  0  0  0  0  0  0  0  0
   18.7360   17.1846   21.8986 H   0  0  0  0  0  0  0  0  0  0  0  0
   19.2226   19.1062   22.9894 C   0  0  0  0  0  0  0  0  0  0  0  0
   18.1791   19.4457   22.9367 H   0  0  0  0  0  0  0  0  0  0  0  0
   20.1960   19.9253   22.0893 C   0  0  0  0  0  0  0  0  0  0  0  0
   21.2554   19.8236   22.3556 H   0  0  0  0  0  0  0  0  0  0  0  0
   19.9609   20.9895   21.9789 H   0  0  0  0  0  0  0  0  0  0  0  0
   19.6301   18.9478   24.3286 O   0  0  0  0  0  0  0  0  0  0  0  0
   19.0296   18.2890   24.7392 H   0  0  0  0  0  0  0  0  0  0  0  0
  1  2  1  0  0  0  0
  1  3  1  0  0  0  0
  1  4  1  0  0  0  0
  4  5  1  0  0  0  0
  4  6  1  0  0  0  0
  4  7  1  0  0  0  0
  7  8  1  0  0  0  0
  1  9  1  0  0  0  0
  7  9  1  0  0  0  0
  9 10  1  0  0  0  0
  9 11  1  0  0  0  0
  7 12  1  0  0  0  0
 12 13  1  0  0  0  0
M  END
> <VM2 Rank>
1

> <Conf_Id>
19

> <Probability>
32.01

> <Sum Probability>
32.01

> <Delta G>
0.000

> <G>
16.554

> <E>
6.694

> <-TS>
9.860

> <U+W>
-3.142

> <U>
-0.154

> <W>
-2.989

> <W(PB)>
-4.588

> <W(SA)>
1.599

> <Valence>
6.334

> <Coulomb>
-7.439

> <VdW>
0.951

> <VdW6>
-2.120

> <VdW12>
3.072

> <Bond>
0.065

> <Angle>
0.930

> <Pdih>
5.339

> <Idih>
0.000

> <Tether>
0.000

$$$$
