VeraChem MOL file


 20 19  0  0  0  0  0  0  0  0999 V2000     
   19.8542   19.1509   18.8169 C   0  0  0  0  0  0  0  0  0  0  0  0
   20.3378   18.6998   17.9408 H   0  0  0  0  0  0  0  0  0  0  0  0
   18.7731   18.9823   18.7280 H   0  0  0  0  0  0  0  0  0  0  0  0
   20.0352   20.2330   18.7808 H   0  0  0  0  0  0  0  0  0  0  0  0
   20.4073   18.5375   20.1216 C   0  0  0  0  0  0  0  0  0  0  0  0
   21.4949   18.6915   20.1650 H   0  0  0  0  0  0  0  0  0  0  0  0
   20.2425   17.4507   20.1127 H   0  0  0  0  0  0  0  0  0  0  0  0
   19.7440   19.1543   21.3727 C   0  0  0  0  0  0  0  0  0  0  0  0
   19.9122   20.2395   21.3827 H   0  0  0  0  0  0  0  0  0  0  0  0
   18.6580   18.9971   21.3302 H   0  0  0  0  0  0  0  0  0  0  0  0
   20.3007   18.5375   22.6694 C   0  0  0  0  0  0  0  0  0  0  0  0
   21.3793   18.7058   22.7224 H   0  0  0  0  0  0  0  0  0  0  0  0
   20.1210   17.4594   22.6697 H   0  0  0  0  0  0  0  0  0  0  0  0
   19.6776   19.1133   23.9259 N   0  3  0  0  0  0  0  0  0  0  0  0
   18.6547   18.9808   23.9098 H   0  0  0  0  0  0  0  0  0  0  0  0
   19.8199   20.1345   23.9588 H   0  0  0  0  0  0  0  0  0  0  0  0
   20.2822   18.4505   25.1565 C   0  0  0  0  0  0  0  0  0  0  0  0
   21.3589   18.6328   25.1711 H   0  0  0  0  0  0  0  0  0  0  0  0
   19.8250   18.8742   26.0534 H   0  0  0  0  0  0  0  0  0  0  0  0
   20.0897   17.3761   25.1177 H   0  0  0  0  0  0  0  0  0  0  0  0
  1  2  1  0  0  0  0
  1  3  1  0  0  0  0
  1  4  1  0  0  0  0
  1  5  1  0  0  0  0
  5  6  1  0  0  0  0
  5  7  1  0  0  0  0
  5  8  1  0  0  0  0
  8  9  1  0  0  0  0
  8 10  1  0  0  0  0
  8 11  1  0  0  0  0
 11 12  1  0  0  0  0
 11 13  1  0  0  0  0
 11 14  1  0  0  0  0
 14 15  1  0  0  0  0
 14 16  1  0  0  0  0
 14 17  1  0  0  0  0
 17 18  1  0  0  0  0
 17 19  1  0  0  0  0
 17 20  1  0  0  0  0
M  END
> <VM2 Rank>
1

> <Conf_Id>
167

> <Probability>
13.71

> <Sum Probability>
13.71

> <Delta G>
0.000

> <G>
53.936

> <E>
31.434

> <-TS>
22.502

> <U+W>
15.338

> <U>
69.277

> <W>
-53.939

> <W(PB)>
-55.889

> <W(SA)>
1.950

> <Valence>
0.846

> <Coulomb>
68.557

> <VdW>
-0.127

> <VdW6>
-3.008

> <VdW12>
2.882

> <Bond>
0.088

> <Angle>
0.332

> <Pdih>
0.426

> <Idih>
0.000

> <Tether>
0.000

$$$$
