@<TRIPOS>MOLECULE
guest-s11_vm2.mol2 : vm2 ligand conformer 1
          20          19           1
SMALL
USER_CHARGES
 
@<TRIPOS>ATOM
       1    N1      19.735816   18.939032   25.647858 N.4        1 MOL1        -0.5919
       2    H1      19.533225   17.936048   25.705903 H          1 MOL1         0.3682
       3    H2      20.263181   19.185001   26.492242 H          1 MOL1         0.3682
       4    H3      18.838652   19.431289   25.704138 H          1 MOL1         0.3682
       5    C1      20.497246   19.291238   24.385850 C.3        1 MOL1         0.0252
       6    H4      21.451117   18.757200   24.407035 H          1 MOL1         0.0971
       7    H5      20.704411   20.364657   24.405120 H          1 MOL1         0.0971
       8    C2      19.732556   18.934479   23.098512 C.3        1 MOL1        -0.1369
       9    H6      19.512648   17.858537   23.090974 H          1 MOL1         0.0997
      10    H7      18.768552   19.460476   23.089031 H          1 MOL1         0.0997
      11    C3      20.542097   19.308977   21.837115 C.3        1 MOL1        -0.1329
      12    H8      21.508044   18.785049   21.852476 H          1 MOL1         0.0997
      13    H9      20.764789   20.385090   21.850508 H          1 MOL1         0.0997
      14    C4      19.783868   18.955159   20.538101 C.3        1 MOL1        -0.1305
      15    H10     19.560985   17.879041   20.519595 H          1 MOL1         0.0997
      16    H11     18.817762   19.478866   20.517655 H          1 MOL1         0.0997
      17    C5      20.596416   19.331116   19.280564 C.3        1 MOL1        -0.2320
      18    H12     20.042056   19.072446   18.369072 H          1 MOL1         0.1008
      19    H13     20.805625   20.408465   19.252897 H          1 MOL1         0.1008
      20    H14     21.554709   18.796111   19.254875 H          1 MOL1         0.1008
@<TRIPOS>BOND
    1     1     2    1
    2     1     3    1
    3     1     4    1
    4     1     5    1
    5     5     6    1
    6     5     7    1
    7     5     8    1
    8     8     9    1
    9     8    10    1
   10     8    11    1
   11    11    12    1
   12    11    13    1
   13    11    14    1
   14    14    15    1
   15    14    16    1
   16    14    17    1
   17    17    18    1
   18    17    19    1
   19    17    20    1
@<TRIPOS>SUBSTRUCTURE
       1 MOL1            1 RESIDUE      1      MOL     
@<SCITEGIC>MOL_PROPERTY
VM2 Rank
SciTegic.value.IntegerValue
1

@<SCITEGIC>MOL_PROPERTY
Conf_Id
SciTegic.value.IntegerValue
167

@<SCITEGIC>MOL_PROPERTY
Probability
SciTegic.value.DoubleValue
18.27

@<SCITEGIC>MOL_PROPERTY
Sum Probability
SciTegic.value.DoubleValue
18.27

@<SCITEGIC>MOL_PROPERTY
Delta G
SciTegic.value.DoubleValue
0.000

@<SCITEGIC>MOL_PROPERTY
G
SciTegic.value.DoubleValue
27.007

@<SCITEGIC>MOL_PROPERTY
E
SciTegic.value.DoubleValue
4.319

@<SCITEGIC>MOL_PROPERTY
-TS
SciTegic.value.DoubleValue
22.689

@<SCITEGIC>MOL_PROPERTY
U+W
SciTegic.value.DoubleValue
-11.778

@<SCITEGIC>MOL_PROPERTY
U
SciTegic.value.DoubleValue
45.772

@<SCITEGIC>MOL_PROPERTY
W
SciTegic.value.DoubleValue
-57.550

@<SCITEGIC>MOL_PROPERTY
W(PB)
SciTegic.value.DoubleValue
-59.511

@<SCITEGIC>MOL_PROPERTY
W(SA)
SciTegic.value.DoubleValue
1.961

@<SCITEGIC>MOL_PROPERTY
Valence
SciTegic.value.DoubleValue
1.299

@<SCITEGIC>MOL_PROPERTY
Coulomb
SciTegic.value.DoubleValue
44.177

@<SCITEGIC>MOL_PROPERTY
VdW
SciTegic.value.DoubleValue
0.297

@<SCITEGIC>MOL_PROPERTY
VdW6
SciTegic.value.DoubleValue
-3.490

@<SCITEGIC>MOL_PROPERTY
VdW12
SciTegic.value.DoubleValue
3.786

@<SCITEGIC>MOL_PROPERTY
Bond
SciTegic.value.DoubleValue
0.096

@<SCITEGIC>MOL_PROPERTY
Angle
SciTegic.value.DoubleValue
0.381

@<SCITEGIC>MOL_PROPERTY
Pdih
SciTegic.value.DoubleValue
0.822

@<SCITEGIC>MOL_PROPERTY
Idih
SciTegic.value.DoubleValue
0.000

@<SCITEGIC>MOL_PROPERTY
Tether
SciTegic.value.DoubleValue
0.000

