VeraChem MOL file


 17 16  0  0  0  0  0  0  0  0999 V2000     
   20.1217   19.0267   25.0643 C   0  0  0  0  0  0  0  0  0  0  0  0
   21.2295   19.3332   25.4593 O   0  5  0  0  0  0  0  0  0  0  0  0
   19.0986   19.5457   25.4657 O   0  0  0  0  0  0  0  0  0  0  0  0
   20.0076   17.9136   24.0272 C   0  0  0  0  0  0  0  0  0  0  0  0
   19.0746   17.3710   24.2189 H   0  0  0  0  0  0  0  0  0  0  0  0
   20.8160   17.1972   24.2139 H   0  0  0  0  0  0  0  0  0  0  0  0
   20.0479   18.3594   22.5719 C   0  0  0  0  0  0  0  0  0  0  0  0
   19.9647   17.5395   21.8613 H   0  0  0  0  0  0  0  0  0  0  0  0
   20.1722   19.6233   22.1417 C   0  0  0  0  0  0  0  0  0  0  0  0
   20.2549   20.4372   22.8608 H   0  0  0  0  0  0  0  0  0  0  0  0
   20.2145   20.0872   20.6950 C   0  0  0  0  0  0  0  0  0  0  0  0
   19.4069   20.8133   20.5305 H   0  0  0  0  0  0  0  0  0  0  0  0
   21.1477   20.6414   20.5263 H   0  0  0  0  0  0  0  0  0  0  0  0
   20.1010   18.9627   19.6420 C   0  0  0  0  0  0  0  0  0  0  0  0
   20.1400   19.3805   18.6276 H   0  0  0  0  0  0  0  0  0  0  0  0
   20.9258   18.2449   19.7415 H   0  0  0  0  0  0  0  0  0  0  0  0
   19.1522   18.4202   19.7455 H   0  0  0  0  0  0  0  0  0  0  0  0
  1  2  1  0  0  0  0
  1  3  2  0  0  0  0
  1  4  1  0  0  0  0
  4  5  1  0  0  0  0
  4  6  1  0  0  0  0
  4  7  1  0  0  0  0
  7  8  1  0  0  0  0
  7  9  2  0  0  0  0
  9 10  1  0  0  0  0
  9 11  1  0  0  0  0
 11 12  1  0  0  0  0
 11 13  1  0  0  0  0
 11 14  1  0  0  0  0
 14 15  1  0  0  0  0
 14 16  1  0  0  0  0
 14 17  1  0  0  0  0
M  END
> <VM2 Rank>
1

> <Conf_Id>
97

> <Probability>
14.29

> <Sum Probability>
14.29

> <Delta G>
0.000

> <G>
-26.662

> <E>
-36.827

> <-TS>
10.165

> <U+W>
-50.240

> <U>
14.007

> <W>
-64.247

> <W(PB)>
-66.284

> <W(SA)>
2.038

> <Valence>
12.998

> <Coulomb>
-0.405

> <VdW>
1.414

> <VdW6>
-5.682

> <VdW12>
7.096

> <Bond>
0.147

> <Angle>
3.367

> <Pdih>
9.484

> <Idih>
0.001

> <Tether>
0.000

$$$$
