@<TRIPOS>MOLECULE
guest-s9_vm2.mol2 : vm2 ligand conformer 1
          20          19           1
SMALL
USER_CHARGES
 
@<TRIPOS>ATOM
       1    C1      19.854192   19.150854   18.816941 C.3        1 MOL1        -0.2224
       2    H1      20.337819   18.699796   17.940770 H          1 MOL1         0.1052
       3    H2      18.773057   18.982316   18.727955 H          1 MOL1         0.1052
       4    H3      20.035243   20.233023   18.780789 H          1 MOL1         0.1052
       5    C2      20.407322   18.537524   20.121588 C.3        1 MOL1        -0.1209
       6    H4      21.494866   18.691515   20.165023 H          1 MOL1         0.1041
       7    H5      20.242465   17.450742   20.112689 H          1 MOL1         0.1041
       8    C3      19.744009   19.154286   21.372740 C.3        1 MOL1        -0.1274
       9    H6      19.912165   20.239455   21.382714 H          1 MOL1         0.1041
      10    H7      18.657981   18.997116   21.330205 H          1 MOL1         0.1041
      11    C4      20.300685   18.537484   22.669368 C.3        1 MOL1         0.0313
      12    H8      21.379270   18.705793   22.722446 H          1 MOL1         0.1015
      13    H9      20.121026   17.459425   22.669728 H          1 MOL1         0.1015
      14    N1      19.677610   19.113347   23.925896 N.4        1 MOL1        -0.4809
      15    H10     18.654713   18.980764   23.909758 H          1 MOL1         0.3726
      16    H11     19.819898   20.134537   23.958767 H          1 MOL1         0.3726
      17    C5      20.282183   18.450505   25.156467 C.3        1 MOL1        -0.0677
      18    H12     21.358927   18.632757   25.171063 H          1 MOL1         0.1026
      19    H13     19.824971   18.874248   26.053354 H          1 MOL1         0.1026
      20    H14     20.089702   17.376140   25.117750 H          1 MOL1         0.1026
@<TRIPOS>BOND
    1     1     2    1
    2     1     3    1
    3     1     4    1
    4     1     5    1
    5     5     6    1
    6     5     7    1
    7     5     8    1
    8     8     9    1
    9     8    10    1
   10     8    11    1
   11    11    12    1
   12    11    13    1
   13    11    14    1
   14    14    15    1
   15    14    16    1
   16    14    17    1
   17    17    18    1
   18    17    19    1
   19    17    20    1
@<TRIPOS>SUBSTRUCTURE
       1 MOL1            1 RESIDUE      1      MOL     
@<SCITEGIC>MOL_PROPERTY
VM2 Rank
SciTegic.value.IntegerValue
1

@<SCITEGIC>MOL_PROPERTY
Conf_Id
SciTegic.value.IntegerValue
167

@<SCITEGIC>MOL_PROPERTY
Probability
SciTegic.value.DoubleValue
13.71

@<SCITEGIC>MOL_PROPERTY
Sum Probability
SciTegic.value.DoubleValue
13.71

@<SCITEGIC>MOL_PROPERTY
Delta G
SciTegic.value.DoubleValue
0.000

@<SCITEGIC>MOL_PROPERTY
G
SciTegic.value.DoubleValue
53.936

@<SCITEGIC>MOL_PROPERTY
E
SciTegic.value.DoubleValue
31.434

@<SCITEGIC>MOL_PROPERTY
-TS
SciTegic.value.DoubleValue
22.502

@<SCITEGIC>MOL_PROPERTY
U+W
SciTegic.value.DoubleValue
15.338

@<SCITEGIC>MOL_PROPERTY
U
SciTegic.value.DoubleValue
69.277

@<SCITEGIC>MOL_PROPERTY
W
SciTegic.value.DoubleValue
-53.939

@<SCITEGIC>MOL_PROPERTY
W(PB)
SciTegic.value.DoubleValue
-55.889

@<SCITEGIC>MOL_PROPERTY
W(SA)
SciTegic.value.DoubleValue
1.950

@<SCITEGIC>MOL_PROPERTY
Valence
SciTegic.value.DoubleValue
0.846

@<SCITEGIC>MOL_PROPERTY
Coulomb
SciTegic.value.DoubleValue
68.557

@<SCITEGIC>MOL_PROPERTY
VdW
SciTegic.value.DoubleValue
-0.127

@<SCITEGIC>MOL_PROPERTY
VdW6
SciTegic.value.DoubleValue
-3.008

@<SCITEGIC>MOL_PROPERTY
VdW12
SciTegic.value.DoubleValue
2.882

@<SCITEGIC>MOL_PROPERTY
Bond
SciTegic.value.DoubleValue
0.088

@<SCITEGIC>MOL_PROPERTY
Angle
SciTegic.value.DoubleValue
0.332

@<SCITEGIC>MOL_PROPERTY
Pdih
SciTegic.value.DoubleValue
0.426

@<SCITEGIC>MOL_PROPERTY
Idih
SciTegic.value.DoubleValue
0.000

@<SCITEGIC>MOL_PROPERTY
Tether
SciTegic.value.DoubleValue
0.000

