@<TRIPOS>MOLECULE
guest-2_vm2.mol2 : vm2 ligand conformer 1
          23          22           1
SMALL
USER_CHARGES
 
@<TRIPOS>ATOM
       1    N1      19.741396   18.660993   26.427824 N.4        1 MOL1        -0.5940
       2    H1      20.732079   18.417463   26.528437 H          1 MOL1         0.3649
       3    H2      19.210702   17.784483   26.459097 H          1 MOL1         0.3649
       4    H3      19.480255   19.197240   27.262293 H          1 MOL1         0.3649
       5    C1      19.476342   19.437595   25.154035 C.3        1 MOL1         0.0207
       6    H4      20.047730   20.368604   25.201311 H          1 MOL1         0.0950
       7    H5      18.412435   19.688311   25.126822 H          1 MOL1         0.0950
       8    C2      19.857919   18.659612   23.882138 C.3        1 MOL1        -0.1415
       9    H6      20.923259   18.395786   23.921481 H          1 MOL1         0.0976
      10    H7      19.293731   17.718033   23.847182 H          1 MOL1         0.0976
      11    C3      19.572875   19.484675   22.607695 C.3        1 MOL1        -0.1375
      12    H8      20.135010   20.428128   22.648950 H          1 MOL1         0.0976
      13    H9      18.507177   19.751144   22.574756 H          1 MOL1         0.0976
      14    C4      19.952527   18.712508   21.323705 C.3        1 MOL1        -0.1375
      15    H10     21.018108   18.446092   21.356438 H          1 MOL1         0.0976
      16    H11     19.390499   17.769152   21.282283 H          1 MOL1         0.0976
      17    C5      19.667289   19.537919   20.049304 C.3        1 MOL1        -0.1350
      18    H12     20.229271   20.481786   20.084847 H          1 MOL1         0.0976
      19    H13     18.601822   19.804865   20.010677 H          1 MOL1         0.0976
      20    C6      20.047652   18.763697   18.769298 C.3        1 MOL1        -0.2365
      21    H14     21.116256   18.512153   18.762906 H          1 MOL1         0.0987
      22    H15     19.838003   19.365539   17.875497 H          1 MOL1         0.0987
      23    H16     19.476128   17.829882   18.688205 H          1 MOL1         0.0987
@<TRIPOS>BOND
    1     1     2    1
    2     1     3    1
    3     1     4    1
    4     1     5    1
    5     5     6    1
    6     5     7    1
    7     5     8    1
    8     8     9    1
    9     8    10    1
   10     8    11    1
   11    11    12    1
   12    11    13    1
   13    11    14    1
   14    14    15    1
   15    14    16    1
   16    14    17    1
   17    17    18    1
   18    17    19    1
   19    17    20    1
   20    20    21    1
   21    20    22    1
   22    20    23    1
@<TRIPOS>SUBSTRUCTURE
       1 MOL1            1 RESIDUE      1      MOL     
@<SCITEGIC>MOL_PROPERTY
VM2 Rank
SciTegic.value.IntegerValue
1

@<SCITEGIC>MOL_PROPERTY
Conf_Id
SciTegic.value.IntegerValue
242

@<SCITEGIC>MOL_PROPERTY
Probability
SciTegic.value.DoubleValue
11.98

@<SCITEGIC>MOL_PROPERTY
Sum Probability
SciTegic.value.DoubleValue
11.98

@<SCITEGIC>MOL_PROPERTY
Delta G
SciTegic.value.DoubleValue
0.000

@<SCITEGIC>MOL_PROPERTY
G
SciTegic.value.DoubleValue
37.916

@<SCITEGIC>MOL_PROPERTY
E
SciTegic.value.DoubleValue
10.396

@<SCITEGIC>MOL_PROPERTY
-TS
SciTegic.value.DoubleValue
27.520

@<SCITEGIC>MOL_PROPERTY
U+W
SciTegic.value.DoubleValue
-8.383

@<SCITEGIC>MOL_PROPERTY
U
SciTegic.value.DoubleValue
46.604

@<SCITEGIC>MOL_PROPERTY
W
SciTegic.value.DoubleValue
-54.986

@<SCITEGIC>MOL_PROPERTY
W(PB)
SciTegic.value.DoubleValue
-57.162

@<SCITEGIC>MOL_PROPERTY
W(SA)
SciTegic.value.DoubleValue
2.176

@<SCITEGIC>MOL_PROPERTY
Valence
SciTegic.value.DoubleValue
1.727

@<SCITEGIC>MOL_PROPERTY
Coulomb
SciTegic.value.DoubleValue
44.434

@<SCITEGIC>MOL_PROPERTY
VdW
SciTegic.value.DoubleValue
0.443

@<SCITEGIC>MOL_PROPERTY
VdW6
SciTegic.value.DoubleValue
-4.623

@<SCITEGIC>MOL_PROPERTY
VdW12
SciTegic.value.DoubleValue
5.066

@<SCITEGIC>MOL_PROPERTY
Bond
SciTegic.value.DoubleValue
0.112

@<SCITEGIC>MOL_PROPERTY
Angle
SciTegic.value.DoubleValue
0.386

@<SCITEGIC>MOL_PROPERTY
Pdih
SciTegic.value.DoubleValue
1.228

@<SCITEGIC>MOL_PROPERTY
Idih
SciTegic.value.DoubleValue
0.000

@<SCITEGIC>MOL_PROPERTY
Tether
SciTegic.value.DoubleValue
0.000

