VeraChem MOL file


 20 19  0  0  0  0  0  0  0  0999 V2000     
   20.3912   20.1731   24.1279 N   0  3  0  0  0  0  0  0  0  0  0  0
   20.0070   20.9380   23.5676 H   0  0  0  0  0  0  0  0  0  0  0  0
   21.3895   20.1070   23.9147 H   0  0  0  0  0  0  0  0  0  0  0  0
   20.3065   20.4446   25.1112 H   0  0  0  0  0  0  0  0  0  0  0  0
   19.6811   18.8752   23.8518 C   0  0  2  0  0  0  0  0  0  0  0  0
   18.6271   19.0339   24.1005 H   0  0  0  0  0  0  0  0  0  0  0  0
   20.2261   17.7582   24.7569 C   0  0  0  0  0  0  0  0  0  0  0  0
   19.6673   16.8263   24.6060 H   0  0  0  0  0  0  0  0  0  0  0  0
   20.1319   18.0343   25.8143 H   0  0  0  0  0  0  0  0  0  0  0  0
   21.2848   17.5591   24.5487 H   0  0  0  0  0  0  0  0  0  0  0  0
   19.7688   18.4547   22.3680 C   0  0  0  0  0  0  0  0  0  0  0  0
   20.8204   18.3118   22.0857 H   0  0  0  0  0  0  0  0  0  0  0  0
   19.2771   17.4803   22.2464 H   0  0  0  0  0  0  0  0  0  0  0  0
   19.1036   19.4720   21.4098 C   0  0  0  0  0  0  0  0  0  0  0  0
   19.6147   20.4422   21.4714 H   0  0  0  0  0  0  0  0  0  0  0  0
   18.0613   19.6412   21.7150 H   0  0  0  0  0  0  0  0  0  0  0  0
   19.1342   18.9807   19.9466 C   0  0  0  0  0  0  0  0  0  0  0  0
   18.5959   18.0302   19.8369 H   0  0  0  0  0  0  0  0  0  0  0  0
   20.1656   18.8311   19.6016 H   0  0  0  0  0  0  0  0  0  0  0  0
   18.6600   19.7141   19.2814 H   0  0  0  0  0  0  0  0  0  0  0  0
  1  2  1  0  0  0  0
  1  3  1  0  0  0  0
  1  4  1  0  0  0  0
  1  5  1  0  0  0  0
  5  6  1  0  0  0  0
  5  7  1  0  0  0  0
  7  8  1  0  0  0  0
  7  9  1  0  0  0  0
  7 10  1  0  0  0  0
  5 11  1  0  0  0  0
 11 12  1  0  0  0  0
 11 13  1  0  0  0  0
 11 14  1  0  0  0  0
 14 15  1  0  0  0  0
 14 16  1  0  0  0  0
 14 17  1  0  0  0  0
 17 18  1  0  0  0  0
 17 19  1  0  0  0  0
 17 20  1  0  0  0  0
M  END
> <VM2 Rank>
1

> <Conf_Id>
213

> <Probability>
40.81

> <Sum Probability>
40.81

> <Delta G>
0.000

> <G>
2.706

> <E>
-20.181

> <-TS>
22.887

> <U+W>
-36.277

> <U>
22.080

> <W>
-58.357

> <W(PB)>
-60.289

> <W(SA)>
1.932

> <Valence>
1.884

> <Coulomb>
19.559

> <VdW>
0.637

> <VdW6>
-4.482

> <VdW12>
5.119

> <Bond>
0.136

> <Angle>
0.867

> <Pdih>
0.882

> <Idih>
0.000

> <Tether>
0.000

$$$$
