@<TRIPOS>MOLECULE
guest-8_vm2.mol2 : vm2 ligand conformer 1
          25          24           1
SMALL
USER_CHARGES
 
@<TRIPOS>ATOM
       1    C1      20.160207   19.340141   27.808437 C.2        1 MOL1         0.6168
       2    O1      21.215959   19.705343   28.286596 O.co2      1 MOL1        -0.6703
       3    O2      19.078053   19.568689   28.311756 O.co2      1 MOL1        -0.6703
       4    C2      20.193796   18.572363   26.491825 C.3        1 MOL1        -0.1963
       5    H1      19.354156   17.866963   26.487357 H          1 MOL1         0.0750
       6    H2      21.115840   17.979222   26.466853 H          1 MOL1         0.0750
       7    C3      20.120332   19.499027   25.253312 C.3        1 MOL1        -0.1860
       8    H3      19.198376   20.095168   25.300304 H          1 MOL1         0.0752
       9    H4      20.959942   20.207507   25.279880 H          1 MOL1         0.0752
      10    C4      20.156087   18.698580   23.933454 C.3        1 MOL1        -0.1858
      11    H5      19.316269   17.990510   23.910548 H          1 MOL1         0.0752
      12    H6      21.078239   18.102808   23.890189 H          1 MOL1         0.0752
      13    C5      20.082805   19.624957   22.700603 C.3        1 MOL1        -0.1858
      14    H7      19.160682   20.220730   22.743589 H          1 MOL1         0.0752
      15    H8      20.922500   20.333124   22.723327 H          1 MOL1         0.0752
      16    C6      20.118652   18.825207   21.380379 C.3        1 MOL1        -0.1858
      17    H9      19.279016   18.116988   21.357305 H          1 MOL1         0.0752
      18    H10     21.040699   18.229346   21.337087 H          1 MOL1         0.0752
      19    C7      20.045465   19.751015   20.147950 C.3        1 MOL1        -0.1834
      20    H11     19.123303   20.347334   20.186785 H          1 MOL1         0.0752
      21    H12     20.884972   20.459793   20.166653 H          1 MOL1         0.0752
      22    C8      20.081645   18.948677   18.831687 C.3        1 MOL1        -0.2849
      23    H13     19.234106   18.253321   18.772072 H          1 MOL1         0.0764
      24    H14     20.028865   19.622199   17.966431 H          1 MOL1         0.0764
      25    H15     21.009044   18.366475   18.751879 H          1 MOL1         0.0764
@<TRIPOS>BOND
    1     1     2    1
    2     1     3    2
    3     1     4    1
    4     4     5    1
    5     4     6    1
    6     4     7    1
    7     7     8    1
    8     7     9    1
    9     7    10    1
   10    10    11    1
   11    10    12    1
   12    10    13    1
   13    13    14    1
   14    13    15    1
   15    13    16    1
   16    16    17    1
   17    16    18    1
   18    16    19    1
   19    19    20    1
   20    19    21    1
   21    19    22    1
   22    22    23    1
   23    22    24    1
   24    22    25    1
@<TRIPOS>SUBSTRUCTURE
       1 MOL1            1 RESIDUE      1      MOL     
@<SCITEGIC>MOL_PROPERTY
VM2 Rank
SciTegic.value.IntegerValue
1

@<SCITEGIC>MOL_PROPERTY
Conf_Id
SciTegic.value.IntegerValue
1130

@<SCITEGIC>MOL_PROPERTY
Probability
SciTegic.value.DoubleValue
22.96

@<SCITEGIC>MOL_PROPERTY
Sum Probability
SciTegic.value.DoubleValue
22.96

@<SCITEGIC>MOL_PROPERTY
Delta G
SciTegic.value.DoubleValue
0.000

@<SCITEGIC>MOL_PROPERTY
G
SciTegic.value.DoubleValue
-7.962

@<SCITEGIC>MOL_PROPERTY
E
SciTegic.value.DoubleValue
-32.361

@<SCITEGIC>MOL_PROPERTY
-TS
SciTegic.value.DoubleValue
24.398

@<SCITEGIC>MOL_PROPERTY
U+W
SciTegic.value.DoubleValue
-52.928

@<SCITEGIC>MOL_PROPERTY
U
SciTegic.value.DoubleValue
5.617

@<SCITEGIC>MOL_PROPERTY
W
SciTegic.value.DoubleValue
-58.543

@<SCITEGIC>MOL_PROPERTY
W(PB)
SciTegic.value.DoubleValue
-61.065

@<SCITEGIC>MOL_PROPERTY
W(SA)
SciTegic.value.DoubleValue
2.522

@<SCITEGIC>MOL_PROPERTY
Valence
SciTegic.value.DoubleValue
7.531

@<SCITEGIC>MOL_PROPERTY
Coulomb
SciTegic.value.DoubleValue
-2.818

@<SCITEGIC>MOL_PROPERTY
VdW
SciTegic.value.DoubleValue
0.904

@<SCITEGIC>MOL_PROPERTY
VdW6
SciTegic.value.DoubleValue
-7.640

@<SCITEGIC>MOL_PROPERTY
VdW12
SciTegic.value.DoubleValue
8.544

@<SCITEGIC>MOL_PROPERTY
Bond
SciTegic.value.DoubleValue
0.115

@<SCITEGIC>MOL_PROPERTY
Angle
SciTegic.value.DoubleValue
2.271

@<SCITEGIC>MOL_PROPERTY
Pdih
SciTegic.value.DoubleValue
5.144

@<SCITEGIC>MOL_PROPERTY
Idih
SciTegic.value.DoubleValue
0.001

@<SCITEGIC>MOL_PROPERTY
Tether
SciTegic.value.DoubleValue
0.000

