VeraChem MOL file


 17 16  0  0  0  0  0  0  0  0999 V2000     
   20.1217   19.0267   25.0643 C   0  0  0  0  0  0  0  0  0  0  0  0
   21.2295   19.3332   25.4593 O   0  5  0  0  0  0  0  0  0  0  0  0
   19.0986   19.5457   25.4657 O   0  0  0  0  0  0  0  0  0  0  0  0
   20.0076   17.9136   24.0272 C   0  0  0  0  0  0  0  0  0  0  0  0
   19.0746   17.3710   24.2189 H   0  0  0  0  0  0  0  0  0  0  0  0
   20.8160   17.1972   24.2139 H   0  0  0  0  0  0  0  0  0  0  0  0
   20.0479   18.3594   22.5719 C   0  0  0  0  0  0  0  0  0  0  0  0
   19.9647   17.5395   21.8613 H   0  0  0  0  0  0  0  0  0  0  0  0
   20.1722   19.6233   22.1417 C   0  0  0  0  0  0  0  0  0  0  0  0
   20.2549   20.4372   22.8608 H   0  0  0  0  0  0  0  0  0  0  0  0
   20.2145   20.0872   20.6950 C   0  0  0  0  0  0  0  0  0  0  0  0
   19.4069   20.8133   20.5305 H   0  0  0  0  0  0  0  0  0  0  0  0
   21.1477   20.6414   20.5263 H   0  0  0  0  0  0  0  0  0  0  0  0
   20.1010   18.9627   19.6420 C   0  0  0  0  0  0  0  0  0  0  0  0
   20.1400   19.3805   18.6276 H   0  0  0  0  0  0  0  0  0  0  0  0
   20.9258   18.2449   19.7415 H   0  0  0  0  0  0  0  0  0  0  0  0
   19.1522   18.4202   19.7455 H   0  0  0  0  0  0  0  0  0  0  0  0
  1  2  1  0  0  0  0
  1  3  2  0  0  0  0
  1  4  1  0  0  0  0
  4  5  1  0  0  0  0
  4  6  1  0  0  0  0
  4  7  1  0  0  0  0
  7  8  1  0  0  0  0
  7  9  2  0  0  0  0
  9 10  1  0  0  0  0
  9 11  1  0  0  0  0
 11 12  1  0  0  0  0
 11 13  1  0  0  0  0
 11 14  1  0  0  0  0
 14 15  1  0  0  0  0
 14 16  1  0  0  0  0
 14 17  1  0  0  0  0
M  END
> <VM2 Rank>
1

> <Conf_Id>
97

> <Probability>
14.29

> <Sum Probability>
14.29

> <Delta G>
0.000

> <G>
-26.662

> <E>
-36.827

> <-TS>
10.165

> <U+W>
-50.240

> <U>
14.007

> <W>
-64.247

> <W(PB)>
-66.284

> <W(SA)>
2.038

> <Valence>
12.998

> <Coulomb>
-0.405

> <VdW>
1.414

> <VdW6>
-5.682

> <VdW12>
7.096

> <Bond>
0.147

> <Angle>
3.367

> <Pdih>
9.484

> <Idih>
0.001

> <Tether>
0.000

$$$$
VeraChem MOL file


 17 16  0  0  0  0  0  0  0  0999 V2000     
   19.9358   19.0108   25.0042 C   0  0  0  0  0  0  0  0  0  0  0  0
   18.8066   18.5759   25.1173 O   0  5  0  0  0  0  0  0  0  0  0  0
   20.3104   20.0472   25.5167 O   0  0  0  0  0  0  0  0  0  0  0  0
   20.9450   18.1983   24.1988 C   0  0  0  0  0  0  0  0  0  0  0  0
   20.6940   17.1377   24.3172 H   0  0  0  0  0  0  0  0  0  0  0  0
   21.9290   18.3289   24.6641 H   0  0  0  0  0  0  0  0  0  0  0  0
   21.0314   18.5398   22.7180 C   0  0  0  0  0  0  0  0  0  0  0  0
   21.7579   17.9484   22.1620 H   0  0  0  0  0  0  0  0  0  0  0  0
   20.3099   19.4701   22.0818 C   0  0  0  0  0  0  0  0  0  0  0  0
   19.5762   20.0745   22.6139 H   0  0  0  0  0  0  0  0  0  0  0  0
   20.4356   19.7721   20.6050 C   0  0  0  0  0  0  0  0  0  0  0  0
   20.5193   20.8569   20.4546 H   0  0  0  0  0  0  0  0  0  0  0  0
   21.3530   19.3257   20.1973 H   0  0  0  0  0  0  0  0  0  0  0  0
   19.2184   19.2379   19.8252 C   0  0  0  0  0  0  0  0  0  0  0  0
   19.3142   19.4611   18.7546 H   0  0  0  0  0  0  0  0  0  0  0  0
   19.1291   18.1495   19.9399 H   0  0  0  0  0  0  0  0  0  0  0  0
   18.2892   19.6971   20.1873 H   0  0  0  0  0  0  0  0  0  0  0  0
  1  2  1  0  0  0  0
  1  3  2  0  0  0  0
  1  4  1  0  0  0  0
  4  5  1  0  0  0  0
  4  6  1  0  0  0  0
  4  7  1  0  0  0  0
  7  8  1  0  0  0  0
  7  9  2  0  0  0  0
  9 10  1  0  0  0  0
  9 11  1  0  0  0  0
 11 12  1  0  0  0  0
 11 13  1  0  0  0  0
 11 14  1  0  0  0  0
 14 15  1  0  0  0  0
 14 16  1  0  0  0  0
 14 17  1  0  0  0  0
M  END
> <VM2 Rank>
2

> <Conf_Id>
147

> <Probability>
12.36

> <Sum Probability>
26.65

> <Delta G>
0.087

> <G>
-26.575

> <E>
-36.434

> <-TS>
9.859

> <U+W>
-49.848

> <U>
14.465

> <W>
-64.313

> <W(PB)>
-66.405

> <W(SA)>
2.093

> <Valence>
14.072

> <Coulomb>
-0.199

> <VdW>
0.592

> <VdW6>
-5.019

> <VdW12>
5.611

> <Bond>
0.085

> <Angle>
2.748

> <Pdih>
11.238

> <Idih>
0.001

> <Tether>
0.000

$$$$
VeraChem MOL file


 17 16  0  0  0  0  0  0  0  0999 V2000     
   20.3002   18.9747   25.0032 C   0  0  0  0  0  0  0  0  0  0  0  0
   20.1385   20.0641   25.5173 O   0  5  0  0  0  0  0  0  0  0  0  0
   21.3230   18.3271   25.1104 O   0  0  0  0  0  0  0  0  0  0  0  0
   19.1471   18.3760   24.2036 C   0  0  0  0  0  0  0  0  0  0  0  0
   18.2103   18.6964   24.6743 H   0  0  0  0  0  0  0  0  0  0  0  0
   19.1862   17.2868   24.3211 H   0  0  0  0  0  0  0  0  0  0  0  0
   19.1211   18.7289   22.7232 C   0  0  0  0  0  0  0  0  0  0  0  0
   18.2898   18.2917   22.1715 H   0  0  0  0  0  0  0  0  0  0  0  0
   20.0076   19.5001   22.0826 C   0  0  0  0  0  0  0  0  0  0  0  0
   20.8486   19.9484   22.6104 H   0  0  0  0  0  0  0  0  0  0  0  0
   19.9355   19.8217   20.6064 C   0  0  0  0  0  0  0  0  0  0  0  0
   18.9462   19.5642   20.2039 H   0  0  0  0  0  0  0  0  0  0  0  0
   20.0654   20.9019   20.4558 H   0  0  0  0  0  0  0  0  0  0  0  0
   21.0199   19.0594   19.8202 C   0  0  0  0  0  0  0  0  0  0  0  0
   20.9639   19.2977   18.7500 H   0  0  0  0  0  0  0  0  0  0  0  0
   22.0232   19.3272   20.1769 H   0  0  0  0  0  0  0  0  0  0  0  0
   20.8946   17.9747   19.9350 H   0  0  0  0  0  0  0  0  0  0  0  0
  1  2  1  0  0  0  0
  1  3  2  0  0  0  0
  1  4  1  0  0  0  0
  4  5  1  0  0  0  0
  4  6  1  0  0  0  0
  4  7  1  0  0  0  0
  7  8  1  0  0  0  0
  7  9  2  0  0  0  0
  9 10  1  0  0  0  0
  9 11  1  0  0  0  0
 11 12  1  0  0  0  0
 11 13  1  0  0  0  0
 11 14  1  0  0  0  0
 14 15  1  0  0  0  0
 14 16  1  0  0  0  0
 14 17  1  0  0  0  0
M  END
> <VM2 Rank>
3

> <Conf_Id>
183

> <Probability>
11.83

> <Sum Probability>
38.48

> <Delta G>
0.113

> <G>
-26.549

> <E>
-36.408

> <-TS>
9.860

> <U+W>
-49.822

> <U>
14.465

> <W>
-64.287

> <W(PB)>
-66.368

> <W(SA)>
2.081

> <Valence>
14.072

> <Coulomb>
-0.199

> <VdW>
0.592

> <VdW6>
-5.019

> <VdW12>
5.611

> <Bond>
0.085

> <Angle>
2.748

> <Pdih>
11.238

> <Idih>
0.001

> <Tether>
0.000

$$$$
VeraChem MOL file


 17 16  0  0  0  0  0  0  0  0999 V2000     
   20.2303   19.0497   25.1478 C   0  0  0  0  0  0  0  0  0  0  0  0
   21.3844   18.9676   25.5195 O   0  5  0  0  0  0  0  0  0  0  0  0
   19.4244   19.8247   25.6240 O   0  0  0  0  0  0  0  0  0  0  0  0
   19.7682   18.1233   24.0307 C   0  0  0  0  0  0  0  0  0  0  0  0
   18.6807   18.0064   24.1099 H   0  0  0  0  0  0  0  0  0  0  0  0
   20.2104   17.1365   24.2097 H   0  0  0  0  0  0  0  0  0  0  0  0
   20.1636   18.6293   22.6562 C   0  0  0  0  0  0  0  0  0  0  0  0
   21.2340   18.6182   22.4586 H   0  0  0  0  0  0  0  0  0  0  0  0
   19.2894   19.0661   21.7410 C   0  0  0  0  0  0  0  0  0  0  0  0
   18.2256   19.0666   21.9764 H   0  0  0  0  0  0  0  0  0  0  0  0
   19.6148   19.5881   20.3516 C   0  0  0  0  0  0  0  0  0  0  0  0
   19.0774   18.9836   19.6085 H   0  0  0  0  0  0  0  0  0  0  0  0
   19.2134   20.6056   20.2503 H   0  0  0  0  0  0  0  0  0  0  0  0
   21.1179   19.6031   19.9961 C   0  0  0  0  0  0  0  0  0  0  0  0
   21.2695   19.9928   18.9812 H   0  0  0  0  0  0  0  0  0  0  0  0
   21.6802   20.2426   20.6892 H   0  0  0  0  0  0  0  0  0  0  0  0
   21.5419   18.5910   20.0343 H   0  0  0  0  0  0  0  0  0  0  0  0
  1  2  1  0  0  0  0
  1  3  2  0  0  0  0
  1  4  1  0  0  0  0
  4  5  1  0  0  0  0
  4  6  1  0  0  0  0
  4  7  1  0  0  0  0
  7  8  1  0  0  0  0
  7  9  2  0  0  0  0
  9 10  1  0  0  0  0
  9 11  1  0  0  0  0
 11 12  1  0  0  0  0
 11 13  1  0  0  0  0
 11 14  1  0  0  0  0
 14 15  1  0  0  0  0
 14 16  1  0  0  0  0
 14 17  1  0  0  0  0
M  END
> <VM2 Rank>
4

> <Conf_Id>
176

> <Probability>
11.61

> <Sum Probability>
50.09

> <Delta G>
0.124

> <G>
-26.538

> <E>
-36.512

> <-TS>
9.974

> <U+W>
-49.926

> <U>
13.863

> <W>
-63.789

> <W(PB)>
-65.859

> <W(SA)>
2.070

> <Valence>
14.117

> <Coulomb>
-1.228

> <VdW>
0.974

> <VdW6>
-4.885

> <VdW12>
5.859

> <Bond>
0.094

> <Angle>
2.817

> <Pdih>
11.205

> <Idih>
0.000

> <Tether>
0.000

$$$$
VeraChem MOL file


 17 16  0  0  0  0  0  0  0  0999 V2000     
   20.1141   18.9945   25.2590 C   0  0  0  0  0  0  0  0  0  0  0  0
   21.1852   19.4021   25.6634 O   0  5  0  0  0  0  0  0  0  0  0  0
   19.0545   19.2354   25.8033 O   0  0  0  0  0  0  0  0  0  0  0  0
   20.0970   18.1296   24.0055 C   0  0  0  0  0  0  0  0  0  0  0  0
   19.3782   17.3182   24.1683 H   0  0  0  0  0  0  0  0  0  0  0  0
   21.0846   17.6659   23.8951 H   0  0  0  0  0  0  0  0  0  0  0  0
   19.7232   18.9151   22.7629 C   0  0  0  0  0  0  0  0  0  0  0  0
   18.6944   19.2724   22.7306 H   0  0  0  0  0  0  0  0  0  0  0  0
   20.5645   19.1754   21.7576 C   0  0  0  0  0  0  0  0  0  0  0  0
   21.5939   18.8203   21.7919 H   0  0  0  0  0  0  0  0  0  0  0  0
   20.1910   19.9620   20.5210 C   0  0  0  0  0  0  0  0  0  0  0  0
   19.2421   20.4938   20.6757 H   0  0  0  0  0  0  0  0  0  0  0  0
   20.9534   20.7280   20.3247 H   0  0  0  0  0  0  0  0  0  0  0  0
   20.0636   19.0378   19.2943 C   0  0  0  0  0  0  0  0  0  0  0  0
   19.2878   18.2781   19.4574 H   0  0  0  0  0  0  0  0  0  0  0  0
   19.7931   19.6143   18.4000 H   0  0  0  0  0  0  0  0  0  0  0  0
   21.0112   18.5213   19.0928 H   0  0  0  0  0  0  0  0  0  0  0  0
  1  2  1  0  0  0  0
  1  3  2  0  0  0  0
  1  4  1  0  0  0  0
  4  5  1  0  0  0  0
  4  6  1  0  0  0  0
  4  7  1  0  0  0  0
  7  8  1  0  0  0  0
  7  9  2  0  0  0  0
  9 10  1  0  0  0  0
  9 11  1  0  0  0  0
 11 12  1  0  0  0  0
 11 13  1  0  0  0  0
 11 14  1  0  0  0  0
 14 15  1  0  0  0  0
 14 16  1  0  0  0  0
 14 17  1  0  0  0  0
M  END
> <VM2 Rank>
5

> <Conf_Id>
42

> <Probability>
10.80

> <Sum Probability>
60.89

> <Delta G>
0.167

> <G>
-26.495

> <E>
-36.131

> <-TS>
9.636

> <U+W>
-49.544

> <U>
13.665

> <W>
-63.210

> <W(PB)>
-65.297

> <W(SA)>
2.088

> <Valence>
15.227

> <Coulomb>
-1.822

> <VdW>
0.261

> <VdW6>
-4.165

> <VdW12>
4.426

> <Bond>
0.044

> <Angle>
2.229

> <Pdih>
12.953

> <Idih>
0.000

> <Tether>
0.000

$$$$
VeraChem MOL file


 17 16  0  0  0  0  0  0  0  0999 V2000     
   20.0345   18.8556   25.1339 C   0  0  0  0  0  0  0  0  0  0  0  0
   20.0814   17.6768   25.4258 O   0  5  0  0  0  0  0  0  0  0  0  0
   19.2326   19.6345   25.6103 O   0  0  0  0  0  0  0  0  0  0  0  0
   21.0422   19.3854   24.1221 C   0  0  0  0  0  0  0  0  0  0  0  0
   22.0105   18.9196   24.3388 H   0  0  0  0  0  0  0  0  0  0  0  0
   21.1606   20.4629   24.2880 H   0  0  0  0  0  0  0  0  0  0  0  0
   20.6341   19.0956   22.6900 C   0  0  0  0  0  0  0  0  0  0  0  0
   20.6525   18.0420   22.4168 H   0  0  0  0  0  0  0  0  0  0  0  0
   20.2703   20.0383   21.8116 C   0  0  0  0  0  0  0  0  0  0  0  0
   20.2600   21.0824   22.1227 H   0  0  0  0  0  0  0  0  0  0  0  0
   19.8481   19.8196   20.3685 C   0  0  0  0  0  0  0  0  0  0  0  0
   18.8431   20.2387   20.2238 H   0  0  0  0  0  0  0  0  0  0  0  0
   20.5080   20.4021   19.7115 H   0  0  0  0  0  0  0  0  0  0  0  0
   19.8497   18.3462   19.9047 C   0  0  0  0  0  0  0  0  0  0  0  0
   19.5336   18.2724   18.8561 H   0  0  0  0  0  0  0  0  0  0  0  0
   20.8537   17.9091   19.9846 H   0  0  0  0  0  0  0  0  0  0  0  0
   19.1583   17.7428   20.5075 H   0  0  0  0  0  0  0  0  0  0  0  0
  1  2  1  0  0  0  0
  1  3  2  0  0  0  0
  1  4  1  0  0  0  0
  4  5  1  0  0  0  0
  4  6  1  0  0  0  0
  4  7  1  0  0  0  0
  7  8  1  0  0  0  0
  7  9  2  0  0  0  0
  9 10  1  0  0  0  0
  9 11  1  0  0  0  0
 11 12  1  0  0  0  0
 11 13  1  0  0  0  0
 11 14  1  0  0  0  0
 14 15  1  0  0  0  0
 14 16  1  0  0  0  0
 14 17  1  0  0  0  0
M  END
> <VM2 Rank>
6

> <Conf_Id>
129

> <Probability>
10.64

> <Sum Probability>
71.53

> <Delta G>
0.176

> <G>
-26.486

> <E>
-36.460

> <-TS>
9.975

> <U+W>
-49.874

> <U>
13.864

> <W>
-63.738

> <W(PB)>
-65.801

> <W(SA)>
2.064

> <Valence>
14.117

> <Coulomb>
-1.227

> <VdW>
0.974

> <VdW6>
-4.885

> <VdW12>
5.859

> <Bond>
0.094

> <Angle>
2.817

> <Pdih>
11.205

> <Idih>
0.000

> <Tether>
0.000

$$$$
VeraChem MOL file


 17 16  0  0  0  0  0  0  0  0999 V2000     
   20.1102   18.9989   25.2592 C   0  0  0  0  0  0  0  0  0  0  0  0
   20.6749   19.9848   25.6906 O   0  5  0  0  0  0  0  0  0  0  0  0
   20.2335   17.8896   25.7401 O   0  0  0  0  0  0  0  0  0  0  0  0
   19.1936   19.1611   24.0538 C   0  0  0  0  0  0  0  0  0  0  0  0
   18.8608   20.2052   24.0138 H   0  0  0  0  0  0  0  0  0  0  0  0
   18.3022   18.5468   24.2259 H   0  0  0  0  0  0  0  0  0  0  0  0
   19.8639   18.7540   22.7554 C   0  0  0  0  0  0  0  0  0  0  0  0
   20.0791   17.6905   22.6567 H   0  0  0  0  0  0  0  0  0  0  0  0
   20.1872   19.6060   21.7778 C   0  0  0  0  0  0  0  0  0  0  0  0
   19.9745   20.6698   21.8785 H   0  0  0  0  0  0  0  0  0  0  0  0
   20.8591   19.1989   20.4855 C   0  0  0  0  0  0  0  0  0  0  0  0
   21.7101   19.8638   20.2846 H   0  0  0  0  0  0  0  0  0  0  0  0
   21.2664   18.1818   20.5678 H   0  0  0  0  0  0  0  0  0  0  0  0
   19.8707   19.2585   19.3046 C   0  0  0  0  0  0  0  0  0  0  0  0
   19.4763   20.2749   19.1748 H   0  0  0  0  0  0  0  0  0  0  0  0
   20.3641   18.9627   18.3696 H   0  0  0  0  0  0  0  0  0  0  0  0
   19.0227   18.5813   19.4714 H   0  0  0  0  0  0  0  0  0  0  0  0
  1  2  1  0  0  0  0
  1  3  2  0  0  0  0
  1  4  1  0  0  0  0
  4  5  1  0  0  0  0
  4  6  1  0  0  0  0
  4  7  1  0  0  0  0
  7  8  1  0  0  0  0
  7  9  2  0  0  0  0
  9 10  1  0  0  0  0
  9 11  1  0  0  0  0
 11 12  1  0  0  0  0
 11 13  1  0  0  0  0
 11 14  1  0  0  0  0
 14 15  1  0  0  0  0
 14 16  1  0  0  0  0
 14 17  1  0  0  0  0
M  END
> <VM2 Rank>
7

> <Conf_Id>
93

> <Probability>
10.54

> <Sum Probability>
82.07

> <Delta G>
0.182

> <G>
-26.480

> <E>
-36.116

> <-TS>
9.636

> <U+W>
-49.530

> <U>
13.666

> <W>
-63.196

> <W(PB)>
-65.299

> <W(SA)>
2.103

> <Valence>
15.226

> <Coulomb>
-1.821

> <VdW>
0.261

> <VdW6>
-4.165

> <VdW12>
4.426

> <Bond>
0.044

> <Angle>
2.229

> <Pdih>
12.953

> <Idih>
0.000

> <Tether>
0.000

$$$$
VeraChem MOL file


 17 16  0  0  0  0  0  0  0  0999 V2000     
   20.1634   19.1351   25.1460 C   0  0  0  0  0  0  0  0  0  0  0  0
   21.2738   19.5651   25.3886 O   0  5  0  0  0  0  0  0  0  0  0  0
   19.1537   19.5359   25.6908 O   0  0  0  0  0  0  0  0  0  0  0  0
   20.0285   18.0259   24.1109 C   0  0  0  0  0  0  0  0  0  0  0  0
   19.3060   17.2963   24.4946 H   0  0  0  0  0  0  0  0  0  0  0  0
   20.9935   17.5109   24.0320 H   0  0  0  0  0  0  0  0  0  0  0  0
   19.5770   18.5447   22.7590 C   0  0  0  0  0  0  0  0  0  0  0  0
   18.5592   18.9325   22.7260 H   0  0  0  0  0  0  0  0  0  0  0  0
   20.3423   18.5521   21.6634 C   0  0  0  0  0  0  0  0  0  0  0  0
   21.3616   18.1689   21.6982 H   0  0  0  0  0  0  0  0  0  0  0  0
   19.8911   19.0726   20.3170 C   0  0  0  0  0  0  0  0  0  0  0  0
   20.1380   18.3418   19.5350 H   0  0  0  0  0  0  0  0  0  0  0  0
   18.7996   19.1971   20.2991 H   0  0  0  0  0  0  0  0  0  0  0  0
   20.5632   20.4206   19.9913 C   0  0  0  0  0  0  0  0  0  0  0  0
   21.6559   20.3170   19.9642 H   0  0  0  0  0  0  0  0  0  0  0  0
   20.2320   20.7940   19.0136 H   0  0  0  0  0  0  0  0  0  0  0  0
   20.3101   21.1751   20.7479 H   0  0  0  0  0  0  0  0  0  0  0  0
  1  2  1  0  0  0  0
  1  3  2  0  0  0  0
  1  4  1  0  0  0  0
  4  5  1  0  0  0  0
  4  6  1  0  0  0  0
  4  7  1  0  0  0  0
  7  8  1  0  0  0  0
  7  9  2  0  0  0  0
  9 10  1  0  0  0  0
  9 11  1  0  0  0  0
 11 12  1  0  0  0  0
 11 13  1  0  0  0  0
 11 14  1  0  0  0  0
 14 15  1  0  0  0  0
 14 16  1  0  0  0  0
 14 17  1  0  0  0  0
M  END
> <VM2 Rank>
8

> <Conf_Id>
7

> <Probability>
9.34

> <Sum Probability>
91.41

> <Delta G>
0.254

> <G>
-26.408

> <E>
-36.054

> <-TS>
9.646

> <U+W>
-49.468

> <U>
14.121

> <W>
-63.589

> <W(PB)>
-65.660

> <W(SA)>
2.071

> <Valence>
15.230

> <Coulomb>
-1.333

> <VdW>
0.224

> <VdW6>
-4.212

> <VdW12>
4.436

> <Bond>
0.044

> <Angle>
2.230

> <Pdih>
12.956

> <Idih>
0.000

> <Tether>
0.000

$$$$
