VeraChem MOL file


 20 19  0  0  0  0  0  0  0  0999 V2000     
   19.8542   19.1509   18.8169 C   0  0  0  0  0  0  0  0  0  0  0  0
   20.3378   18.6998   17.9408 H   0  0  0  0  0  0  0  0  0  0  0  0
   18.7731   18.9823   18.7280 H   0  0  0  0  0  0  0  0  0  0  0  0
   20.0352   20.2330   18.7808 H   0  0  0  0  0  0  0  0  0  0  0  0
   20.4073   18.5375   20.1216 C   0  0  0  0  0  0  0  0  0  0  0  0
   21.4949   18.6915   20.1650 H   0  0  0  0  0  0  0  0  0  0  0  0
   20.2425   17.4507   20.1127 H   0  0  0  0  0  0  0  0  0  0  0  0
   19.7440   19.1543   21.3727 C   0  0  0  0  0  0  0  0  0  0  0  0
   19.9122   20.2395   21.3827 H   0  0  0  0  0  0  0  0  0  0  0  0
   18.6580   18.9971   21.3302 H   0  0  0  0  0  0  0  0  0  0  0  0
   20.3007   18.5375   22.6694 C   0  0  0  0  0  0  0  0  0  0  0  0
   21.3793   18.7058   22.7224 H   0  0  0  0  0  0  0  0  0  0  0  0
   20.1210   17.4594   22.6697 H   0  0  0  0  0  0  0  0  0  0  0  0
   19.6776   19.1133   23.9259 N   0  3  0  0  0  0  0  0  0  0  0  0
   18.6547   18.9808   23.9098 H   0  0  0  0  0  0  0  0  0  0  0  0
   19.8199   20.1345   23.9588 H   0  0  0  0  0  0  0  0  0  0  0  0
   20.2822   18.4505   25.1565 C   0  0  0  0  0  0  0  0  0  0  0  0
   21.3589   18.6328   25.1711 H   0  0  0  0  0  0  0  0  0  0  0  0
   19.8250   18.8742   26.0534 H   0  0  0  0  0  0  0  0  0  0  0  0
   20.0897   17.3761   25.1177 H   0  0  0  0  0  0  0  0  0  0  0  0
  1  2  1  0  0  0  0
  1  3  1  0  0  0  0
  1  4  1  0  0  0  0
  1  5  1  0  0  0  0
  5  6  1  0  0  0  0
  5  7  1  0  0  0  0
  5  8  1  0  0  0  0
  8  9  1  0  0  0  0
  8 10  1  0  0  0  0
  8 11  1  0  0  0  0
 11 12  1  0  0  0  0
 11 13  1  0  0  0  0
 11 14  1  0  0  0  0
 14 15  1  0  0  0  0
 14 16  1  0  0  0  0
 14 17  1  0  0  0  0
 17 18  1  0  0  0  0
 17 19  1  0  0  0  0
 17 20  1  0  0  0  0
M  END
> <VM2 Rank>
1

> <Conf_Id>
167

> <Probability>
13.71

> <Sum Probability>
13.71

> <Delta G>
0.000

> <G>
53.936

> <E>
31.434

> <-TS>
22.502

> <U+W>
15.338

> <U>
69.277

> <W>
-53.939

> <W(PB)>
-55.889

> <W(SA)>
1.950

> <Valence>
0.846

> <Coulomb>
68.557

> <VdW>
-0.127

> <VdW6>
-3.008

> <VdW12>
2.882

> <Bond>
0.088

> <Angle>
0.332

> <Pdih>
0.426

> <Idih>
0.000

> <Tether>
0.000

$$$$
VeraChem MOL file


 20 19  0  0  0  0  0  0  0  0999 V2000     
   20.2445   19.5234   19.0576 C   0  0  0  0  0  0  0  0  0  0  0  0
   21.0842   20.2047   19.2476 H   0  0  0  0  0  0  0  0  0  0  0  0
   20.4067   19.0552   18.0780 H   0  0  0  0  0  0  0  0  0  0  0  0
   19.3263   20.1220   18.9960 H   0  0  0  0  0  0  0  0  0  0  0  0
   20.1366   18.4514   20.1636 C   0  0  0  0  0  0  0  0  0  0  0  0
   21.0550   17.8475   20.1777 H   0  0  0  0  0  0  0  0  0  0  0  0
   19.3111   17.7651   19.9275 H   0  0  0  0  0  0  0  0  0  0  0  0
   19.9076   19.0821   21.5548 C   0  0  0  0  0  0  0  0  0  0  0  0
   20.7340   19.7663   21.7862 H   0  0  0  0  0  0  0  0  0  0  0  0
   18.9878   19.6816   21.5412 H   0  0  0  0  0  0  0  0  0  0  0  0
   19.7996   18.0035   22.6525 C   0  0  0  0  0  0  0  0  0  0  0  0
   20.7305   17.4334   22.7055 H   0  0  0  0  0  0  0  0  0  0  0  0
   18.9942   17.3120   22.3921 H   0  0  0  0  0  0  0  0  0  0  0  0
   19.5006   18.5423   24.0421 N   0  3  0  0  0  0  0  0  0  0  0  0
   19.2828   17.7580   24.6768 H   0  0  0  0  0  0  0  0  0  0  0  0
   18.6430   19.1150   24.0265 H   0  0  0  0  0  0  0  0  0  0  0  0
   20.6771   19.3414   24.5924 C   0  0  0  0  0  0  0  0  0  0  0  0
   20.4389   19.6780   25.6038 H   0  0  0  0  0  0  0  0  0  0  0  0
   21.5643   18.7049   24.6161 H   0  0  0  0  0  0  0  0  0  0  0  0
   20.8590   20.2067   23.9521 H   0  0  0  0  0  0  0  0  0  0  0  0
  1  2  1  0  0  0  0
  1  3  1  0  0  0  0
  1  4  1  0  0  0  0
  1  5  1  0  0  0  0
  5  6  1  0  0  0  0
  5  7  1  0  0  0  0
  5  8  1  0  0  0  0
  8  9  1  0  0  0  0
  8 10  1  0  0  0  0
  8 11  1  0  0  0  0
 11 12  1  0  0  0  0
 11 13  1  0  0  0  0
 11 14  1  0  0  0  0
 14 15  1  0  0  0  0
 14 16  1  0  0  0  0
 14 17  1  0  0  0  0
 17 18  1  0  0  0  0
 17 19  1  0  0  0  0
 17 20  1  0  0  0  0
M  END
> <VM2 Rank>
2

> <Conf_Id>
212

> <Probability>
10.70

> <Sum Probability>
24.41

> <Delta G>
0.148

> <G>
54.084

> <E>
31.414

> <-TS>
22.671

> <U+W>
15.317

> <U>
69.657

> <W>
-54.340

> <W(PB)>
-56.238

> <W(SA)>
1.899

> <Valence>
1.137

> <Coulomb>
68.383

> <VdW>
0.138

> <VdW6>
-3.703

> <VdW12>
3.841

> <Bond>
0.125

> <Angle>
0.468

> <Pdih>
0.543

> <Idih>
0.000

> <Tether>
0.000

$$$$
VeraChem MOL file


 20 19  0  0  0  0  0  0  0  0999 V2000     
   19.4687   18.7547   19.0250 C   0  0  0  0  0  0  0  0  0  0  0  0
   19.9766   18.6288   18.0600 H   0  0  0  0  0  0  0  0  0  0  0  0
   18.7729   17.9149   19.1507 H   0  0  0  0  0  0  0  0  0  0  0  0
   18.8811   19.6808   18.9773 H   0  0  0  0  0  0  0  0  0  0  0  0
   20.4939   18.8053   20.1786 C   0  0  0  0  0  0  0  0  0  0  0  0
   21.1966   19.6329   20.0065 H   0  0  0  0  0  0  0  0  0  0  0  0
   21.0888   17.8809   20.1792 H   0  0  0  0  0  0  0  0  0  0  0  0
   19.8069   18.9825   21.5506 C   0  0  0  0  0  0  0  0  0  0  0  0
   19.2163   19.9081   21.5507 H   0  0  0  0  0  0  0  0  0  0  0  0
   19.1064   18.1541   21.7180 H   0  0  0  0  0  0  0  0  0  0  0  0
   20.8390   19.0334   22.6961 C   0  0  0  0  0  0  0  0  0  0  0  0
   21.5476   19.8419   22.4992 H   0  0  0  0  0  0  0  0  0  0  0  0
   21.3985   18.0953   22.7335 H   0  0  0  0  0  0  0  0  0  0  0  0
   20.2445   19.2793   24.0733 N   0  3  0  0  0  0  0  0  0  0  0  0
   19.6801   20.1426   24.0700 H   0  0  0  0  0  0  0  0  0  0  0  0
   21.0030   19.4625   24.7489 H   0  0  0  0  0  0  0  0  0  0  0  0
   19.4131   18.0889   24.5394 C   0  0  0  0  0  0  0  0  0  0  0  0
   20.0406   17.1951   24.5522 H   0  0  0  0  0  0  0  0  0  0  0  0
   19.0359   18.2879   25.5450 H   0  0  0  0  0  0  0  0  0  0  0  0
   18.5741   17.9426   23.8563 H   0  0  0  0  0  0  0  0  0  0  0  0
  1  2  1  0  0  0  0
  1  3  1  0  0  0  0
  1  4  1  0  0  0  0
  1  5  1  0  0  0  0
  5  6  1  0  0  0  0
  5  7  1  0  0  0  0
  5  8  1  0  0  0  0
  8  9  1  0  0  0  0
  8 10  1  0  0  0  0
  8 11  1  0  0  0  0
 11 12  1  0  0  0  0
 11 13  1  0  0  0  0
 11 14  1  0  0  0  0
 14 15  1  0  0  0  0
 14 16  1  0  0  0  0
 14 17  1  0  0  0  0
 17 18  1  0  0  0  0
 17 19  1  0  0  0  0
 17 20  1  0  0  0  0
M  END
> <VM2 Rank>
3

> <Conf_Id>
2

> <Probability>
9.20

> <Sum Probability>
33.61

> <Delta G>
0.237

> <G>
54.174

> <E>
31.503

> <-TS>
22.670

> <U+W>
15.407

> <U>
69.657

> <W>
-54.250

> <W(PB)>
-56.176

> <W(SA)>
1.926

> <Valence>
1.137

> <Coulomb>
68.383

> <VdW>
0.138

> <VdW6>
-3.703

> <VdW12>
3.841

> <Bond>
0.125

> <Angle>
0.468

> <Pdih>
0.543

> <Idih>
0.000

> <Tether>
0.000

$$$$
VeraChem MOL file


 20 19  0  0  0  0  0  0  0  0999 V2000     
   20.8668   19.3663   19.5193 C   0  0  0  0  0  0  0  0  0  0  0  0
   20.5580   20.4197   19.5220 H   0  0  0  0  0  0  0  0  0  0  0  0
   21.7365   19.2623   20.1804 H   0  0  0  0  0  0  0  0  0  0  0  0
   21.1934   19.1160   18.5017 H   0  0  0  0  0  0  0  0  0  0  0  0
   19.7056   18.4447   19.9580 C   0  0  0  0  0  0  0  0  0  0  0  0
   20.0426   17.3984   19.9527 H   0  0  0  0  0  0  0  0  0  0  0  0
   18.8957   18.5117   19.2180 H   0  0  0  0  0  0  0  0  0  0  0  0
   19.1424   18.8038   21.3530 C   0  0  0  0  0  0  0  0  0  0  0  0
   18.7745   19.8384   21.3461 H   0  0  0  0  0  0  0  0  0  0  0  0
   18.2761   18.1630   21.5643 H   0  0  0  0  0  0  0  0  0  0  0  0
   20.1839   18.6321   22.4760 C   0  0  0  0  0  0  0  0  0  0  0  0
   21.0332   19.2954   22.2953 H   0  0  0  0  0  0  0  0  0  0  0  0
   20.5480   17.6017   22.4844 H   0  0  0  0  0  0  0  0  0  0  0  0
   19.6384   18.9446   23.8556 N   0  3  0  0  0  0  0  0  0  0  0  0
   18.8279   18.3413   24.0637 H   0  0  0  0  0  0  0  0  0  0  0  0
   19.2751   19.9096   23.8852 H   0  0  0  0  0  0  0  0  0  0  0  0
   20.7289   18.7526   24.9011 C   0  0  0  0  0  0  0  0  0  0  0  0
   21.5609   19.4249   24.6810 H   0  0  0  0  0  0  0  0  0  0  0  0
   20.3228   18.9806   25.8891 H   0  0  0  0  0  0  0  0  0  0  0  0
   21.0739   17.7167   24.8752 H   0  0  0  0  0  0  0  0  0  0  0  0
  1  2  1  0  0  0  0
  1  3  1  0  0  0  0
  1  4  1  0  0  0  0
  1  5  1  0  0  0  0
  5  6  1  0  0  0  0
  5  7  1  0  0  0  0
  5  8  1  0  0  0  0
  8  9  1  0  0  0  0
  8 10  1  0  0  0  0
  8 11  1  0  0  0  0
 11 12  1  0  0  0  0
 11 13  1  0  0  0  0
 11 14  1  0  0  0  0
 14 15  1  0  0  0  0
 14 16  1  0  0  0  0
 14 17  1  0  0  0  0
 17 18  1  0  0  0  0
 17 19  1  0  0  0  0
 17 20  1  0  0  0  0
M  END
> <VM2 Rank>
4

> <Conf_Id>
113

> <Probability>
7.39

> <Sum Probability>
41.00

> <Delta G>
0.368

> <G>
54.305

> <E>
31.706

> <-TS>
22.599

> <U+W>
15.610

> <U>
69.798

> <W>
-54.189

> <W(PB)>
-56.121

> <W(SA)>
1.932

> <Valence>
1.134

> <Coulomb>
68.735

> <VdW>
-0.070

> <VdW6>
-3.565

> <VdW12>
3.494

> <Bond>
0.108

> <Angle>
0.456

> <Pdih>
0.569

> <Idih>
0.000

> <Tether>
0.000

$$$$
VeraChem MOL file


 20 19  0  0  0  0  0  0  0  0999 V2000     
   19.6006   18.1123   19.4663 C   0  0  0  0  0  0  0  0  0  0  0  0
   19.6689   17.2147   20.0938 H   0  0  0  0  0  0  0  0  0  0  0  0
   18.5507   18.4318   19.4379 H   0  0  0  0  0  0  0  0  0  0  0  0
   19.8907   17.8259   18.4471 H   0  0  0  0  0  0  0  0  0  0  0  0
   20.5131   19.2443   19.9918 C   0  0  0  0  0  0  0  0  0  0  0  0
   20.4845   20.0851   19.2845 H   0  0  0  0  0  0  0  0  0  0  0  0
   21.5556   18.8968   20.0161 H   0  0  0  0  0  0  0  0  0  0  0  0
   20.1003   19.7524   21.3931 C   0  0  0  0  0  0  0  0  0  0  0  0
   20.7394   20.6022   21.6675 H   0  0  0  0  0  0  0  0  0  0  0  0
   19.0703   20.1314   21.3585 H   0  0  0  0  0  0  0  0  0  0  0  0
   20.2150   18.6630   22.4773 C   0  0  0  0  0  0  0  0  0  0  0  0
   21.2408   18.2877   22.5132 H   0  0  0  0  0  0  0  0  0  0  0  0
   19.5522   17.8294   22.2333 H   0  0  0  0  0  0  0  0  0  0  0  0
   19.8497   19.1537   23.8645 N   0  3  0  0  0  0  0  0  0  0  0  0
   18.8877   19.5261   23.8691 H   0  0  0  0  0  0  0  0  0  0  0  0
   20.4512   19.9480   24.1317 H   0  0  0  0  0  0  0  0  0  0  0  0
   19.9873   18.0183   24.8700 C   0  0  0  0  0  0  0  0  0  0  0  0
   21.0201   17.6631   24.8727 H   0  0  0  0  0  0  0  0  0  0  0  0
   19.7216   18.3851   25.8639 H   0  0  0  0  0  0  0  0  0  0  0  0
   19.3171   17.2037   24.5870 H   0  0  0  0  0  0  0  0  0  0  0  0
  1  2  1  0  0  0  0
  1  3  1  0  0  0  0
  1  4  1  0  0  0  0
  1  5  1  0  0  0  0
  5  6  1  0  0  0  0
  5  7  1  0  0  0  0
  5  8  1  0  0  0  0
  8  9  1  0  0  0  0
  8 10  1  0  0  0  0
  8 11  1  0  0  0  0
 11 12  1  0  0  0  0
 11 13  1  0  0  0  0
 11 14  1  0  0  0  0
 14 15  1  0  0  0  0
 14 16  1  0  0  0  0
 14 17  1  0  0  0  0
 17 18  1  0  0  0  0
 17 19  1  0  0  0  0
 17 20  1  0  0  0  0
M  END
> <VM2 Rank>
5

> <Conf_Id>
34

> <Probability>
7.33

> <Sum Probability>
48.33

> <Delta G>
0.373

> <G>
54.310

> <E>
31.711

> <-TS>
22.599

> <U+W>
15.615

> <U>
69.798

> <W>
-54.184

> <W(PB)>
-56.116

> <W(SA)>
1.933

> <Valence>
1.134

> <Coulomb>
68.735

> <VdW>
-0.070

> <VdW6>
-3.565

> <VdW12>
3.494

> <Bond>
0.108

> <Angle>
0.456

> <Pdih>
0.569

> <Idih>
0.000

> <Tether>
0.000

$$$$
VeraChem MOL file


 20 19  0  0  0  0  0  0  0  0999 V2000     
   19.6844   18.8157   18.9889 C   0  0  0  0  0  0  0  0  0  0  0  0
   20.5415   19.3302   18.5351 H   0  0  0  0  0  0  0  0  0  0  0  0
   19.4591   17.9336   18.3756 H   0  0  0  0  0  0  0  0  0  0  0  0
   18.8181   19.4884   18.9413 H   0  0  0  0  0  0  0  0  0  0  0  0
   19.9896   18.4042   20.4454 C   0  0  0  0  0  0  0  0  0  0  0  0
   20.8398   17.7076   20.4564 H   0  0  0  0  0  0  0  0  0  0  0  0
   19.1274   17.8584   20.8519 H   0  0  0  0  0  0  0  0  0  0  0  0
   20.3101   19.6310   21.3317 C   0  0  0  0  0  0  0  0  0  0  0  0
   21.1482   20.1874   20.8914 H   0  0  0  0  0  0  0  0  0  0  0  0
   19.4538   20.3182   21.3479 H   0  0  0  0  0  0  0  0  0  0  0  0
   20.6879   19.2436   22.7755 C   0  0  0  0  0  0  0  0  0  0  0  0
   20.9885   20.1404   23.3232 H   0  0  0  0  0  0  0  0  0  0  0  0
   21.5357   18.5540   22.7610 H   0  0  0  0  0  0  0  0  0  0  0  0
   19.5633   18.5877   23.5547 N   0  3  0  0  0  0  0  0  0  0  0  0
   19.2485   17.7327   23.0727 H   0  0  0  0  0  0  0  0  0  0  0  0
   18.7396   19.2081   23.5803 H   0  0  0  0  0  0  0  0  0  0  0  0
   20.0307   18.2618   24.9668 C   0  0  0  0  0  0  0  0  0  0  0  0
   19.2126   17.7906   25.5159 H   0  0  0  0  0  0  0  0  0  0  0  0
   20.8814   17.5787   24.9158 H   0  0  0  0  0  0  0  0  0  0  0  0
   20.3278   19.1848   25.4695 H   0  0  0  0  0  0  0  0  0  0  0  0
  1  2  1  0  0  0  0
  1  3  1  0  0  0  0
  1  4  1  0  0  0  0
  1  5  1  0  0  0  0
  5  6  1  0  0  0  0
  5  7  1  0  0  0  0
  5  8  1  0  0  0  0
  8  9  1  0  0  0  0
  8 10  1  0  0  0  0
  8 11  1  0  0  0  0
 11 12  1  0  0  0  0
 11 13  1  0  0  0  0
 11 14  1  0  0  0  0
 14 15  1  0  0  0  0
 14 16  1  0  0  0  0
 14 17  1  0  0  0  0
 17 18  1  0  0  0  0
 17 19  1  0  0  0  0
 17 20  1  0  0  0  0
M  END
> <VM2 Rank>
6

> <Conf_Id>
109

> <Probability>
6.94

> <Sum Probability>
55.27

> <Delta G>
0.405

> <G>
54.342

> <E>
31.753

> <-TS>
22.589

> <U+W>
15.657

> <U>
69.962

> <W>
-54.305

> <W(PB)>
-56.224

> <W(SA)>
1.918

> <Valence>
0.982

> <Coulomb>
69.058

> <VdW>
-0.077

> <VdW6>
-3.548

> <VdW12>
3.471

> <Bond>
0.105

> <Angle>
0.408

> <Pdih>
0.469

> <Idih>
0.000

> <Tether>
0.000

$$$$
VeraChem MOL file


 20 19  0  0  0  0  0  0  0  0999 V2000     
   20.1834   19.3100   19.0098 C   0  0  0  0  0  0  0  0  0  0  0  0
   21.0926   19.5514   18.4440 H   0  0  0  0  0  0  0  0  0  0  0  0
   19.6810   18.4781   18.4991 H   0  0  0  0  0  0  0  0  0  0  0  0
   19.5210   20.1846   18.9708 H   0  0  0  0  0  0  0  0  0  0  0  0
   20.5304   18.9398   20.4681 C   0  0  0  0  0  0  0  0  0  0  0  0
   21.0660   19.7784   20.9331 H   0  0  0  0  0  0  0  0  0  0  0  0
   21.2184   18.0825   20.4723 H   0  0  0  0  0  0  0  0  0  0  0  0
   19.2645   18.5954   21.2879 C   0  0  0  0  0  0  0  0  0  0  0  0
   18.5847   19.4575   21.3116 H   0  0  0  0  0  0  0  0  0  0  0  0
   18.7198   17.7824   20.7897 H   0  0  0  0  0  0  0  0  0  0  0  0
   19.5872   18.1535   22.7294 C   0  0  0  0  0  0  0  0  0  0  0  0
   20.2693   17.2998   22.7079 H   0  0  0  0  0  0  0  0  0  0  0  0
   18.6654   17.8396   23.2259 H   0  0  0  0  0  0  0  0  0  0  0  0
   20.2194   19.2374   23.5822 N   0  3  0  0  0  0  0  0  0  0  0  0
   19.6058   20.0658   23.6165 H   0  0  0  0  0  0  0  0  0  0  0  0
   21.0968   19.5631   23.1502 H   0  0  0  0  0  0  0  0  0  0  0  0
   20.4811   18.7079   24.9857 C   0  0  0  0  0  0  0  0  0  0  0  0
   19.5350   18.4000   25.4363 H   0  0  0  0  0  0  0  0  0  0  0  0
   21.1582   17.8530   24.9275 H   0  0  0  0  0  0  0  0  0  0  0  0
   20.9359   19.4974   25.5882 H   0  0  0  0  0  0  0  0  0  0  0  0
  1  2  1  0  0  0  0
  1  3  1  0  0  0  0
  1  4  1  0  0  0  0
  1  5  1  0  0  0  0
  5  6  1  0  0  0  0
  5  7  1  0  0  0  0
  5  8  1  0  0  0  0
  8  9  1  0  0  0  0
  8 10  1  0  0  0  0
  8 11  1  0  0  0  0
 11 12  1  0  0  0  0
 11 13  1  0  0  0  0
 11 14  1  0  0  0  0
 14 15  1  0  0  0  0
 14 16  1  0  0  0  0
 14 17  1  0  0  0  0
 17 18  1  0  0  0  0
 17 19  1  0  0  0  0
 17 20  1  0  0  0  0
M  END
> <VM2 Rank>
7

> <Conf_Id>
116

> <Probability>
6.49

> <Sum Probability>
61.76

> <Delta G>
0.446

> <G>
54.382

> <E>
31.793

> <-TS>
22.589

> <U+W>
15.697

> <U>
69.962

> <W>
-54.265

> <W(PB)>
-56.166

> <W(SA)>
1.901

> <Valence>
0.982

> <Coulomb>
69.058

> <VdW>
-0.077

> <VdW6>
-3.548

> <VdW12>
3.471

> <Bond>
0.105

> <Angle>
0.408

> <Pdih>
0.469

> <Idih>
0.000

> <Tether>
0.000

$$$$
VeraChem MOL file


 20 19  0  0  0  0  0  0  0  0999 V2000     
   19.9181   18.3279   19.2182 C   0  0  0  0  0  0  0  0  0  0  0  0
   20.7103   17.9399   18.5648 H   0  0  0  0  0  0  0  0  0  0  0  0
   19.1764   17.5306   19.3572 H   0  0  0  0  0  0  0  0  0  0  0  0
   19.4301   19.1611   18.6961 H   0  0  0  0  0  0  0  0  0  0  0  0
   20.5028   18.7853   20.5721 C   0  0  0  0  0  0  0  0  0  0  0  0
   21.2633   19.5595   20.3978 H   0  0  0  0  0  0  0  0  0  0  0  0
   21.0151   17.9372   21.0462 H   0  0  0  0  0  0  0  0  0  0  0  0
   19.4052   19.3351   21.5133 C   0  0  0  0  0  0  0  0  0  0  0  0
   18.8723   20.1528   21.0103 H   0  0  0  0  0  0  0  0  0  0  0  0
   18.6571   18.5572   21.7126 H   0  0  0  0  0  0  0  0  0  0  0  0
   19.9713   19.8728   22.8464 C   0  0  0  0  0  0  0  0  0  0  0  0
   19.1568   20.2827   23.4491 H   0  0  0  0  0  0  0  0  0  0  0  0
   20.6708   20.6851   22.6328 H   0  0  0  0  0  0  0  0  0  0  0  0
   20.7073   18.8521   23.7013 N   0  3  0  0  0  0  0  0  0  0  0  0
   21.1568   19.3297   24.4982 H   0  0  0  0  0  0  0  0  0  0  0  0
   21.4853   18.4364   23.1684 H   0  0  0  0  0  0  0  0  0  0  0  0
   19.7612   17.7707   24.2117 C   0  0  0  0  0  0  0  0  0  0  0  0
   20.3179   17.0797   24.8486 H   0  0  0  0  0  0  0  0  0  0  0  0
   18.9595   18.2374   24.7879 H   0  0  0  0  0  0  0  0  0  0  0  0
   19.3401   17.2282   23.3630 H   0  0  0  0  0  0  0  0  0  0  0  0
  1  2  1  0  0  0  0
  1  3  1  0  0  0  0
  1  4  1  0  0  0  0
  1  5  1  0  0  0  0
  5  6  1  0  0  0  0
  5  7  1  0  0  0  0
  5  8  1  0  0  0  0
  8  9  1  0  0  0  0
  8 10  1  0  0  0  0
  8 11  1  0  0  0  0
 11 12  1  0  0  0  0
 11 13  1  0  0  0  0
 11 14  1  0  0  0  0
 14 15  1  0  0  0  0
 14 16  1  0  0  0  0
 14 17  1  0  0  0  0
 17 18  1  0  0  0  0
 17 19  1  0  0  0  0
 17 20  1  0  0  0  0
M  END
> <VM2 Rank>
8

> <Conf_Id>
303

> <Probability>
5.35

> <Sum Probability>
67.11

> <Delta G>
0.561

> <G>
54.497

> <E>
31.685

> <-TS>
22.812

> <U+W>
15.588

> <U>
70.298

> <W>
-54.710

> <W(PB)>
-56.587

> <W(SA)>
1.877

> <Valence>
1.245

> <Coulomb>
68.933

> <VdW>
0.120

> <VdW6>
-4.430

> <VdW12>
4.550

> <Bond>
0.148

> <Angle>
0.587

> <Pdih>
0.509

> <Idih>
0.000

> <Tether>
0.000

$$$$
