VeraChem MOL file


 25 24  0  0  0  0  0  0  0  0999 V2000     
   20.1602   19.3401   27.8084 C   0  0  0  0  0  0  0  0  0  0  0  0
   21.2160   19.7053   28.2866 O   0  5  0  0  0  0  0  0  0  0  0  0
   19.0781   19.5687   28.3118 O   0  0  0  0  0  0  0  0  0  0  0  0
   20.1938   18.5724   26.4918 C   0  0  0  0  0  0  0  0  0  0  0  0
   19.3542   17.8670   26.4874 H   0  0  0  0  0  0  0  0  0  0  0  0
   21.1158   17.9792   26.4669 H   0  0  0  0  0  0  0  0  0  0  0  0
   20.1203   19.4990   25.2533 C   0  0  0  0  0  0  0  0  0  0  0  0
   19.1984   20.0952   25.3003 H   0  0  0  0  0  0  0  0  0  0  0  0
   20.9599   20.2075   25.2799 H   0  0  0  0  0  0  0  0  0  0  0  0
   20.1561   18.6986   23.9335 C   0  0  0  0  0  0  0  0  0  0  0  0
   19.3163   17.9905   23.9105 H   0  0  0  0  0  0  0  0  0  0  0  0
   21.0782   18.1028   23.8902 H   0  0  0  0  0  0  0  0  0  0  0  0
   20.0828   19.6250   22.7006 C   0  0  0  0  0  0  0  0  0  0  0  0
   19.1607   20.2207   22.7436 H   0  0  0  0  0  0  0  0  0  0  0  0
   20.9225   20.3331   22.7233 H   0  0  0  0  0  0  0  0  0  0  0  0
   20.1187   18.8252   21.3804 C   0  0  0  0  0  0  0  0  0  0  0  0
   19.2790   18.1170   21.3573 H   0  0  0  0  0  0  0  0  0  0  0  0
   21.0407   18.2293   21.3371 H   0  0  0  0  0  0  0  0  0  0  0  0
   20.0455   19.7510   20.1479 C   0  0  0  0  0  0  0  0  0  0  0  0
   19.1233   20.3473   20.1868 H   0  0  0  0  0  0  0  0  0  0  0  0
   20.8850   20.4598   20.1667 H   0  0  0  0  0  0  0  0  0  0  0  0
   20.0816   18.9487   18.8317 C   0  0  0  0  0  0  0  0  0  0  0  0
   19.2341   18.2533   18.7721 H   0  0  0  0  0  0  0  0  0  0  0  0
   20.0289   19.6222   17.9664 H   0  0  0  0  0  0  0  0  0  0  0  0
   21.0090   18.3665   18.7519 H   0  0  0  0  0  0  0  0  0  0  0  0
  1  2  1  0  0  0  0
  1  3  2  0  0  0  0
  1  4  1  0  0  0  0
  4  5  1  0  0  0  0
  4  6  1  0  0  0  0
  4  7  1  0  0  0  0
  7  8  1  0  0  0  0
  7  9  1  0  0  0  0
  7 10  1  0  0  0  0
 10 11  1  0  0  0  0
 10 12  1  0  0  0  0
 10 13  1  0  0  0  0
 13 14  1  0  0  0  0
 13 15  1  0  0  0  0
 13 16  1  0  0  0  0
 16 17  1  0  0  0  0
 16 18  1  0  0  0  0
 16 19  1  0  0  0  0
 19 20  1  0  0  0  0
 19 21  1  0  0  0  0
 19 22  1  0  0  0  0
 22 23  1  0  0  0  0
 22 24  1  0  0  0  0
 22 25  1  0  0  0  0
M  END
> <VM2 Rank>
1

> <Conf_Id>
1130

> <Probability>
22.96

> <Sum Probability>
22.96

> <Delta G>
0.000

> <G>
-7.962

> <E>
-32.361

> <-TS>
24.398

> <U+W>
-52.928

> <U>
5.617

> <W>
-58.543

> <W(PB)>
-61.065

> <W(SA)>
2.522

> <Valence>
7.531

> <Coulomb>
-2.818

> <VdW>
0.904

> <VdW6>
-7.640

> <VdW12>
8.544

> <Bond>
0.115

> <Angle>
2.271

> <Pdih>
5.144

> <Idih>
0.001

> <Tether>
0.000

$$$$
VeraChem MOL file


 25 24  0  0  0  0  0  0  0  0999 V2000     
   19.8608   19.1635   27.5407 C   0  0  0  0  0  0  0  0  0  0  0  0
   20.6744   18.7866   28.3609 O   0  5  0  0  0  0  0  0  0  0  0  0
   18.8683   19.8055   27.8229 O   0  0  0  0  0  0  0  0  0  0  0  0
   20.1116   18.8330   26.0738 C   0  0  0  0  0  0  0  0  0  0  0  0
   19.1370   18.6966   25.5919 H   0  0  0  0  0  0  0  0  0  0  0  0
   20.6360   17.8712   26.0267 H   0  0  0  0  0  0  0  0  0  0  0  0
   20.9340   19.9274   25.3450 C   0  0  0  0  0  0  0  0  0  0  0  0
   20.3778   20.8749   25.3595 H   0  0  0  0  0  0  0  0  0  0  0  0
   21.8618   20.1039   25.9067 H   0  0  0  0  0  0  0  0  0  0  0  0
   21.2997   19.5578   23.8877 C   0  0  0  0  0  0  0  0  0  0  0  0
   21.8647   18.6157   23.8777 H   0  0  0  0  0  0  0  0  0  0  0  0
   21.9744   20.3290   23.4915 H   0  0  0  0  0  0  0  0  0  0  0  0
   20.0709   19.4385   22.9569 C   0  0  0  0  0  0  0  0  0  0  0  0
   19.4214   18.6213   23.2963 H   0  0  0  0  0  0  0  0  0  0  0  0
   19.4792   20.3626   23.0097 H   0  0  0  0  0  0  0  0  0  0  0  0
   20.4875   19.1767   21.4933 C   0  0  0  0  0  0  0  0  0  0  0  0
   21.0826   18.2546   21.4408 H   0  0  0  0  0  0  0  0  0  0  0  0
   21.1327   19.9940   21.1430 H   0  0  0  0  0  0  0  0  0  0  0  0
   19.2628   19.0530   20.5626 C   0  0  0  0  0  0  0  0  0  0  0  0
   18.6159   18.2347   20.9082 H   0  0  0  0  0  0  0  0  0  0  0  0
   18.6658   19.9743   20.6116 H   0  0  0  0  0  0  0  0  0  0  0  0
   19.6830   18.7919   19.1022 C   0  0  0  0  0  0  0  0  0  0  0  0
   20.2556   17.8588   19.0191 H   0  0  0  0  0  0  0  0  0  0  0  0
   18.8005   18.7068   18.4550 H   0  0  0  0  0  0  0  0  0  0  0  0
   20.3057   19.6115   18.7201 H   0  0  0  0  0  0  0  0  0  0  0  0
  1  2  1  0  0  0  0
  1  3  2  0  0  0  0
  1  4  1  0  0  0  0
  4  5  1  0  0  0  0
  4  6  1  0  0  0  0
  4  7  1  0  0  0  0
  7  8  1  0  0  0  0
  7  9  1  0  0  0  0
  7 10  1  0  0  0  0
 10 11  1  0  0  0  0
 10 12  1  0  0  0  0
 10 13  1  0  0  0  0
 13 14  1  0  0  0  0
 13 15  1  0  0  0  0
 13 16  1  0  0  0  0
 16 17  1  0  0  0  0
 16 18  1  0  0  0  0
 16 19  1  0  0  0  0
 19 20  1  0  0  0  0
 19 21  1  0  0  0  0
 19 22  1  0  0  0  0
 22 23  1  0  0  0  0
 22 24  1  0  0  0  0
 22 25  1  0  0  0  0
M  END
> <VM2 Rank>
2

> <Conf_Id>
1266

> <Probability>
5.67

> <Sum Probability>
28.63

> <Delta G>
0.834

> <G>
-7.128

> <E>
-31.637

> <-TS>
24.508

> <U+W>
-52.204

> <U>
6.575

> <W>
-58.780

> <W(PB)>
-61.323

> <W(SA)>
2.543

> <Valence>
8.051

> <Coulomb>
-2.490

> <VdW>
1.015

> <VdW6>
-8.339

> <VdW12>
9.354

> <Bond>
0.157

> <Angle>
2.513

> <Pdih>
5.379

> <Idih>
0.001

> <Tether>
0.000

$$$$
VeraChem MOL file


 25 24  0  0  0  0  0  0  0  0999 V2000     
   20.1317   19.7075   27.5208 C   0  0  0  0  0  0  0  0  0  0  0  0
   20.9466   19.3332   28.3409 O   0  5  0  0  0  0  0  0  0  0  0  0
   19.0296   20.1292   27.8110 O   0  0  0  0  0  0  0  0  0  0  0  0
   20.5036   19.6200   26.0450 C   0  0  0  0  0  0  0  0  0  0  0  0
   21.5852   19.7769   25.9570 H   0  0  0  0  0  0  0  0  0  0  0  0
   20.0108   20.4508   25.5277 H   0  0  0  0  0  0  0  0  0  0  0  0
   20.1055   18.2641   25.4059 C   0  0  0  0  0  0  0  0  0  0  0  0
   20.5405   17.4513   26.0039 H   0  0  0  0  0  0  0  0  0  0  0  0
   19.0152   18.1392   25.4596 H   0  0  0  0  0  0  0  0  0  0  0  0
   20.5781   18.1091   23.9408 C   0  0  0  0  0  0  0  0  0  0  0  0
   20.3582   17.0847   23.6103 H   0  0  0  0  0  0  0  0  0  0  0  0
   21.6696   18.2238   23.8921 H   0  0  0  0  0  0  0  0  0  0  0  0
   19.9055   19.1062   22.9691 C   0  0  0  0  0  0  0  0  0  0  0  0
   18.8135   19.0262   23.0589 H   0  0  0  0  0  0  0  0  0  0  0  0
   20.1758   20.1348   23.2409 H   0  0  0  0  0  0  0  0  0  0  0  0
   20.3224   18.8453   21.5054 C   0  0  0  0  0  0  0  0  0  0  0  0
   20.0491   17.8194   21.2226 H   0  0  0  0  0  0  0  0  0  0  0  0
   21.4148   18.9212   21.4162 H   0  0  0  0  0  0  0  0  0  0  0  0
   19.6558   19.8417   20.5338 C   0  0  0  0  0  0  0  0  0  0  0  0
   18.5628   19.7676   20.6195 H   0  0  0  0  0  0  0  0  0  0  0  0
   19.9288   20.8692   20.8117 H   0  0  0  0  0  0  0  0  0  0  0  0
   20.0743   19.5777   19.0734 C   0  0  0  0  0  0  0  0  0  0  0  0
   19.7846   18.5666   18.7585 H   0  0  0  0  0  0  0  0  0  0  0  0
   19.5914   20.2947   18.3969 H   0  0  0  0  0  0  0  0  0  0  0  0
   21.1610   19.6763   18.9523 H   0  0  0  0  0  0  0  0  0  0  0  0
  1  2  1  0  0  0  0
  1  3  2  0  0  0  0
  1  4  1  0  0  0  0
  4  5  1  0  0  0  0
  4  6  1  0  0  0  0
  4  7  1  0  0  0  0
  7  8  1  0  0  0  0
  7  9  1  0  0  0  0
  7 10  1  0  0  0  0
 10 11  1  0  0  0  0
 10 12  1  0  0  0  0
 10 13  1  0  0  0  0
 13 14  1  0  0  0  0
 13 15  1  0  0  0  0
 13 16  1  0  0  0  0
 16 17  1  0  0  0  0
 16 18  1  0  0  0  0
 16 19  1  0  0  0  0
 19 20  1  0  0  0  0
 19 21  1  0  0  0  0
 19 22  1  0  0  0  0
 22 23  1  0  0  0  0
 22 24  1  0  0  0  0
 22 25  1  0  0  0  0
M  END
> <VM2 Rank>
3

> <Conf_Id>
1028

> <Probability>
5.44

> <Sum Probability>
34.07

> <Delta G>
0.858

> <G>
-7.104

> <E>
-31.613

> <-TS>
24.509

> <U+W>
-52.180

> <U>
6.575

> <W>
-58.756

> <W(PB)>
-61.294

> <W(SA)>
2.538

> <Valence>
8.051

> <Coulomb>
-2.490

> <VdW>
1.015

> <VdW6>
-8.339

> <VdW12>
9.354

> <Bond>
0.157

> <Angle>
2.514

> <Pdih>
5.379

> <Idih>
0.001

> <Tether>
0.000

$$$$
VeraChem MOL file


 25 24  0  0  0  0  0  0  0  0999 V2000     
   20.1309   19.1677   27.7051 C   0  0  0  0  0  0  0  0  0  0  0  0
   21.2280   19.2464   28.2216 O   0  5  0  0  0  0  0  0  0  0  0  0
   19.2296   18.4786   28.1402 O   0  0  0  0  0  0  0  0  0  0  0  0
   19.8786   19.9598   26.4271 C   0  0  0  0  0  0  0  0  0  0  0  0
   20.4682   20.8831   26.4767 H   0  0  0  0  0  0  0  0  0  0  0  0
   18.8214   20.2506   26.4097 H   0  0  0  0  0  0  0  0  0  0  0  0
   20.2358   19.1653   25.1468 C   0  0  0  0  0  0  0  0  0  0  0  0
   21.2937   18.8704   25.1859 H   0  0  0  0  0  0  0  0  0  0  0  0
   19.6471   18.2378   25.1192 H   0  0  0  0  0  0  0  0  0  0  0  0
   19.9717   19.9880   23.8671 C   0  0  0  0  0  0  0  0  0  0  0  0
   20.5605   20.9150   23.8990 H   0  0  0  0  0  0  0  0  0  0  0  0
   18.9136   20.2817   23.8312 H   0  0  0  0  0  0  0  0  0  0  0  0
   20.3288   19.1934   22.5924 C   0  0  0  0  0  0  0  0  0  0  0  0
   21.3875   18.9022   22.6261 H   0  0  0  0  0  0  0  0  0  0  0  0
   19.7414   18.2662   22.5702 H   0  0  0  0  0  0  0  0  0  0  0  0
   20.0604   20.0172   21.3117 C   0  0  0  0  0  0  0  0  0  0  0  0
   20.5993   20.9720   21.3815 H   0  0  0  0  0  0  0  0  0  0  0  0
   18.9923   20.2667   21.2491 H   0  0  0  0  0  0  0  0  0  0  0  0
   20.5005   19.2988   20.0148 C   0  0  0  0  0  0  0  0  0  0  0  0
   20.3857   19.9931   19.1710 H   0  0  0  0  0  0  0  0  0  0  0  0
   21.5700   19.0534   20.0712 H   0  0  0  0  0  0  0  0  0  0  0  0
   19.6887   18.0189   19.7192 C   0  0  0  0  0  0  0  0  0  0  0  0
   18.6128   18.2344   19.6878 H   0  0  0  0  0  0  0  0  0  0  0  0
   19.9773   17.5972   18.7477 H   0  0  0  0  0  0  0  0  0  0  0  0
   19.8638   17.2485   20.4805 H   0  0  0  0  0  0  0  0  0  0  0  0
  1  2  1  0  0  0  0
  1  3  2  0  0  0  0
  1  4  1  0  0  0  0
  4  5  1  0  0  0  0
  4  6  1  0  0  0  0
  4  7  1  0  0  0  0
  7  8  1  0  0  0  0
  7  9  1  0  0  0  0
  7 10  1  0  0  0  0
 10 11  1  0  0  0  0
 10 12  1  0  0  0  0
 10 13  1  0  0  0  0
 13 14  1  0  0  0  0
 13 15  1  0  0  0  0
 13 16  1  0  0  0  0
 16 17  1  0  0  0  0
 16 18  1  0  0  0  0
 16 19  1  0  0  0  0
 19 20  1  0  0  0  0
 19 21  1  0  0  0  0
 19 22  1  0  0  0  0
 22 23  1  0  0  0  0
 22 24  1  0  0  0  0
 22 25  1  0  0  0  0
M  END
> <VM2 Rank>
4

> <Conf_Id>
921

> <Probability>
5.00

> <Sum Probability>
39.06

> <Delta G>
0.909

> <G>
-7.053

> <E>
-31.561

> <-TS>
24.508

> <U+W>
-52.129

> <U>
6.630

> <W>
-58.759

> <W(PB)>
-61.280

> <W(SA)>
2.521

> <Valence>
8.032

> <Coulomb>
-2.441

> <VdW>
1.039

> <VdW6>
-8.257

> <VdW12>
9.295

> <Bond>
0.146

> <Angle>
2.498

> <Pdih>
5.387

> <Idih>
0.001

> <Tether>
0.000

$$$$
VeraChem MOL file


 25 24  0  0  0  0  0  0  0  0999 V2000     
   20.0215   19.1705   27.6698 C   0  0  0  0  0  0  0  0  0  0  0  0
   21.0605   19.2689   28.2924 O   0  5  0  0  0  0  0  0  0  0  0  0
   18.9409   19.5172   28.1041 O   0  0  0  0  0  0  0  0  0  0  0  0
   20.0803   18.6011   26.2569 C   0  0  0  0  0  0  0  0  0  0  0  0
   19.1422   18.0663   26.0659 H   0  0  0  0  0  0  0  0  0  0  0  0
   20.8887   17.8609   26.2213 H   0  0  0  0  0  0  0  0  0  0  0  0
   20.3044   19.6897   25.1786 C   0  0  0  0  0  0  0  0  0  0  0  0
   19.4940   20.4297   25.2359 H   0  0  0  0  0  0  0  0  0  0  0  0
   21.2403   20.2244   25.3922 H   0  0  0  0  0  0  0  0  0  0  0  0
   20.3600   19.0884   23.7574 C   0  0  0  0  0  0  0  0  0  0  0  0
   19.4240   18.5506   23.5583 H   0  0  0  0  0  0  0  0  0  0  0  0
   21.1726   18.3511   23.7025 H   0  0  0  0  0  0  0  0  0  0  0  0
   20.5798   20.1798   22.6845 C   0  0  0  0  0  0  0  0  0  0  0  0
   19.7409   20.8891   22.7001 H   0  0  0  0  0  0  0  0  0  0  0  0
   21.4789   20.7566   22.9413 H   0  0  0  0  0  0  0  0  0  0  0  0
   20.7530   19.6140   21.2548 C   0  0  0  0  0  0  0  0  0  0  0  0
   21.5945   18.9080   21.2379 H   0  0  0  0  0  0  0  0  0  0  0  0
   21.0275   20.4402   20.5847 H   0  0  0  0  0  0  0  0  0  0  0  0
   19.4833   18.9245   20.7062 C   0  0  0  0  0  0  0  0  0  0  0  0
   19.2356   18.0464   21.3168 H   0  0  0  0  0  0  0  0  0  0  0  0
   18.6295   19.6129   20.7728 H   0  0  0  0  0  0  0  0  0  0  0  0
   19.6694   18.4798   19.2414 C   0  0  0  0  0  0  0  0  0  0  0  0
   19.8810   19.3401   18.5929 H   0  0  0  0  0  0  0  0  0  0  0  0
   20.5008   17.7686   19.1498 H   0  0  0  0  0  0  0  0  0  0  0  0
   18.7611   17.9894   18.8677 H   0  0  0  0  0  0  0  0  0  0  0  0
  1  2  1  0  0  0  0
  1  3  2  0  0  0  0
  1  4  1  0  0  0  0
  4  5  1  0  0  0  0
  4  6  1  0  0  0  0
  4  7  1  0  0  0  0
  7  8  1  0  0  0  0
  7  9  1  0  0  0  0
  7 10  1  0  0  0  0
 10 11  1  0  0  0  0
 10 12  1  0  0  0  0
 10 13  1  0  0  0  0
 13 14  1  0  0  0  0
 13 15  1  0  0  0  0
 13 16  1  0  0  0  0
 16 17  1  0  0  0  0
 16 18  1  0  0  0  0
 16 19  1  0  0  0  0
 19 20  1  0  0  0  0
 19 21  1  0  0  0  0
 19 22  1  0  0  0  0
 22 23  1  0  0  0  0
 22 24  1  0  0  0  0
 22 25  1  0  0  0  0
M  END
> <VM2 Rank>
5

> <Conf_Id>
1285

> <Probability>
4.94

> <Sum Probability>
44.00

> <Delta G>
0.916

> <G>
-7.047

> <E>
-31.546

> <-TS>
24.499

> <U+W>
-52.114

> <U>
6.583

> <W>
-58.697

> <W(PB)>
-61.199

> <W(SA)>
2.502

> <Valence>
8.069

> <Coulomb>
-2.516

> <VdW>
1.031

> <VdW6>
-8.305

> <VdW12>
9.335

> <Bond>
0.150

> <Angle>
2.522

> <Pdih>
5.396

> <Idih>
0.001

> <Tether>
0.000

$$$$
VeraChem MOL file


 25 24  0  0  0  0  0  0  0  0999 V2000     
   20.3739   19.6426   27.4433 C   0  0  0  0  0  0  0  0  0  0  0  0
   21.5155   20.0316   27.5914 O   0  5  0  0  0  0  0  0  0  0  0  0
   19.4214   20.1085   28.0369 O   0  0  0  0  0  0  0  0  0  0  0  0
   20.1196   18.5218   26.4416 C   0  0  0  0  0  0  0  0  0  0  0  0
   19.2732   17.9265   26.8047 H   0  0  0  0  0  0  0  0  0  0  0  0
   20.9983   17.8658   26.4341 H   0  0  0  0  0  0  0  0  0  0  0  0
   19.8321   19.0460   25.0131 C   0  0  0  0  0  0  0  0  0  0  0  0
   18.9557   19.7082   25.0393 H   0  0  0  0  0  0  0  0  0  0  0  0
   20.6835   19.6545   24.6808 H   0  0  0  0  0  0  0  0  0  0  0  0
   19.5826   17.8895   24.0174 C   0  0  0  0  0  0  0  0  0  0  0  0
   18.7796   17.2494   24.4077 H   0  0  0  0  0  0  0  0  0  0  0  0
   20.4790   17.2578   23.9508 H   0  0  0  0  0  0  0  0  0  0  0  0
   19.1818   18.3700   22.6024 C   0  0  0  0  0  0  0  0  0  0  0  0
   18.9047   17.4923   22.0027 H   0  0  0  0  0  0  0  0  0  0  0  0
   18.2825   18.9977   22.6681 H   0  0  0  0  0  0  0  0  0  0  0  0
   20.3046   19.1427   21.8721 C   0  0  0  0  0  0  0  0  0  0  0  0
   21.2190   18.5341   21.8562 H   0  0  0  0  0  0  0  0  0  0  0  0
   20.5420   20.0646   22.4186 H   0  0  0  0  0  0  0  0  0  0  0  0
   19.9013   19.5036   20.4268 C   0  0  0  0  0  0  0  0  0  0  0  0
   19.6692   18.5872   19.8666 H   0  0  0  0  0  0  0  0  0  0  0  0
   18.9857   20.1111   20.4388 H   0  0  0  0  0  0  0  0  0  0  0  0
   21.0203   20.2775   19.7010 C   0  0  0  0  0  0  0  0  0  0  0  0
   21.2509   21.2157   20.2224 H   0  0  0  0  0  0  0  0  0  0  0  0
   21.9399   19.6801   19.6474 H   0  0  0  0  0  0  0  0  0  0  0  0
   20.7169   20.5253   18.6755 H   0  0  0  0  0  0  0  0  0  0  0  0
  1  2  1  0  0  0  0
  1  3  2  0  0  0  0
  1  4  1  0  0  0  0
  4  5  1  0  0  0  0
  4  6  1  0  0  0  0
  4  7  1  0  0  0  0
  7  8  1  0  0  0  0
  7  9  1  0  0  0  0
  7 10  1  0  0  0  0
 10 11  1  0  0  0  0
 10 12  1  0  0  0  0
 10 13  1  0  0  0  0
 13 14  1  0  0  0  0
 13 15  1  0  0  0  0
 13 16  1  0  0  0  0
 16 17  1  0  0  0  0
 16 18  1  0  0  0  0
 16 19  1  0  0  0  0
 19 20  1  0  0  0  0
 19 21  1  0  0  0  0
 19 22  1  0  0  0  0
 22 23  1  0  0  0  0
 22 24  1  0  0  0  0
 22 25  1  0  0  0  0
M  END
> <VM2 Rank>
6

> <Conf_Id>
1286

> <Probability>
4.85

> <Sum Probability>
48.86

> <Delta G>
0.926

> <G>
-7.036

> <E>
-31.542

> <-TS>
24.506

> <U+W>
-52.110

> <U>
7.044

> <W>
-59.153

> <W(PB)>
-61.665

> <W(SA)>
2.511

> <Valence>
8.064

> <Coulomb>
-2.027

> <VdW>
1.007

> <VdW6>
-8.345

> <VdW12>
9.352

> <Bond>
0.151

> <Angle>
2.518

> <Pdih>
5.395

> <Idih>
0.001

> <Tether>
0.000

$$$$
VeraChem MOL file


 25 24  0  0  0  0  0  0  0  0999 V2000     
   19.9015   19.6127   27.4487 C   0  0  0  0  0  0  0  0  0  0  0  0
   20.8008   20.1964   28.0208 O   0  5  0  0  0  0  0  0  0  0  0  0
   18.7235   19.8541   27.6237 O   0  0  0  0  0  0  0  0  0  0  0  0
   20.2726   18.5316   26.4399 C   0  0  0  0  0  0  0  0  0  0  0  0
   19.4841   17.7695   26.4517 H   0  0  0  0  0  0  0  0  0  0  0  0
   21.1956   18.0487   26.7825 H   0  0  0  0  0  0  0  0  0  0  0  0
   20.4585   19.0858   25.0059 C   0  0  0  0  0  0  0  0  0  0  0  0
   19.5295   19.5812   24.6942 H   0  0  0  0  0  0  0  0  0  0  0  0
   21.2445   19.8536   25.0128 H   0  0  0  0  0  0  0  0  0  0  0  0
   20.8291   17.9686   24.0030 C   0  0  0  0  0  0  0  0  0  0  0  0
   20.0186   17.2285   23.9562 H   0  0  0  0  0  0  0  0  0  0  0  0
   21.7155   17.4358   24.3737 H   0  0  0  0  0  0  0  0  0  0  0  0
   21.1333   18.4939   22.5799 C   0  0  0  0  0  0  0  0  0  0  0  0
   21.9473   19.2303   22.6258 H   0  0  0  0  0  0  0  0  0  0  0  0
   21.5053   17.6574   21.9726 H   0  0  0  0  0  0  0  0  0  0  0  0
   19.9053   19.1174   21.8767 C   0  0  0  0  0  0  0  0  0  0  0  0
   19.5659   20.0027   22.4299 H   0  0  0  0  0  0  0  0  0  0  0  0
   19.0751   18.3979   21.8811 H   0  0  0  0  0  0  0  0  0  0  0  0
   20.2263   19.5242   20.4230 C   0  0  0  0  0  0  0  0  0  0  0  0
   21.0578   20.2425   20.4148 H   0  0  0  0  0  0  0  0  0  0  0  0
   20.5593   18.6436   19.8563 H   0  0  0  0  0  0  0  0  0  0  0  0
   19.0021   20.1494   19.7244 C   0  0  0  0  0  0  0  0  0  0  0  0
   18.6668   21.0518   20.2523 H   0  0  0  0  0  0  0  0  0  0  0  0
   19.2479   20.4321   18.6925 H   0  0  0  0  0  0  0  0  0  0  0  0
   18.1643   19.4405   19.6912 H   0  0  0  0  0  0  0  0  0  0  0  0
  1  2  1  0  0  0  0
  1  3  2  0  0  0  0
  1  4  1  0  0  0  0
  4  5  1  0  0  0  0
  4  6  1  0  0  0  0
  4  7  1  0  0  0  0
  7  8  1  0  0  0  0
  7  9  1  0  0  0  0
  7 10  1  0  0  0  0
 10 11  1  0  0  0  0
 10 12  1  0  0  0  0
 10 13  1  0  0  0  0
 13 14  1  0  0  0  0
 13 15  1  0  0  0  0
 13 16  1  0  0  0  0
 16 17  1  0  0  0  0
 16 18  1  0  0  0  0
 16 19  1  0  0  0  0
 19 20  1  0  0  0  0
 19 21  1  0  0  0  0
 19 22  1  0  0  0  0
 22 23  1  0  0  0  0
 22 24  1  0  0  0  0
 22 25  1  0  0  0  0
M  END
> <VM2 Rank>
7

> <Conf_Id>
1015

> <Probability>
4.72

> <Sum Probability>
53.58

> <Delta G>
0.943

> <G>
-7.020

> <E>
-31.526

> <-TS>
24.506

> <U+W>
-52.093

> <U>
7.044

> <W>
-59.137

> <W(PB)>
-61.633

> <W(SA)>
2.496

> <Valence>
8.064

> <Coulomb>
-2.027

> <VdW>
1.007

> <VdW6>
-8.345

> <VdW12>
9.352

> <Bond>
0.151

> <Angle>
2.518

> <Pdih>
5.395

> <Idih>
0.001

> <Tether>
0.000

$$$$
VeraChem MOL file


 25 24  0  0  0  0  0  0  0  0999 V2000     
   20.0592   19.4467   27.7000 C   0  0  0  0  0  0  0  0  0  0  0  0
   21.0534   19.9253   28.2089 O   0  5  0  0  0  0  0  0  0  0  0  0
   18.9335   19.6289   28.1198 O   0  0  0  0  0  0  0  0  0  0  0  0
   20.2317   18.5882   26.4520 C   0  0  0  0  0  0  0  0  0  0  0  0
   19.4463   17.8228   26.4539 H   0  0  0  0  0  0  0  0  0  0  0  0
   21.1932   18.0664   26.5278 H   0  0  0  0  0  0  0  0  0  0  0  0
   20.1722   19.4122   25.1423 C   0  0  0  0  0  0  0  0  0  0  0  0
   19.2093   19.9388   25.0883 H   0  0  0  0  0  0  0  0  0  0  0  0
   20.9561   20.1821   25.1619 H   0  0  0  0  0  0  0  0  0  0  0  0
   20.3490   18.5211   23.8938 C   0  0  0  0  0  0  0  0  0  0  0  0
   19.5643   17.7522   23.8772 H   0  0  0  0  0  0  0  0  0  0  0  0
   21.3117   17.9948   23.9520 H   0  0  0  0  0  0  0  0  0  0  0  0
   20.2896   19.3454   22.5896 C   0  0  0  0  0  0  0  0  0  0  0  0
   19.3280   19.8728   22.5410 H   0  0  0  0  0  0  0  0  0  0  0  0
   21.0762   20.1120   22.6040 H   0  0  0  0  0  0  0  0  0  0  0  0
   20.4629   18.4511   21.3401 C   0  0  0  0  0  0  0  0  0  0  0  0
   19.6481   17.7156   21.2954 H   0  0  0  0  0  0  0  0  0  0  0  0
   21.3948   17.8775   21.4377 H   0  0  0  0  0  0  0  0  0  0  0  0
   20.5135   19.2480   20.0157 C   0  0  0  0  0  0  0  0  0  0  0  0
   21.3318   19.9803   20.0543 H   0  0  0  0  0  0  0  0  0  0  0  0
   20.7549   18.5561   19.1971 H   0  0  0  0  0  0  0  0  0  0  0  0
   19.1879   19.9672   19.6839 C   0  0  0  0  0  0  0  0  0  0  0  0
   18.9634   20.7520   20.4169 H   0  0  0  0  0  0  0  0  0  0  0  0
   19.2460   20.4424   18.6961 H   0  0  0  0  0  0  0  0  0  0  0  0
   18.3494   19.2588   19.6693 H   0  0  0  0  0  0  0  0  0  0  0  0
  1  2  1  0  0  0  0
  1  3  2  0  0  0  0
  1  4  1  0  0  0  0
  4  5  1  0  0  0  0
  4  6  1  0  0  0  0
  4  7  1  0  0  0  0
  7  8  1  0  0  0  0
  7  9  1  0  0  0  0
  7 10  1  0  0  0  0
 10 11  1  0  0  0  0
 10 12  1  0  0  0  0
 10 13  1  0  0  0  0
 13 14  1  0  0  0  0
 13 15  1  0  0  0  0
 13 16  1  0  0  0  0
 16 17  1  0  0  0  0
 16 18  1  0  0  0  0
 16 19  1  0  0  0  0
 19 20  1  0  0  0  0
 19 21  1  0  0  0  0
 19 22  1  0  0  0  0
 22 23  1  0  0  0  0
 22 24  1  0  0  0  0
 22 25  1  0  0  0  0
M  END
> <VM2 Rank>
8

> <Conf_Id>
1345

> <Probability>
4.67

> <Sum Probability>
58.25

> <Delta G>
0.950

> <G>
-7.012

> <E>
-31.520

> <-TS>
24.508

> <U+W>
-52.088

> <U>
6.630

> <W>
-58.718

> <W(PB)>
-61.241

> <W(SA)>
2.524

> <Valence>
8.032

> <Coulomb>
-2.441

> <VdW>
1.039

> <VdW6>
-8.257

> <VdW12>
9.295

> <Bond>
0.146

> <Angle>
2.498

> <Pdih>
5.387

> <Idih>
0.001

> <Tether>
0.000

$$$$
