@<TRIPOS>MOLECULE
guest-s22_vm2.mol2 : vm2 ligand conformer 1
          20          19           1
SMALL
USER_CHARGES
 
@<TRIPOS>ATOM
       1    C1      20.445625   18.066084   18.739888 C.2        1 MOL1        -0.2535
       2    H1      20.583810   17.288434   19.488027 H          1 MOL1         0.0845
       3    H2      20.659905   17.797452   17.706877 H          1 MOL1         0.0845
       4    C2      20.033100   19.299508   19.053580 C.2        1 MOL1        -0.1324
       5    H3      19.913216   20.036138   18.259456 H          1 MOL1         0.0833
       6    C3      19.697197   19.819653   20.441251 C.3        1 MOL1        -0.1813
       7    H4      18.664267   20.192716   20.437720 H          1 MOL1         0.0753
       8    H5      20.327074   20.694219   20.652259 H          1 MOL1         0.0753
       9    C4      19.860464   18.789685   21.583394 C.3        1 MOL1        -0.1855
      10    H6      19.216747   17.920854   21.388850 H          1 MOL1         0.0755
      11    H7      20.897585   18.427789   21.605724 H          1 MOL1         0.0755
      12    C5      19.500207   19.396536   22.957063 C.3        1 MOL1        -0.1855
      13    H8      18.463492   19.760650   22.941228 H          1 MOL1         0.0755
      14    H9      20.140900   20.266526   23.157651 H          1 MOL1         0.0755
      15    C6      19.662884   18.367111   24.102445 C.3        1 MOL1        -0.1958
      16    H10     19.019138   17.497364   23.924306 H          1 MOL1         0.0753
      17    H11     20.696634   18.003091   24.140586 H          1 MOL1         0.0753
      18    C7      19.312973   18.942978   25.469897 C.2        1 MOL1         0.6174
      19    O1      20.197237   19.474981   26.111535 O.co2      1 MOL1        -0.6695
      20    O2      18.161312   18.861463   25.848948 O.co2      1 MOL1        -0.6695
@<TRIPOS>BOND
    1     1     2    1
    2     1     3    1
    3     1     4    2
    4     4     5    1
    5     4     6    1
    6     6     7    1
    7     6     8    1
    8     6     9    1
    9     9    10    1
   10     9    11    1
   11     9    12    1
   12    12    13    1
   13    12    14    1
   14    12    15    1
   15    15    16    1
   16    15    17    1
   17    15    18    1
   18    18    19    1
   19    18    20    2
@<TRIPOS>SUBSTRUCTURE
       1 MOL1            1 RESIDUE      1      MOL     
@<SCITEGIC>MOL_PROPERTY
VM2 Rank
SciTegic.value.IntegerValue
1

@<SCITEGIC>MOL_PROPERTY
Conf_Id
SciTegic.value.IntegerValue
423

@<SCITEGIC>MOL_PROPERTY
Probability
SciTegic.value.DoubleValue
13.68

@<SCITEGIC>MOL_PROPERTY
Sum Probability
SciTegic.value.DoubleValue
13.68

@<SCITEGIC>MOL_PROPERTY
Delta G
SciTegic.value.DoubleValue
0.000

@<SCITEGIC>MOL_PROPERTY
G
SciTegic.value.DoubleValue
-21.890

@<SCITEGIC>MOL_PROPERTY
E
SciTegic.value.DoubleValue
-37.139

@<SCITEGIC>MOL_PROPERTY
-TS
SciTegic.value.DoubleValue
15.249

@<SCITEGIC>MOL_PROPERTY
U+W
SciTegic.value.DoubleValue
-53.235

@<SCITEGIC>MOL_PROPERTY
U
SciTegic.value.DoubleValue
6.572

@<SCITEGIC>MOL_PROPERTY
W
SciTegic.value.DoubleValue
-59.803

@<SCITEGIC>MOL_PROPERTY
W(PB)
SciTegic.value.DoubleValue
-62.038

@<SCITEGIC>MOL_PROPERTY
W(SA)
SciTegic.value.DoubleValue
2.234

@<SCITEGIC>MOL_PROPERTY
Valence
SciTegic.value.DoubleValue
7.989

@<SCITEGIC>MOL_PROPERTY
Coulomb
SciTegic.value.DoubleValue
-2.698

@<SCITEGIC>MOL_PROPERTY
VdW
SciTegic.value.DoubleValue
1.281

@<SCITEGIC>MOL_PROPERTY
VdW6
SciTegic.value.DoubleValue
-6.467

@<SCITEGIC>MOL_PROPERTY
VdW12
SciTegic.value.DoubleValue
7.748

@<SCITEGIC>MOL_PROPERTY
Bond
SciTegic.value.DoubleValue
0.136

@<SCITEGIC>MOL_PROPERTY
Angle
SciTegic.value.DoubleValue
2.854

@<SCITEGIC>MOL_PROPERTY
Pdih
SciTegic.value.DoubleValue
4.998

@<SCITEGIC>MOL_PROPERTY
Idih
SciTegic.value.DoubleValue
0.001

@<SCITEGIC>MOL_PROPERTY
Tether
SciTegic.value.DoubleValue
0.000

