VeraChem MOL file


 29 28  0  0  0  0  0  0  0  0999 V2000     
   19.9950   18.9913   18.8122 C   0  0  0  0  0  0  0  0  0  0  0  0
   20.8996   19.6134   18.8050 H   0  0  0  0  0  0  0  0  0  0  0  0
   20.3036   17.9386   18.7677 H   0  0  0  0  0  0  0  0  0  0  0  0
   19.4252   19.2143   17.9009 H   0  0  0  0  0  0  0  0  0  0  0  0
   19.1426   19.2667   20.0690 C   0  0  0  0  0  0  0  0  0  0  0  0
   18.2298   18.6558   20.0314 H   0  0  0  0  0  0  0  0  0  0  0  0
   18.8212   20.3177   20.0684 H   0  0  0  0  0  0  0  0  0  0  0  0
   19.9220   18.9603   21.3669 C   0  0  0  0  0  0  0  0  0  0  0  0
   20.2432   17.9095   21.3619 H   0  0  0  0  0  0  0  0  0  0  0  0
   20.8346   19.5715   21.3990 H   0  0  0  0  0  0  0  0  0  0  0  0
   19.0717   19.2348   22.6277 C   0  0  0  0  0  0  0  0  0  0  0  0
   18.1591   18.6236   22.5948 H   0  0  0  0  0  0  0  0  0  0  0  0
   18.7507   20.2857   22.6319 H   0  0  0  0  0  0  0  0  0  0  0  0
   19.8517   18.9282   23.9260 C   0  0  0  0  0  0  0  0  0  0  0  0
   20.1729   17.8774   23.9214 H   0  0  0  0  0  0  0  0  0  0  0  0
   20.7643   19.5395   23.9585 H   0  0  0  0  0  0  0  0  0  0  0  0
   19.0012   19.2027   25.1867 C   0  0  0  0  0  0  0  0  0  0  0  0
   18.0885   18.5914   25.1547 H   0  0  0  0  0  0  0  0  0  0  0  0
   18.6799   20.2536   25.1918 H   0  0  0  0  0  0  0  0  0  0  0  0
   19.7803   18.8965   26.4847 C   0  0  0  0  0  0  0  0  0  0  0  0
   20.0987   17.8455   26.4858 H   0  0  0  0  0  0  0  0  0  0  0  0
   20.6907   19.5094   26.5230 H   0  0  0  0  0  0  0  0  0  0  0  0
   18.9245   19.1732   27.7332 C   0  0  0  0  0  0  0  0  0  0  0  0
   18.0245   18.5528   27.7077 H   0  0  0  0  0  0  0  0  0  0  0  0
   18.6188   20.2229   27.7450 H   0  0  0  0  0  0  0  0  0  0  0  0
   19.6549   18.8843   29.0286 N   0  3  0  0  0  0  0  0  0  0  0  0
   20.4996   19.4574   29.1268 H   0  0  0  0  0  0  0  0  0  0  0  0
   19.9466   17.9032   29.0920 H   0  0  0  0  0  0  0  0  0  0  0  0
   19.0675   19.0750   29.8479 H   0  0  0  0  0  0  0  0  0  0  0  0
  1  2  1  0  0  0  0
  1  3  1  0  0  0  0
  1  4  1  0  0  0  0
  1  5  1  0  0  0  0
  5  6  1  0  0  0  0
  5  7  1  0  0  0  0
  5  8  1  0  0  0  0
  8  9  1  0  0  0  0
  8 10  1  0  0  0  0
  8 11  1  0  0  0  0
 11 12  1  0  0  0  0
 11 13  1  0  0  0  0
 11 14  1  0  0  0  0
 14 15  1  0  0  0  0
 14 16  1  0  0  0  0
 14 17  1  0  0  0  0
 17 18  1  0  0  0  0
 17 19  1  0  0  0  0
 17 20  1  0  0  0  0
 20 21  1  0  0  0  0
 20 22  1  0  0  0  0
 20 23  1  0  0  0  0
 23 24  1  0  0  0  0
 23 25  1  0  0  0  0
 23 26  1  0  0  0  0
 26 27  1  0  0  0  0
 26 28  1  0  0  0  0
 26 29  1  0  0  0  0
M  END
> <VM2 Rank>
1

> <Conf_Id>
1101

> <Probability>
5.28

> <Sum Probability>
5.28

> <Delta G>
0.000

> <G>
58.146

> <E>
20.962

> <-TS>
37.184

> <U+W>
-3.183

> <U>
47.674

> <W>
-50.852

> <W(PB)>
-53.433

> <W(SA)>
2.581

> <Valence>
2.587

> <Coulomb>
44.357

> <VdW>
0.730

> <VdW6>
-6.901

> <VdW12>
7.631

> <Bond>
0.145

> <Angle>
0.401

> <Pdih>
2.040

> <Idih>
0.000

> <Tether>
0.000

$$$$
VeraChem MOL file


 29 28  0  0  0  0  0  0  0  0999 V2000     
   19.8615   19.1636   18.8954 C   0  0  0  0  0  0  0  0  0  0  0  0
   19.7032   18.0904   18.7269 H   0  0  0  0  0  0  0  0  0  0  0  0
   19.4175   19.7065   18.0508 H   0  0  0  0  0  0  0  0  0  0  0  0
   20.9425   19.3551   18.8885 H   0  0  0  0  0  0  0  0  0  0  0  0
   19.2268   19.6154   20.2277 C   0  0  0  0  0  0  0  0  0  0  0  0
   18.1420   19.4427   20.1917 H   0  0  0  0  0  0  0  0  0  0  0  0
   19.3717   20.6977   20.3521 H   0  0  0  0  0  0  0  0  0  0  0  0
   19.8345   18.8658   21.4338 C   0  0  0  0  0  0  0  0  0  0  0  0
   19.6893   17.7844   21.3039 H   0  0  0  0  0  0  0  0  0  0  0  0
   20.9190   19.0395   21.4643 H   0  0  0  0  0  0  0  0  0  0  0  0
   19.2013   19.3153   22.7698 C   0  0  0  0  0  0  0  0  0  0  0  0
   18.1167   19.1415   22.7384 H   0  0  0  0  0  0  0  0  0  0  0  0
   19.3466   20.3968   22.8988 H   0  0  0  0  0  0  0  0  0  0  0  0
   19.8095   18.5651   23.9761 C   0  0  0  0  0  0  0  0  0  0  0  0
   19.6649   17.4836   23.8459 H   0  0  0  0  0  0  0  0  0  0  0  0
   20.8940   18.7394   24.0076 H   0  0  0  0  0  0  0  0  0  0  0  0
   19.1758   19.0139   25.3121 C   0  0  0  0  0  0  0  0  0  0  0  0
   18.0916   18.8367   25.2817 H   0  0  0  0  0  0  0  0  0  0  0  0
   19.3188   20.0959   25.4347 H   0  0  0  0  0  0  0  0  0  0  0  0
   19.7867   18.2625   26.5184 C   0  0  0  0  0  0  0  0  0  0  0  0
   19.6721   17.1806   26.3688 H   0  0  0  0  0  0  0  0  0  0  0  0
   20.8658   18.4583   26.5766 H   0  0  0  0  0  0  0  0  0  0  0  0
   19.1220   18.6430   27.8553 C   0  0  0  0  0  0  0  0  0  0  0  0
   19.5350   18.0226   28.6554 H   0  0  0  0  0  0  0  0  0  0  0  0
   18.0464   18.4550   27.7983 H   0  0  0  0  0  0  0  0  0  0  0  0
   19.3260   20.0934   28.2465 N   0  3  0  0  0  0  0  0  0  0  0  0
   20.3203   20.3263   28.3387 H   0  0  0  0  0  0  0  0  0  0  0  0
   18.8823   20.3113   29.1455 H   0  0  0  0  0  0  0  0  0  0  0  0
   18.9277   20.7331   27.5520 H   0  0  0  0  0  0  0  0  0  0  0  0
  1  2  1  0  0  0  0
  1  3  1  0  0  0  0
  1  4  1  0  0  0  0
  1  5  1  0  0  0  0
  5  6  1  0  0  0  0
  5  7  1  0  0  0  0
  5  8  1  0  0  0  0
  8  9  1  0  0  0  0
  8 10  1  0  0  0  0
  8 11  1  0  0  0  0
 11 12  1  0  0  0  0
 11 13  1  0  0  0  0
 11 14  1  0  0  0  0
 14 15  1  0  0  0  0
 14 16  1  0  0  0  0
 14 17  1  0  0  0  0
 17 18  1  0  0  0  0
 17 19  1  0  0  0  0
 17 20  1  0  0  0  0
 20 21  1  0  0  0  0
 20 22  1  0  0  0  0
 20 23  1  0  0  0  0
 23 24  1  0  0  0  0
 23 25  1  0  0  0  0
 23 26  1  0  0  0  0
 26 27  1  0  0  0  0
 26 28  1  0  0  0  0
 26 29  1  0  0  0  0
M  END
> <VM2 Rank>
2

> <Conf_Id>
1250

> <Probability>
3.53

> <Sum Probability>
8.81

> <Delta G>
0.240

> <G>
58.386

> <E>
21.098

> <-TS>
37.288

> <U+W>
-3.047

> <U>
48.292

> <W>
-51.339

> <W(PB)>
-53.880

> <W(SA)>
2.541

> <Valence>
2.685

> <Coulomb>
44.768

> <VdW>
0.839

> <VdW6>
-7.428

> <VdW12>
8.267

> <Bond>
0.165

> <Angle>
0.440

> <Pdih>
2.080

> <Idih>
0.000

> <Tether>
0.000

$$$$
VeraChem MOL file


 29 28  0  0  0  0  0  0  0  0999 V2000     
   19.7815   18.9389   18.8904 C   0  0  0  0  0  0  0  0  0  0  0  0
   20.4990   18.1084   18.8608 H   0  0  0  0  0  0  0  0  0  0  0  0
   19.1065   18.8320   18.0314 H   0  0  0  0  0  0  0  0  0  0  0  0
   20.3386   19.8767   18.7667 H   0  0  0  0  0  0  0  0  0  0  0  0
   18.9854   18.9370   20.2126 C   0  0  0  0  0  0  0  0  0  0  0  0
   18.4128   18.0023   20.2920 H   0  0  0  0  0  0  0  0  0  0  0  0
   18.2538   19.7570   20.1987 H   0  0  0  0  0  0  0  0  0  0  0  0
   19.9129   19.0863   21.4387 C   0  0  0  0  0  0  0  0  0  0  0  0
   20.6437   18.2657   21.4472 H   0  0  0  0  0  0  0  0  0  0  0  0
   20.4849   20.0206   21.3537 H   0  0  0  0  0  0  0  0  0  0  0  0
   19.1193   19.0851   22.7647 C   0  0  0  0  0  0  0  0  0  0  0  0
   18.5472   18.1507   22.8487 H   0  0  0  0  0  0  0  0  0  0  0  0
   18.3886   19.9058   22.7554 H   0  0  0  0  0  0  0  0  0  0  0  0
   20.0476   19.2343   23.9911 C   0  0  0  0  0  0  0  0  0  0  0  0
   20.7779   18.4132   24.0003 H   0  0  0  0  0  0  0  0  0  0  0  0
   20.6201   20.1683   23.9058 H   0  0  0  0  0  0  0  0  0  0  0  0
   19.2540   19.2338   25.3170 C   0  0  0  0  0  0  0  0  0  0  0  0
   18.6800   18.3008   25.3945 H   0  0  0  0  0  0  0  0  0  0  0  0
   18.5258   20.0569   25.3090 H   0  0  0  0  0  0  0  0  0  0  0  0
   20.1852   19.3821   26.5434 C   0  0  0  0  0  0  0  0  0  0  0  0
   20.8973   18.5469   26.5785 H   0  0  0  0  0  0  0  0  0  0  0  0
   20.7815   20.2983   26.4385 H   0  0  0  0  0  0  0  0  0  0  0  0
   19.4107   19.4541   27.8734 C   0  0  0  0  0  0  0  0  0  0  0  0
   18.6964   20.2811   27.8393 H   0  0  0  0  0  0  0  0  0  0  0  0
   20.1113   19.6418   28.6916 H   0  0  0  0  0  0  0  0  0  0  0  0
   18.6475   18.1865   28.2038 N   0  3  0  0  0  0  0  0  0  0  0  0
   17.9444   17.9704   27.4902 H   0  0  0  0  0  0  0  0  0  0  0  0
   18.1533   18.2622   29.0997 H   0  0  0  0  0  0  0  0  0  0  0  0
   19.2698   17.3746   28.2723 H   0  0  0  0  0  0  0  0  0  0  0  0
  1  2  1  0  0  0  0
  1  3  1  0  0  0  0
  1  4  1  0  0  0  0
  1  5  1  0  0  0  0
  5  6  1  0  0  0  0
  5  7  1  0  0  0  0
  5  8  1  0  0  0  0
  8  9  1  0  0  0  0
  8 10  1  0  0  0  0
  8 11  1  0  0  0  0
 11 12  1  0  0  0  0
 11 13  1  0  0  0  0
 11 14  1  0  0  0  0
 14 15  1  0  0  0  0
 14 16  1  0  0  0  0
 14 17  1  0  0  0  0
 17 18  1  0  0  0  0
 17 19  1  0  0  0  0
 17 20  1  0  0  0  0
 20 21  1  0  0  0  0
 20 22  1  0  0  0  0
 20 23  1  0  0  0  0
 23 24  1  0  0  0  0
 23 25  1  0  0  0  0
 23 26  1  0  0  0  0
 26 27  1  0  0  0  0
 26 28  1  0  0  0  0
 26 29  1  0  0  0  0
M  END
> <VM2 Rank>
3

> <Conf_Id>
2851

> <Probability>
3.35

> <Sum Probability>
12.16

> <Delta G>
0.271

> <G>
58.417

> <E>
21.129

> <-TS>
37.288

> <U+W>
-3.016

> <U>
48.292

> <W>
-51.308

> <W(PB)>
-53.860

> <W(SA)>
2.552

> <Valence>
2.685

> <Coulomb>
44.768

> <VdW>
0.840

> <VdW6>
-7.428

> <VdW12>
8.268

> <Bond>
0.165

> <Angle>
0.440

> <Pdih>
2.080

> <Idih>
0.000

> <Tether>
0.000

$$$$
VeraChem MOL file


 29 28  0  0  0  0  0  0  0  0999 V2000     
   20.2026   18.4715   19.1139 C   0  0  0  0  0  0  0  0  0  0  0  0
   20.3378   17.3931   19.2691 H   0  0  0  0  0  0  0  0  0  0  0  0
   19.7628   18.6163   18.1186 H   0  0  0  0  0  0  0  0  0  0  0  0
   21.1933   18.9444   19.1168 H   0  0  0  0  0  0  0  0  0  0  0  0
   19.2949   19.0791   20.2042 C   0  0  0  0  0  0  0  0  0  0  0  0
   18.3019   18.6107   20.1547 H   0  0  0  0  0  0  0  0  0  0  0  0
   19.1508   20.1501   20.0035 H   0  0  0  0  0  0  0  0  0  0  0  0
   19.8915   18.8889   21.6163 C   0  0  0  0  0  0  0  0  0  0  0  0
   20.0359   17.8172   21.8114 H   0  0  0  0  0  0  0  0  0  0  0  0
   20.8847   19.3568   21.6603 H   0  0  0  0  0  0  0  0  0  0  0  0
   18.9852   19.4960   22.7109 C   0  0  0  0  0  0  0  0  0  0  0  0
   17.9922   19.0277   22.6663 H   0  0  0  0  0  0  0  0  0  0  0  0
   18.8408   20.5675   22.5143 H   0  0  0  0  0  0  0  0  0  0  0  0
   19.5824   19.3058   24.1234 C   0  0  0  0  0  0  0  0  0  0  0  0
   19.7300   18.2338   24.3109 H   0  0  0  0  0  0  0  0  0  0  0  0
   20.5742   19.7768   24.1680 H   0  0  0  0  0  0  0  0  0  0  0  0
   18.6724   19.9133   25.2176 C   0  0  0  0  0  0  0  0  0  0  0  0
   17.6899   19.4215   25.1981 H   0  0  0  0  0  0  0  0  0  0  0  0
   18.4936   20.9736   24.9910 H   0  0  0  0  0  0  0  0  0  0  0  0
   19.2753   19.8047   26.6378 C   0  0  0  0  0  0  0  0  0  0  0  0
   20.2462   20.3170   26.6667 H   0  0  0  0  0  0  0  0  0  0  0  0
   18.6203   20.3318   27.3442 H   0  0  0  0  0  0  0  0  0  0  0  0
   19.4455   18.3460   27.1018 C   0  0  0  0  0  0  0  0  0  0  0  0
   20.1312   17.8216   26.4314 H   0  0  0  0  0  0  0  0  0  0  0  0
   18.4787   17.8360   27.0743 H   0  0  0  0  0  0  0  0  0  0  0  0
   19.9943   18.2326   28.5092 N   0  3  0  0  0  0  0  0  0  0  0  0
   20.9170   18.6714   28.5957 H   0  0  0  0  0  0  0  0  0  0  0  0
   20.1000   17.2541   28.7993 H   0  0  0  0  0  0  0  0  0  0  0  0
   19.3802   18.6830   29.1959 H   0  0  0  0  0  0  0  0  0  0  0  0
  1  2  1  0  0  0  0
  1  3  1  0  0  0  0
  1  4  1  0  0  0  0
  1  5  1  0  0  0  0
  5  6  1  0  0  0  0
  5  7  1  0  0  0  0
  5  8  1  0  0  0  0
  8  9  1  0  0  0  0
  8 10  1  0  0  0  0
  8 11  1  0  0  0  0
 11 12  1  0  0  0  0
 11 13  1  0  0  0  0
 11 14  1  0  0  0  0
 14 15  1  0  0  0  0
 14 16  1  0  0  0  0
 14 17  1  0  0  0  0
 17 18  1  0  0  0  0
 17 19  1  0  0  0  0
 17 20  1  0  0  0  0
 20 21  1  0  0  0  0
 20 22  1  0  0  0  0
 20 23  1  0  0  0  0
 23 24  1  0  0  0  0
 23 25  1  0  0  0  0
 23 26  1  0  0  0  0
 26 27  1  0  0  0  0
 26 28  1  0  0  0  0
 26 29  1  0  0  0  0
M  END
> <VM2 Rank>
4

> <Conf_Id>
228

> <Probability>
2.26

> <Sum Probability>
14.42

> <Delta G>
0.507

> <G>
58.653

> <E>
21.369

> <-TS>
37.284

> <U+W>
-2.775

> <U>
48.481

> <W>
-51.256

> <W(PB)>
-53.824

> <W(SA)>
2.568

> <Valence>
2.887

> <Coulomb>
44.809

> <VdW>
0.785

> <VdW6>
-7.506

> <VdW12>
8.292

> <Bond>
0.167

> <Angle>
0.525

> <Pdih>
2.195

> <Idih>
0.000

> <Tether>
0.000

$$$$
VeraChem MOL file


 29 28  0  0  0  0  0  0  0  0999 V2000     
   20.4800   19.2508   19.1313 C   0  0  0  0  0  0  0  0  0  0  0  0
   20.9495   18.2588   19.1016 H   0  0  0  0  0  0  0  0  0  0  0  0
   20.0617   19.4557   18.1373 H   0  0  0  0  0  0  0  0  0  0  0  0
   21.2637   19.9943   19.3272 H   0  0  0  0  0  0  0  0  0  0  0  0
   19.3772   19.3103   20.2094 C   0  0  0  0  0  0  0  0  0  0  0  0
   18.5921   18.5800   19.9685 H   0  0  0  0  0  0  0  0  0  0  0  0
   18.9039   20.3020   20.1924 H   0  0  0  0  0  0  0  0  0  0  0  0
   19.9399   19.0250   21.6193 C   0  0  0  0  0  0  0  0  0  0  0  0
   20.4138   18.0337   21.6309 H   0  0  0  0  0  0  0  0  0  0  0  0
   20.7259   19.7560   21.8547 H   0  0  0  0  0  0  0  0  0  0  0  0
   18.8384   19.0838   22.7017 C   0  0  0  0  0  0  0  0  0  0  0  0
   18.0527   18.3532   22.4649 H   0  0  0  0  0  0  0  0  0  0  0  0
   18.3650   20.0754   22.6897 H   0  0  0  0  0  0  0  0  0  0  0  0
   19.4016   18.7981   24.1121 C   0  0  0  0  0  0  0  0  0  0  0  0
   19.8723   17.8053   24.1240 H   0  0  0  0  0  0  0  0  0  0  0  0
   20.1904   19.5276   24.3397 H   0  0  0  0  0  0  0  0  0  0  0  0
   18.2970   18.8591   25.1940 C   0  0  0  0  0  0  0  0  0  0  0  0
   17.4920   18.1601   24.9282 H   0  0  0  0  0  0  0  0  0  0  0  0
   17.8464   19.8613   25.2079 H   0  0  0  0  0  0  0  0  0  0  0  0
   18.8130   18.5062   26.6088 C   0  0  0  0  0  0  0  0  0  0  0  0
   17.9624   18.4840   27.3030 H   0  0  0  0  0  0  0  0  0  0  0  0
   19.2414   17.4950   26.6038 H   0  0  0  0  0  0  0  0  0  0  0  0
   19.8598   19.5096   27.1277 C   0  0  0  0  0  0  0  0  0  0  0  0
   19.4331   20.5162   27.1340 H   0  0  0  0  0  0  0  0  0  0  0  0
   20.7320   19.5089   26.4690 H   0  0  0  0  0  0  0  0  0  0  0  0
   20.3370   19.1950   28.5307 N   0  3  0  0  0  0  0  0  0  0  0  0
   19.5668   19.2072   29.2076 H   0  0  0  0  0  0  0  0  0  0  0  0
   21.0330   19.8742   28.8577 H   0  0  0  0  0  0  0  0  0  0  0  0
   20.7737   18.2689   28.5867 H   0  0  0  0  0  0  0  0  0  0  0  0
  1  2  1  0  0  0  0
  1  3  1  0  0  0  0
  1  4  1  0  0  0  0
  1  5  1  0  0  0  0
  5  6  1  0  0  0  0
  5  7  1  0  0  0  0
  5  8  1  0  0  0  0
  8  9  1  0  0  0  0
  8 10  1  0  0  0  0
  8 11  1  0  0  0  0
 11 12  1  0  0  0  0
 11 13  1  0  0  0  0
 11 14  1  0  0  0  0
 14 15  1  0  0  0  0
 14 16  1  0  0  0  0
 14 17  1  0  0  0  0
 17 18  1  0  0  0  0
 17 19  1  0  0  0  0
 17 20  1  0  0  0  0
 20 21  1  0  0  0  0
 20 22  1  0  0  0  0
 20 23  1  0  0  0  0
 23 24  1  0  0  0  0
 23 25  1  0  0  0  0
 23 26  1  0  0  0  0
 26 27  1  0  0  0  0
 26 28  1  0  0  0  0
 26 29  1  0  0  0  0
M  END
> <VM2 Rank>
5

> <Conf_Id>
2213

> <Probability>
2.23

> <Sum Probability>
16.65

> <Delta G>
0.515

> <G>
58.661

> <E>
21.378

> <-TS>
37.284

> <U+W>
-2.767

> <U>
48.481

> <W>
-51.248

> <W(PB)>
-53.780

> <W(SA)>
2.532

> <Valence>
2.887

> <Coulomb>
44.809

> <VdW>
0.786

> <VdW6>
-7.506

> <VdW12>
8.292

> <Bond>
0.167

> <Angle>
0.525

> <Pdih>
2.195

> <Idih>
0.000

> <Tether>
0.000

$$$$
VeraChem MOL file


 29 28  0  0  0  0  0  0  0  0999 V2000     
   18.9505   18.2469   19.5329 C   0  0  0  0  0  0  0  0  0  0  0  0
   19.6612   17.4104   19.5505 H   0  0  0  0  0  0  0  0  0  0  0  0
   18.1072   17.9960   20.1882 H   0  0  0  0  0  0  0  0  0  0  0  0
   18.5595   18.3338   18.5109 H   0  0  0  0  0  0  0  0  0  0  0  0
   19.6327   19.5647   19.9648 C   0  0  0  0  0  0  0  0  0  0  0  0
   18.8948   20.3791   19.9680 H   0  0  0  0  0  0  0  0  0  0  0  0
   20.3867   19.8359   19.2127 H   0  0  0  0  0  0  0  0  0  0  0  0
   20.3208   19.4765   21.3483 C   0  0  0  0  0  0  0  0  0  0  0  0
   21.0717   18.6745   21.3339 H   0  0  0  0  0  0  0  0  0  0  0  0
   20.8704   20.4115   21.5244 H   0  0  0  0  0  0  0  0  0  0  0  0
   19.3315   19.2445   22.5153 C   0  0  0  0  0  0  0  0  0  0  0  0
   18.8253   18.2784   22.3896 H   0  0  0  0  0  0  0  0  0  0  0  0
   18.5523   20.0189   22.4949 H   0  0  0  0  0  0  0  0  0  0  0  0
   20.0458   19.2669   23.8855 C   0  0  0  0  0  0  0  0  0  0  0  0
   20.8276   18.4949   23.9037 H   0  0  0  0  0  0  0  0  0  0  0  0
   20.5502   20.2337   24.0208 H   0  0  0  0  0  0  0  0  0  0  0  0
   19.0602   19.0316   25.0522 C   0  0  0  0  0  0  0  0  0  0  0  0
   18.5558   18.0644   24.9180 H   0  0  0  0  0  0  0  0  0  0  0  0
   18.2779   19.8033   25.0339 H   0  0  0  0  0  0  0  0  0  0  0  0
   19.7734   19.0542   26.4219 C   0  0  0  0  0  0  0  0  0  0  0  0
   20.5527   18.2807   26.4460 H   0  0  0  0  0  0  0  0  0  0  0  0
   20.2744   20.0214   26.5622 H   0  0  0  0  0  0  0  0  0  0  0  0
   18.7832   18.8189   27.5760 C   0  0  0  0  0  0  0  0  0  0  0  0
   18.2939   17.8493   27.4494 H   0  0  0  0  0  0  0  0  0  0  0  0
   18.0146   19.5964   27.5661 H   0  0  0  0  0  0  0  0  0  0  0  0
   19.4459   18.8339   28.9382 N   0  3  0  0  0  0  0  0  0  0  0  0
   19.9030   19.7315   29.1306 H   0  0  0  0  0  0  0  0  0  0  0  0
   20.1630   18.1057   29.0221 H   0  0  0  0  0  0  0  0  0  0  0  0
   18.7691   18.6753   29.6928 H   0  0  0  0  0  0  0  0  0  0  0  0
  1  2  1  0  0  0  0
  1  3  1  0  0  0  0
  1  4  1  0  0  0  0
  1  5  1  0  0  0  0
  5  6  1  0  0  0  0
  5  7  1  0  0  0  0
  5  8  1  0  0  0  0
  8  9  1  0  0  0  0
  8 10  1  0  0  0  0
  8 11  1  0  0  0  0
 11 12  1  0  0  0  0
 11 13  1  0  0  0  0
 11 14  1  0  0  0  0
 14 15  1  0  0  0  0
 14 16  1  0  0  0  0
 14 17  1  0  0  0  0
 17 18  1  0  0  0  0
 17 19  1  0  0  0  0
 17 20  1  0  0  0  0
 20 21  1  0  0  0  0
 20 22  1  0  0  0  0
 20 23  1  0  0  0  0
 23 24  1  0  0  0  0
 23 25  1  0  0  0  0
 23 26  1  0  0  0  0
 26 27  1  0  0  0  0
 26 28  1  0  0  0  0
 26 29  1  0  0  0  0
M  END
> <VM2 Rank>
6

> <Conf_Id>
1354

> <Probability>
1.78

> <Sum Probability>
18.43

> <Delta G>
0.647

> <G>
58.793

> <E>
21.498

> <-TS>
37.295

> <U+W>
-2.646

> <U>
48.301

> <W>
-50.947

> <W(PB)>
-53.521

> <W(SA)>
2.574

> <Valence>
3.090

> <Coulomb>
44.344

> <VdW>
0.866

> <VdW6>
-7.521

> <VdW12>
8.387

> <Bond>
0.180

> <Angle>
0.641

> <Pdih>
2.270

> <Idih>
0.000

> <Tether>
0.000

$$$$
VeraChem MOL file


 29 28  0  0  0  0  0  0  0  0999 V2000     
   19.6453   20.1988   19.5764 C   0  0  0  0  0  0  0  0  0  0  0  0
   20.7242   20.3970   19.6170 H   0  0  0  0  0  0  0  0  0  0  0  0
   19.3016   20.4189   18.5574 H   0  0  0  0  0  0  0  0  0  0  0  0
   19.1408   20.8997   20.2529 H   0  0  0  0  0  0  0  0  0  0  0  0
   19.3357   18.7305   19.9462 C   0  0  0  0  0  0  0  0  0  0  0  0
   19.7595   18.0740   19.1734 H   0  0  0  0  0  0  0  0  0  0  0  0
   18.2493   18.5659   19.9277 H   0  0  0  0  0  0  0  0  0  0  0  0
   19.9055   18.3095   21.3222 C   0  0  0  0  0  0  0  0  0  0  0  0
   19.7386   17.2314   21.4535 H   0  0  0  0  0  0  0  0  0  0  0  0
   20.9943   18.4570   21.3290 H   0  0  0  0  0  0  0  0  0  0  0  0
   19.2685   19.0677   22.5114 C   0  0  0  0  0  0  0  0  0  0  0  0
   18.1758   18.9608   22.4714 H   0  0  0  0  0  0  0  0  0  0  0  0
   19.4879   20.1404   22.4312 H   0  0  0  0  0  0  0  0  0  0  0  0
   19.7890   18.5450   23.8694 C   0  0  0  0  0  0  0  0  0  0  0  0
   19.5679   17.4724   23.9592 H   0  0  0  0  0  0  0  0  0  0  0  0
   20.8823   18.6487   23.9071 H   0  0  0  0  0  0  0  0  0  0  0  0
   19.1569   19.3034   25.0583 C   0  0  0  0  0  0  0  0  0  0  0  0
   18.0634   19.2002   25.0205 H   0  0  0  0  0  0  0  0  0  0  0  0
   19.3782   20.3762   24.9696 H   0  0  0  0  0  0  0  0  0  0  0  0
   19.6764   18.7814   26.4158 C   0  0  0  0  0  0  0  0  0  0  0  0
   19.4525   17.7104   26.5106 H   0  0  0  0  0  0  0  0  0  0  0  0
   20.7686   18.8877   26.4596 H   0  0  0  0  0  0  0  0  0  0  0  0
   19.0407   19.5429   27.5921 C   0  0  0  0  0  0  0  0  0  0  0  0
   17.9540   19.4261   27.5622 H   0  0  0  0  0  0  0  0  0  0  0  0
   19.2751   20.6078   27.5111 H   0  0  0  0  0  0  0  0  0  0  0  0
   19.5259   19.0588   28.9432 N   0  3  0  0  0  0  0  0  0  0  0  0
   19.0905   19.5789   29.7130 H   0  0  0  0  0  0  0  0  0  0  0  0
   20.5405   19.1670   29.0459 H   0  0  0  0  0  0  0  0  0  0  0  0
   19.3112   18.0674   29.0934 H   0  0  0  0  0  0  0  0  0  0  0  0
  1  2  1  0  0  0  0
  1  3  1  0  0  0  0
  1  4  1  0  0  0  0
  1  5  1  0  0  0  0
  5  6  1  0  0  0  0
  5  7  1  0  0  0  0
  5  8  1  0  0  0  0
  8  9  1  0  0  0  0
  8 10  1  0  0  0  0
  8 11  1  0  0  0  0
 11 12  1  0  0  0  0
 11 13  1  0  0  0  0
 11 14  1  0  0  0  0
 14 15  1  0  0  0  0
 14 16  1  0  0  0  0
 14 17  1  0  0  0  0
 17 18  1  0  0  0  0
 17 19  1  0  0  0  0
 17 20  1  0  0  0  0
 20 21  1  0  0  0  0
 20 22  1  0  0  0  0
 20 23  1  0  0  0  0
 23 24  1  0  0  0  0
 23 25  1  0  0  0  0
 23 26  1  0  0  0  0
 26 27  1  0  0  0  0
 26 28  1  0  0  0  0
 26 29  1  0  0  0  0
M  END
> <VM2 Rank>
7

> <Conf_Id>
2267

> <Probability>
1.76

> <Sum Probability>
20.19

> <Delta G>
0.654

> <G>
58.800

> <E>
21.506

> <-TS>
37.295

> <U+W>
-2.639

> <U>
48.301

> <W>
-50.940

> <W(PB)>
-53.504

> <W(SA)>
2.565

> <Valence>
3.090

> <Coulomb>
44.344

> <VdW>
0.866

> <VdW6>
-7.521

> <VdW12>
8.387

> <Bond>
0.180

> <Angle>
0.641

> <Pdih>
2.270

> <Idih>
0.000

> <Tether>
0.000

$$$$
VeraChem MOL file


 29 28  0  0  0  0  0  0  0  0999 V2000     
   20.2308   18.4039   19.2510 C   0  0  0  0  0  0  0  0  0  0  0  0
   19.5719   18.9340   18.5509 H   0  0  0  0  0  0  0  0  0  0  0  0
   21.2153   18.8891   19.2282 H   0  0  0  0  0  0  0  0  0  0  0  0
   20.3529   17.3759   18.8859 H   0  0  0  0  0  0  0  0  0  0  0  0
   19.6435   18.4090   20.6783 C   0  0  0  0  0  0  0  0  0  0  0  0
   20.3081   17.8363   21.3386 H   0  0  0  0  0  0  0  0  0  0  0  0
   18.6738   17.8920   20.6750 H   0  0  0  0  0  0  0  0  0  0  0  0
   19.4663   19.8485   21.2163 C   0  0  0  0  0  0  0  0  0  0  0  0
   20.4439   20.3471   21.2696 H   0  0  0  0  0  0  0  0  0  0  0  0
   18.8649   20.4253   20.5001 H   0  0  0  0  0  0  0  0  0  0  0  0
   18.7748   19.9125   22.6003 C   0  0  0  0  0  0  0  0  0  0  0  0
   17.7908   19.4271   22.5423 H   0  0  0  0  0  0  0  0  0  0  0  0
   18.5847   20.9667   22.8449 H   0  0  0  0  0  0  0  0  0  0  0  0
   19.6067   19.2735   23.7381 C   0  0  0  0  0  0  0  0  0  0  0  0
   19.7410   18.2008   23.5472 H   0  0  0  0  0  0  0  0  0  0  0  0
   20.6090   19.7232   23.7568 H   0  0  0  0  0  0  0  0  0  0  0  0
   18.9315   19.4605   25.1156 C   0  0  0  0  0  0  0  0  0  0  0  0
   17.9273   19.0144   25.0960 H   0  0  0  0  0  0  0  0  0  0  0  0
   18.7994   20.5324   25.3184 H   0  0  0  0  0  0  0  0  0  0  0  0
   19.7571   18.8201   26.2531 C   0  0  0  0  0  0  0  0  0  0  0  0
   19.8865   17.7472   26.0576 H   0  0  0  0  0  0  0  0  0  0  0  0
   20.7601   19.2667   26.2787 H   0  0  0  0  0  0  0  0  0  0  0  0
   19.0763   19.0126   27.6195 C   0  0  0  0  0  0  0  0  0  0  0  0
   18.0835   18.5551   27.6040 H   0  0  0  0  0  0  0  0  0  0  0  0
   18.9604   20.0801   27.8261 H   0  0  0  0  0  0  0  0  0  0  0  0
   19.8570   18.3973   28.7628 N   0  3  0  0  0  0  0  0  0  0  0  0
   19.9778   17.3861   28.6422 H   0  0  0  0  0  0  0  0  0  0  0  0
   19.3864   18.5367   29.6638 H   0  0  0  0  0  0  0  0  0  0  0  0
   20.7938   18.8053   28.8488 H   0  0  0  0  0  0  0  0  0  0  0  0
  1  2  1  0  0  0  0
  1  3  1  0  0  0  0
  1  4  1  0  0  0  0
  1  5  1  0  0  0  0
  5  6  1  0  0  0  0
  5  7  1  0  0  0  0
  5  8  1  0  0  0  0
  8  9  1  0  0  0  0
  8 10  1  0  0  0  0
  8 11  1  0  0  0  0
 11 12  1  0  0  0  0
 11 13  1  0  0  0  0
 11 14  1  0  0  0  0
 14 15  1  0  0  0  0
 14 16  1  0  0  0  0
 14 17  1  0  0  0  0
 17 18  1  0  0  0  0
 17 19  1  0  0  0  0
 17 20  1  0  0  0  0
 20 21  1  0  0  0  0
 20 22  1  0  0  0  0
 20 23  1  0  0  0  0
 23 24  1  0  0  0  0
 23 25  1  0  0  0  0
 23 26  1  0  0  0  0
 26 27  1  0  0  0  0
 26 28  1  0  0  0  0
 26 29  1  0  0  0  0
M  END
> <VM2 Rank>
8

> <Conf_Id>
1256

> <Probability>
1.70

> <Sum Probability>
21.90

> <Delta G>
0.674

> <G>
58.820

> <E>
21.536

> <-TS>
37.284

> <U+W>
-2.608

> <U>
48.495

> <W>
-51.103

> <W(PB)>
-53.636

> <W(SA)>
2.533

> <Valence>
3.129

> <Coulomb>
44.512

> <VdW>
0.854

> <VdW6>
-7.566

> <VdW12>
8.420

> <Bond>
0.184

> <Angle>
0.664

> <Pdih>
2.281

> <Idih>
0.000

> <Tether>
0.000

$$$$
