VeraChem MOL file


 20 19  0  0  0  0  0  0  0  0999 V2000     
   20.4456   18.0661   18.7399 C   0  0  0  0  0  0  0  0  0  0  0  0
   20.5838   17.2884   19.4880 H   0  0  0  0  0  0  0  0  0  0  0  0
   20.6599   17.7975   17.7069 H   0  0  0  0  0  0  0  0  0  0  0  0
   20.0331   19.2995   19.0536 C   0  0  0  0  0  0  0  0  0  0  0  0
   19.9132   20.0361   18.2595 H   0  0  0  0  0  0  0  0  0  0  0  0
   19.6972   19.8197   20.4413 C   0  0  0  0  0  0  0  0  0  0  0  0
   18.6643   20.1927   20.4377 H   0  0  0  0  0  0  0  0  0  0  0  0
   20.3271   20.6942   20.6523 H   0  0  0  0  0  0  0  0  0  0  0  0
   19.8605   18.7897   21.5834 C   0  0  0  0  0  0  0  0  0  0  0  0
   19.2167   17.9209   21.3888 H   0  0  0  0  0  0  0  0  0  0  0  0
   20.8976   18.4278   21.6057 H   0  0  0  0  0  0  0  0  0  0  0  0
   19.5002   19.3965   22.9571 C   0  0  0  0  0  0  0  0  0  0  0  0
   18.4635   19.7606   22.9412 H   0  0  0  0  0  0  0  0  0  0  0  0
   20.1409   20.2665   23.1577 H   0  0  0  0  0  0  0  0  0  0  0  0
   19.6629   18.3671   24.1024 C   0  0  0  0  0  0  0  0  0  0  0  0
   19.0191   17.4974   23.9243 H   0  0  0  0  0  0  0  0  0  0  0  0
   20.6966   18.0031   24.1406 H   0  0  0  0  0  0  0  0  0  0  0  0
   19.3130   18.9430   25.4699 C   0  0  0  0  0  0  0  0  0  0  0  0
   20.1972   19.4750   26.1115 O   0  5  0  0  0  0  0  0  0  0  0  0
   18.1613   18.8615   25.8489 O   0  0  0  0  0  0  0  0  0  0  0  0
  1  2  1  0  0  0  0
  1  3  1  0  0  0  0
  1  4  2  0  0  0  0
  4  5  1  0  0  0  0
  4  6  1  0  0  0  0
  6  7  1  0  0  0  0
  6  8  1  0  0  0  0
  6  9  1  0  0  0  0
  9 10  1  0  0  0  0
  9 11  1  0  0  0  0
  9 12  1  0  0  0  0
 12 13  1  0  0  0  0
 12 14  1  0  0  0  0
 12 15  1  0  0  0  0
 15 16  1  0  0  0  0
 15 17  1  0  0  0  0
 15 18  1  0  0  0  0
 18 19  1  0  0  0  0
 18 20  2  0  0  0  0
M  END
> <VM2 Rank>
1

> <Conf_Id>
423

> <Probability>
13.68

> <Sum Probability>
13.68

> <Delta G>
0.000

> <G>
-21.890

> <E>
-37.139

> <-TS>
15.249

> <U+W>
-53.235

> <U>
6.572

> <W>
-59.803

> <W(PB)>
-62.038

> <W(SA)>
2.234

> <Valence>
7.989

> <Coulomb>
-2.698

> <VdW>
1.281

> <VdW6>
-6.467

> <VdW12>
7.748

> <Bond>
0.136

> <Angle>
2.854

> <Pdih>
4.998

> <Idih>
0.001

> <Tether>
0.000

$$$$
