VeraChem MOL file


 26 25  0  0  0  0  0  0  0  0999 V2000     
   20.2414   18.6563   18.8060 C   0  0  0  0  0  0  0  0  0  0  0  0
   19.6046   19.4972   18.5017 H   0  0  0  0  0  0  0  0  0  0  0  0
   21.0557   18.5687   18.0750 H   0  0  0  0  0  0  0  0  0  0  0  0
   19.6424   17.7377   18.7549 H   0  0  0  0  0  0  0  0  0  0  0  0
   20.8051   18.8728   20.2264 C   0  0  0  0  0  0  0  0  0  0  0  0
   21.4264   19.7793   20.2377 H   0  0  0  0  0  0  0  0  0  0  0  0
   21.4642   18.0334   20.4887 H   0  0  0  0  0  0  0  0  0  0  0  0
   19.6785   18.9995   21.2757 C   0  0  0  0  0  0  0  0  0  0  0  0
   19.0208   19.8376   21.0067 H   0  0  0  0  0  0  0  0  0  0  0  0
   19.0592   18.0918   21.2594 H   0  0  0  0  0  0  0  0  0  0  0  0
   20.2389   19.2173   22.6994 C   0  0  0  0  0  0  0  0  0  0  0  0
   20.8549   20.1273   22.7150 H   0  0  0  0  0  0  0  0  0  0  0  0
   20.9000   18.3793   22.9576 H   0  0  0  0  0  0  0  0  0  0  0  0
   19.1076   19.3422   23.7488 C   0  0  0  0  0  0  0  0  0  0  0  0
   18.4279   20.1490   23.4433 H   0  0  0  0  0  0  0  0  0  0  0  0
   18.5119   18.4198   23.7646 H   0  0  0  0  0  0  0  0  0  0  0  0
   19.6331   19.6456   25.1688 C   0  0  1  0  0  0  0  0  0  0  0  0
   20.2419   20.5539   25.1222 H   0  0  0  0  0  0  0  0  0  0  0  0
   18.4605   19.8996   26.1296 C   0  0  0  0  0  0  0  0  0  0  0  0
   17.8446   20.7377   25.7803 H   0  0  0  0  0  0  0  0  0  0  0  0
   18.8276   20.1521   27.1321 H   0  0  0  0  0  0  0  0  0  0  0  0
   17.8173   19.0147   26.2138 H   0  0  0  0  0  0  0  0  0  0  0  0
   20.5229   18.5546   25.6994 N   0  3  0  0  0  0  0  0  0  0  0  0
   20.8769   18.7815   26.6330 H   0  0  0  0  0  0  0  0  0  0  0  0
   20.0217   17.6651   25.7697 H   0  0  0  0  0  0  0  0  0  0  0  0
   21.3337   18.4049   25.0931 H   0  0  0  0  0  0  0  0  0  0  0  0
  1  2  1  0  0  0  0
  1  3  1  0  0  0  0
  1  4  1  0  0  0  0
  1  5  1  0  0  0  0
  5  6  1  0  0  0  0
  5  7  1  0  0  0  0
  5  8  1  0  0  0  0
  8  9  1  0  0  0  0
  8 10  1  0  0  0  0
  8 11  1  0  0  0  0
 11 12  1  0  0  0  0
 11 13  1  0  0  0  0
 11 14  1  0  0  0  0
 14 15  1  0  0  0  0
 14 16  1  0  0  0  0
 14 17  1  0  0  0  0
 17 18  1  0  0  0  0
 17 19  1  0  0  0  0
 19 20  1  0  0  0  0
 19 21  1  0  0  0  0
 19 22  1  0  0  0  0
 17 23  1  0  0  0  0
 23 24  1  0  0  0  0
 23 25  1  0  0  0  0
 23 26  1  0  0  0  0
M  END
> <VM2 Rank>
1

> <Conf_Id>
1163

> <Probability>
17.00

> <Sum Probability>
17.00

> <Delta G>
0.000

> <G>
23.710

> <E>
-8.843

> <-TS>
32.553

> <U+W>
-30.305

> <U>
23.517

> <W>
-53.819

> <W(PB)>
-56.165

> <W(SA)>
2.346

> <Valence>
2.737

> <Coulomb>
19.862

> <VdW>
0.919

> <VdW6>
-6.793

> <VdW12>
7.712

> <Bond>
0.171

> <Angle>
0.873

> <Pdih>
1.693

> <Idih>
0.000

> <Tether>
0.000

$$$$
