VeraChem MOL file


 19 18  0  0  0  0  0  0  0  0999 V2000     
   19.9539   19.2771   25.5145 C   0  0  0  0  0  0  0  0  0  0  0  0
   20.6501   18.4763   26.1064 O   0  5  0  0  0  0  0  0  0  0  0  0
   19.7318   20.4018   25.9167 O   0  0  0  0  0  0  0  0  0  0  0  0
   19.3419   18.8541   24.1837 C   0  0  0  0  0  0  0  0  0  0  0  0
   18.3779   19.3653   24.0741 H   0  0  0  0  0  0  0  0  0  0  0  0
   19.1347   17.7782   24.2304 H   0  0  0  0  0  0  0  0  0  0  0  0
   20.2549   19.1703   22.9735 C   0  0  0  0  0  0  0  0  0  0  0  0
   20.4633   20.2489   22.9483 H   0  0  0  0  0  0  0  0  0  0  0  0
   21.2201   18.6617   23.1046 H   0  0  0  0  0  0  0  0  0  0  0  0
   19.6128   18.7327   21.6394 C   0  0  0  0  0  0  0  0  0  0  0  0
   18.6474   19.2417   21.5120 H   0  0  0  0  0  0  0  0  0  0  0  0
   19.4045   17.6543   21.6682 H   0  0  0  0  0  0  0  0  0  0  0  0
   20.5244   19.0490   20.4356 C   0  0  0  0  0  0  0  0  0  0  0  0
   20.7334   20.1273   20.4021 H   0  0  0  0  0  0  0  0  0  0  0  0
   21.4905   18.5401   20.5584 H   0  0  0  0  0  0  0  0  0  0  0  0
   19.8802   18.6107   19.1052 C   0  0  0  0  0  0  0  0  0  0  0  0
   18.9261   19.1287   18.9413 H   0  0  0  0  0  0  0  0  0  0  0  0
   20.5415   18.8430   18.2602 H   0  0  0  0  0  0  0  0  0  0  0  0
   19.6890   17.5296   19.0988 H   0  0  0  0  0  0  0  0  0  0  0  0
  1  2  1  0  0  0  0
  1  3  2  0  0  0  0
  1  4  1  0  0  0  0
  4  5  1  0  0  0  0
  4  6  1  0  0  0  0
  4  7  1  0  0  0  0
  7  8  1  0  0  0  0
  7  9  1  0  0  0  0
  7 10  1  0  0  0  0
 10 11  1  0  0  0  0
 10 12  1  0  0  0  0
 10 13  1  0  0  0  0
 13 14  1  0  0  0  0
 13 15  1  0  0  0  0
 13 16  1  0  0  0  0
 16 17  1  0  0  0  0
 16 18  1  0  0  0  0
 16 19  1  0  0  0  0
M  END
> <VM2 Rank>
1

> <Conf_Id>
69

> <Probability>
41.09

> <Sum Probability>
41.09

> <Delta G>
0.000

> <G>
-26.151

> <E>
-40.888

> <-TS>
14.737

> <U+W>
-56.091

> <U>
5.975

> <W>
-62.065

> <W(PB)>
-64.218

> <W(SA)>
2.153

> <Valence>
6.673

> <Coulomb>
-1.307

> <VdW>
0.610

> <VdW6>
-5.351

> <VdW12>
5.961

> <Bond>
0.086

> <Angle>
2.253

> <Pdih>
4.333

> <Idih>
0.001

> <Tether>
0.000

$$$$
VeraChem MOL file


 19 18  0  0  0  0  0  0  0  0999 V2000     
   19.8292   19.3145   25.3695 C   0  0  0  0  0  0  0  0  0  0  0  0
   20.1457   18.4558   26.1687 O   0  5  0  0  0  0  0  0  0  0  0  0
   19.7258   20.4915   25.6530 O   0  0  0  0  0  0  0  0  0  0  0  0
   19.5682   18.8951   23.9272 C   0  0  0  0  0  0  0  0  0  0  0  0
   18.7936   19.5563   23.5227 H   0  0  0  0  0  0  0  0  0  0  0  0
   19.1561   17.8789   23.9375 H   0  0  0  0  0  0  0  0  0  0  0  0
   20.8442   18.9457   23.0471 C   0  0  0  0  0  0  0  0  0  0  0  0
   21.2224   19.9765   23.0081 H   0  0  0  0  0  0  0  0  0  0  0  0
   21.6285   18.3456   23.5289 H   0  0  0  0  0  0  0  0  0  0  0  0
   20.6256   18.4141   21.6108 C   0  0  0  0  0  0  0  0  0  0  0  0
   20.2556   17.3804   21.6531 H   0  0  0  0  0  0  0  0  0  0  0  0
   21.5983   18.3753   21.1016 H   0  0  0  0  0  0  0  0  0  0  0  0
   19.6561   19.2805   20.7759 C   0  0  0  0  0  0  0  0  0  0  0  0
   18.6553   19.2710   21.2273 H   0  0  0  0  0  0  0  0  0  0  0  0
   19.9984   20.3246   20.7759 H   0  0  0  0  0  0  0  0  0  0  0  0
   19.5552   18.7749   19.3229 C   0  0  0  0  0  0  0  0  0  0  0  0
   19.1885   17.7405   19.2918 H   0  0  0  0  0  0  0  0  0  0  0  0
   18.8613   19.3981   18.7439 H   0  0  0  0  0  0  0  0  0  0  0  0
   20.5340   18.8069   18.8265 H   0  0  0  0  0  0  0  0  0  0  0  0
  1  2  1  0  0  0  0
  1  3  2  0  0  0  0
  1  4  1  0  0  0  0
  4  5  1  0  0  0  0
  4  6  1  0  0  0  0
  4  7  1  0  0  0  0
  7  8  1  0  0  0  0
  7  9  1  0  0  0  0
  7 10  1  0  0  0  0
 10 11  1  0  0  0  0
 10 12  1  0  0  0  0
 10 13  1  0  0  0  0
 13 14  1  0  0  0  0
 13 15  1  0  0  0  0
 13 16  1  0  0  0  0
 16 17  1  0  0  0  0
 16 18  1  0  0  0  0
 16 19  1  0  0  0  0
M  END
> <VM2 Rank>
2

> <Conf_Id>
319

> <Probability>
11.82

> <Sum Probability>
52.92

> <Delta G>
0.743

> <G>
-25.408

> <E>
-40.254

> <-TS>
14.845

> <U+W>
-55.456

> <U>
6.914

> <W>
-62.370

> <W(PB)>
-64.446

> <W(SA)>
2.076

> <Valence>
7.196

> <Coulomb>
-1.020

> <VdW>
0.738

> <VdW6>
-6.010

> <VdW12>
6.749

> <Bond>
0.126

> <Angle>
2.499

> <Pdih>
4.570

> <Idih>
0.001

> <Tether>
0.000

$$$$
VeraChem MOL file


 19 18  0  0  0  0  0  0  0  0999 V2000     
   20.1747   19.3731   25.3607 C   0  0  0  0  0  0  0  0  0  0  0  0
   20.1982   18.4647   26.1673 O   0  5  0  0  0  0  0  0  0  0  0  0
   19.8984   20.5207   25.6485 O   0  0  0  0  0  0  0  0  0  0  0  0
   20.4875   19.0508   23.9038 C   0  0  0  0  0  0  0  0  0  0  0  0
   21.2110   18.2270   23.8852 H   0  0  0  0  0  0  0  0  0  0  0  0
   20.9803   19.9267   23.4670 H   0  0  0  0  0  0  0  0  0  0  0  0
   19.2240   18.6712   23.0884 C   0  0  0  0  0  0  0  0  0  0  0  0
   18.7057   17.8505   23.6034 H   0  0  0  0  0  0  0  0  0  0  0  0
   18.5262   19.5199   23.0768 H   0  0  0  0  0  0  0  0  0  0  0  0
   19.5341   18.2292   21.6386 C   0  0  0  0  0  0  0  0  0  0  0  0
   18.6043   17.8682   21.1778 H   0  0  0  0  0  0  0  0  0  0  0  0
   20.2252   17.3753   21.6539 H   0  0  0  0  0  0  0  0  0  0  0  0
   20.1218   19.3594   20.7641 C   0  0  0  0  0  0  0  0  0  0  0  0
   19.4553   20.2326   20.7896 H   0  0  0  0  0  0  0  0  0  0  0  0
   21.0910   19.6836   21.1652 H   0  0  0  0  0  0  0  0  0  0  0  0
   20.3114   18.9029   19.3036 C   0  0  0  0  0  0  0  0  0  0  0  0
   20.9962   18.0467   19.2458 H   0  0  0  0  0  0  0  0  0  0  0  0
   19.3534   18.6068   18.8565 H   0  0  0  0  0  0  0  0  0  0  0  0
   20.7319   19.7149   18.6962 H   0  0  0  0  0  0  0  0  0  0  0  0
  1  2  1  0  0  0  0
  1  3  2  0  0  0  0
  1  4  1  0  0  0  0
  4  5  1  0  0  0  0
  4  6  1  0  0  0  0
  4  7  1  0  0  0  0
  7  8  1  0  0  0  0
  7  9  1  0  0  0  0
  7 10  1  0  0  0  0
 10 11  1  0  0  0  0
 10 12  1  0  0  0  0
 10 13  1  0  0  0  0
 13 14  1  0  0  0  0
 13 15  1  0  0  0  0
 13 16  1  0  0  0  0
 16 17  1  0  0  0  0
 16 18  1  0  0  0  0
 16 19  1  0  0  0  0
M  END
> <VM2 Rank>
3

> <Conf_Id>
33

> <Probability>
11.08

> <Sum Probability>
64.00

> <Delta G>
0.781

> <G>
-25.370

> <E>
-40.215

> <-TS>
14.846

> <U+W>
-55.418

> <U>
6.914

> <W>
-62.332

> <W(PB)>
-64.421

> <W(SA)>
2.090

> <Valence>
7.196

> <Coulomb>
-1.020

> <VdW>
0.738

> <VdW6>
-6.010

> <VdW12>
6.748

> <Bond>
0.126

> <Angle>
2.499

> <Pdih>
4.570

> <Idih>
0.001

> <Tether>
0.000

$$$$
VeraChem MOL file


 19 18  0  0  0  0  0  0  0  0999 V2000     
   20.0106   19.3758   25.3743 C   0  0  0  0  0  0  0  0  0  0  0  0
   20.8026   18.7067   26.0078 O   0  5  0  0  0  0  0  0  0  0  0  0
   19.7500   20.5339   25.6333 O   0  0  0  0  0  0  0  0  0  0  0  0
   19.3188   18.7319   24.1779 C   0  0  0  0  0  0  0  0  0  0  0  0
   18.3202   19.1751   24.0821 H   0  0  0  0  0  0  0  0  0  0  0  0
   19.1808   17.6663   24.3972 H   0  0  0  0  0  0  0  0  0  0  0  0
   20.1097   18.9084   22.8581 C   0  0  0  0  0  0  0  0  0  0  0  0
   20.2514   19.9808   22.6695 H   0  0  0  0  0  0  0  0  0  0  0  0
   21.1098   18.4682   22.9730 H   0  0  0  0  0  0  0  0  0  0  0  0
   19.3840   18.2496   21.6623 C   0  0  0  0  0  0  0  0  0  0  0  0
   18.4036   18.7236   21.5170 H   0  0  0  0  0  0  0  0  0  0  0  0
   19.1879   17.1951   21.9001 H   0  0  0  0  0  0  0  0  0  0  0  0
   20.1897   18.3139   20.3443 C   0  0  0  0  0  0  0  0  0  0  0  0
   21.1690   17.8355   20.4840 H   0  0  0  0  0  0  0  0  0  0  0  0
   19.6632   17.7255   19.5802 H   0  0  0  0  0  0  0  0  0  0  0  0
   20.3846   19.7519   19.8170 C   0  0  0  0  0  0  0  0  0  0  0  0
   20.8828   19.7377   18.8389 H   0  0  0  0  0  0  0  0  0  0  0  0
   19.4193   20.2607   19.6972 H   0  0  0  0  0  0  0  0  0  0  0  0
   21.0061   20.3474   20.4973 H   0  0  0  0  0  0  0  0  0  0  0  0
  1  2  1  0  0  0  0
  1  3  2  0  0  0  0
  1  4  1  0  0  0  0
  4  5  1  0  0  0  0
  4  6  1  0  0  0  0
  4  7  1  0  0  0  0
  7  8  1  0  0  0  0
  7  9  1  0  0  0  0
  7 10  1  0  0  0  0
 10 11  1  0  0  0  0
 10 12  1  0  0  0  0
 10 13  1  0  0  0  0
 13 14  1  0  0  0  0
 13 15  1  0  0  0  0
 13 16  1  0  0  0  0
 16 17  1  0  0  0  0
 16 18  1  0  0  0  0
 16 19  1  0  0  0  0
M  END
> <VM2 Rank>
4

> <Conf_Id>
201

> <Probability>
9.42

> <Sum Probability>
73.42

> <Delta G>
0.878

> <G>
-25.273

> <E>
-40.126

> <-TS>
14.853

> <U+W>
-55.328

> <U>
7.244

> <W>
-62.571

> <W(PB)>
-64.666

> <W(SA)>
2.094

> <Valence>
7.174

> <Coulomb>
-0.669

> <VdW>
0.739

> <VdW6>
-5.969

> <VdW12>
6.708

> <Bond>
0.116

> <Angle>
2.481

> <Pdih>
4.576

> <Idih>
0.000

> <Tether>
0.000

$$$$
VeraChem MOL file


 19 18  0  0  0  0  0  0  0  0999 V2000     
   19.8729   19.2877   25.3817 C   0  0  0  0  0  0  0  0  0  0  0  0
   20.1970   18.3193   26.0401 O   0  5  0  0  0  0  0  0  0  0  0  0
   18.9514   20.0230   25.6757 O   0  0  0  0  0  0  0  0  0  0  0  0
   20.6539   19.5859   24.1067 C   0  0  0  0  0  0  0  0  0  0  0  0
   21.6934   19.2734   24.2632 H   0  0  0  0  0  0  0  0  0  0  0  0
   20.6609   20.6723   23.9573 H   0  0  0  0  0  0  0  0  0  0  0  0
   20.0649   18.8797   22.8606 C   0  0  0  0  0  0  0  0  0  0  0  0
   20.0560   17.7940   23.0292 H   0  0  0  0  0  0  0  0  0  0  0  0
   19.0200   19.1930   22.7353 H   0  0  0  0  0  0  0  0  0  0  0  0
   20.8735   19.2025   21.5829 C   0  0  0  0  0  0  0  0  0  0  0  0
   21.9287   18.9485   21.7538 H   0  0  0  0  0  0  0  0  0  0  0  0
   20.8411   20.2831   21.3870 H   0  0  0  0  0  0  0  0  0  0  0  0
   20.3802   18.4359   20.3341 C   0  0  0  0  0  0  0  0  0  0  0  0
   21.0747   18.6288   19.5048 H   0  0  0  0  0  0  0  0  0  0  0  0
   20.4166   17.3542   20.5241 H   0  0  0  0  0  0  0  0  0  0  0  0
   18.9562   18.8381   19.8933 C   0  0  0  0  0  0  0  0  0  0  0  0
   18.6878   18.3335   18.9561 H   0  0  0  0  0  0  0  0  0  0  0  0
   18.2094   18.5581   20.6467 H   0  0  0  0  0  0  0  0  0  0  0  0
   18.8879   19.9209   19.7257 H   0  0  0  0  0  0  0  0  0  0  0  0
  1  2  1  0  0  0  0
  1  3  2  0  0  0  0
  1  4  1  0  0  0  0
  4  5  1  0  0  0  0
  4  6  1  0  0  0  0
  4  7  1  0  0  0  0
  7  8  1  0  0  0  0
  7  9  1  0  0  0  0
  7 10  1  0  0  0  0
 10 11  1  0  0  0  0
 10 12  1  0  0  0  0
 10 13  1  0  0  0  0
 13 14  1  0  0  0  0
 13 15  1  0  0  0  0
 13 16  1  0  0  0  0
 16 17  1  0  0  0  0
 16 18  1  0  0  0  0
 16 19  1  0  0  0  0
M  END
> <VM2 Rank>
5

> <Conf_Id>
269

> <Probability>
9.17

> <Sum Probability>
82.58

> <Delta G>
0.894

> <G>
-25.257

> <E>
-40.109

> <-TS>
14.853

> <U+W>
-55.312

> <U>
7.244

> <W>
-62.556

> <W(PB)>
-64.658

> <W(SA)>
2.103

> <Valence>
7.173

> <Coulomb>
-0.669

> <VdW>
0.739

> <VdW6>
-5.969

> <VdW12>
6.708

> <Bond>
0.116

> <Angle>
2.481

> <Pdih>
4.576

> <Idih>
0.000

> <Tether>
0.000

$$$$
VeraChem MOL file


 19 18  0  0  0  0  0  0  0  0999 V2000     
   20.1397   19.2125   25.1803 C   0  0  0  0  0  0  0  0  0  0  0  0
   20.9105   18.2974   25.3929 O   0  5  0  0  0  0  0  0  0  0  0  0
   20.3192   20.3476   25.5751 O   0  0  0  0  0  0  0  0  0  0  0  0
   18.8655   18.9176   24.3937 C   0  0  0  0  0  0  0  0  0  0  0  0
   18.0325   19.3859   24.9312 H   0  0  0  0  0  0  0  0  0  0  0  0
   18.6857   17.8357   24.4105 H   0  0  0  0  0  0  0  0  0  0  0  0
   18.8927   19.4329   22.9312 C   0  0  0  0  0  0  0  0  0  0  0  0
   17.8955   19.3035   22.4892 H   0  0  0  0  0  0  0  0  0  0  0  0
   19.1020   20.5117   22.9293 H   0  0  0  0  0  0  0  0  0  0  0  0
   19.9351   18.6960   22.0608 C   0  0  0  0  0  0  0  0  0  0  0  0
   19.7294   17.6169   22.0763 H   0  0  0  0  0  0  0  0  0  0  0  0
   20.9383   18.8349   22.4872 H   0  0  0  0  0  0  0  0  0  0  0  0
   19.9231   19.2026   20.6035 C   0  0  0  0  0  0  0  0  0  0  0  0
   18.9231   19.0623   20.1702 H   0  0  0  0  0  0  0  0  0  0  0  0
   20.1310   20.2815   20.5849 H   0  0  0  0  0  0  0  0  0  0  0  0
   20.9641   18.4654   19.7376 C   0  0  0  0  0  0  0  0  0  0  0  0
   21.9783   18.6148   20.1307 H   0  0  0  0  0  0  0  0  0  0  0  0
   20.7614   17.3867   19.7131 H   0  0  0  0  0  0  0  0  0  0  0  0
   20.9424   18.8381   18.7052 H   0  0  0  0  0  0  0  0  0  0  0  0
  1  2  1  0  0  0  0
  1  3  2  0  0  0  0
  1  4  1  0  0  0  0
  4  5  1  0  0  0  0
  4  6  1  0  0  0  0
  4  7  1  0  0  0  0
  7  8  1  0  0  0  0
  7  9  1  0  0  0  0
  7 10  1  0  0  0  0
 10 11  1  0  0  0  0
 10 12  1  0  0  0  0
 10 13  1  0  0  0  0
 13 14  1  0  0  0  0
 13 15  1  0  0  0  0
 13 16  1  0  0  0  0
 16 17  1  0  0  0  0
 16 18  1  0  0  0  0
 16 19  1  0  0  0  0
M  END
> <VM2 Rank>
6

> <Conf_Id>
278

> <Probability>
3.74

> <Sum Probability>
86.32

> <Delta G>
1.429

> <G>
-24.722

> <E>
-39.769

> <-TS>
15.047

> <U+W>
-54.971

> <U>
8.266

> <W>
-63.238

> <W(PB)>
-65.341

> <W(SA)>
2.103

> <Valence>
6.935

> <Coulomb>
0.874

> <VdW>
0.457

> <VdW6>
-6.205

> <VdW12>
6.662

> <Bond>
0.107

> <Angle>
2.420

> <Pdih>
4.407

> <Idih>
0.001

> <Tether>
0.000

$$$$
VeraChem MOL file


 19 18  0  0  0  0  0  0  0  0999 V2000     
   20.0469   19.4069   25.1612 C   0  0  0  0  0  0  0  0  0  0  0  0
   21.0055   18.9084   25.7173 O   0  5  0  0  0  0  0  0  0  0  0  0
   19.8126   20.5992   25.1659 O   0  0  0  0  0  0  0  0  0  0  0  0
   19.0739   18.4808   24.4366 C   0  0  0  0  0  0  0  0  0  0  0  0
   18.1247   19.0118   24.2945 H   0  0  0  0  0  0  0  0  0  0  0  0
   18.8677   17.6353   25.1035 H   0  0  0  0  0  0  0  0  0  0  0  0
   19.5997   17.9514   23.0771 C   0  0  0  0  0  0  0  0  0  0  0  0
   20.5641   17.4477   23.2312 H   0  0  0  0  0  0  0  0  0  0  0  0
   18.9032   17.1917   22.6972 H   0  0  0  0  0  0  0  0  0  0  0  0
   19.7563   19.0710   22.0238 C   0  0  0  0  0  0  0  0  0  0  0  0
   20.4649   19.8269   22.3895 H   0  0  0  0  0  0  0  0  0  0  0  0
   18.7928   19.5798   21.8829 H   0  0  0  0  0  0  0  0  0  0  0  0
   20.2501   18.5174   20.6709 C   0  0  0  0  0  0  0  0  0  0  0  0
   21.2151   18.0101   20.8086 H   0  0  0  0  0  0  0  0  0  0  0  0
   19.5430   17.7635   20.2982 H   0  0  0  0  0  0  0  0  0  0  0  0
   20.4051   19.6368   19.6221 C   0  0  0  0  0  0  0  0  0  0  0  0
   19.4467   20.1412   19.4416 H   0  0  0  0  0  0  0  0  0  0  0  0
   21.1312   20.3896   19.9558 H   0  0  0  0  0  0  0  0  0  0  0  0
   20.7572   19.2260   18.6670 H   0  0  0  0  0  0  0  0  0  0  0  0
  1  2  1  0  0  0  0
  1  3  2  0  0  0  0
  1  4  1  0  0  0  0
  4  5  1  0  0  0  0
  4  6  1  0  0  0  0
  4  7  1  0  0  0  0
  7  8  1  0  0  0  0
  7  9  1  0  0  0  0
  7 10  1  0  0  0  0
 10 11  1  0  0  0  0
 10 12  1  0  0  0  0
 10 13  1  0  0  0  0
 13 14  1  0  0  0  0
 13 15  1  0  0  0  0
 13 16  1  0  0  0  0
 16 17  1  0  0  0  0
 16 18  1  0  0  0  0
 16 19  1  0  0  0  0
M  END
> <VM2 Rank>
7

> <Conf_Id>
284

> <Probability>
3.73

> <Sum Probability>
90.05

> <Delta G>
1.430

> <G>
-24.721

> <E>
-39.768

> <-TS>
15.047

> <U+W>
-54.970

> <U>
8.266

> <W>
-63.236

> <W(PB)>
-65.331

> <W(SA)>
2.095

> <Valence>
6.935

> <Coulomb>
0.874

> <VdW>
0.457

> <VdW6>
-6.205

> <VdW12>
6.662

> <Bond>
0.107

> <Angle>
2.420

> <Pdih>
4.407

> <Idih>
0.001

> <Tether>
0.000

$$$$
VeraChem MOL file


 19 18  0  0  0  0  0  0  0  0999 V2000     
   20.0073   19.2236   25.5349 C   0  0  0  0  0  0  0  0  0  0  0  0
   19.9566   18.5581   26.5499 O   0  5  0  0  0  0  0  0  0  0  0  0
   20.1008   20.4358   25.5405 O   0  0  0  0  0  0  0  0  0  0  0  0
   19.9481   18.4725   24.2038 C   0  0  0  0  0  0  0  0  0  0  0  0
   19.0189   17.8906   24.1975 H   0  0  0  0  0  0  0  0  0  0  0  0
   20.7765   17.7544   24.1962 H   0  0  0  0  0  0  0  0  0  0  0  0
   20.0163   19.3645   22.9356 C   0  0  0  0  0  0  0  0  0  0  0  0
   19.1872   20.0854   22.9521 H   0  0  0  0  0  0  0  0  0  0  0  0
   20.9465   19.9491   22.9509 H   0  0  0  0  0  0  0  0  0  0  0  0
   19.9504   18.5267   21.6402 C   0  0  0  0  0  0  0  0  0  0  0  0
   19.0198   17.9429   21.6271 H   0  0  0  0  0  0  0  0  0  0  0  0
   20.7801   17.8065   21.6258 H   0  0  0  0  0  0  0  0  0  0  0  0
   20.0183   19.4152   20.3808 C   0  0  0  0  0  0  0  0  0  0  0  0
   19.1888   20.1359   20.3905 H   0  0  0  0  0  0  0  0  0  0  0  0
   20.9490   19.9995   20.3891 H   0  0  0  0  0  0  0  0  0  0  0  0
   19.9522   18.5756   19.0894 C   0  0  0  0  0  0  0  0  0  0  0  0
   19.0159   18.0044   19.0398 H   0  0  0  0  0  0  0  0  0  0  0  0
   20.0017   19.2229   18.2042 H   0  0  0  0  0  0  0  0  0  0  0  0
   20.7893   17.8669   19.0384 H   0  0  0  0  0  0  0  0  0  0  0  0
  1  2  1  0  0  0  0
  1  3  2  0  0  0  0
  1  4  1  0  0  0  0
  4  5  1  0  0  0  0
  4  6  1  0  0  0  0
  4  7  1  0  0  0  0
  7  8  1  0  0  0  0
  7  9  1  0  0  0  0
  7 10  1  0  0  0  0
 10 11  1  0  0  0  0
 10 12  1  0  0  0  0
 10 13  1  0  0  0  0
 13 14  1  0  0  0  0
 13 15  1  0  0  0  0
 13 16  1  0  0  0  0
 16 17  1  0  0  0  0
 16 18  1  0  0  0  0
 16 19  1  0  0  0  0
M  END
> <VM2 Rank>
8

> <Conf_Id>
0

> <Probability>
2.34

> <Sum Probability>
92.40

> <Delta G>
1.708

> <G>
-24.443

> <E>
-39.689

> <-TS>
15.246

> <U+W>
-54.891

> <U>
6.966

> <W>
-61.857

> <W(PB)>
-63.965

> <W(SA)>
2.108

> <Valence>
7.175

> <Coulomb>
-1.360

> <VdW>
1.151

> <VdW6>
-5.641

> <VdW12>
6.792

> <Bond>
0.119

> <Angle>
2.715

> <Pdih>
4.340

> <Idih>
0.000

> <Tether>
0.000

$$$$
