@<TRIPOS>MOLECULE
guest-s15_vm2.mol2 : vm2 ligand conformer 1
          29          28           1
SMALL
USER_CHARGES
 
@<TRIPOS>ATOM
       1    C1      19.530644   19.931337   18.743945 C.3        1 MOL1        -0.2426
       2    H1      18.590593   20.492447   18.825866 H          1 MOL1         0.0959
       3    H2      20.358530   20.652076   18.724070 H          1 MOL1         0.0959
       4    H3      19.523342   19.399796   17.783495 H          1 MOL1         0.0959
       5    C2      19.687730   18.938471   19.915012 C.3        1 MOL1        -0.1410
       6    H4      20.619038   18.368951   19.787685 H          1 MOL1         0.0948
       7    H5      18.864720   18.210552   19.888744 H          1 MOL1         0.0948
       8    C3      19.701054   19.661531   21.279914 C.3        1 MOL1        -0.1435
       9    H6      20.523787   20.389612   21.300575 H          1 MOL1         0.0948
      10    H7      18.769309   20.231144   21.401540 H          1 MOL1         0.0948
      11    C4      19.858363   18.670426   22.455082 C.3        1 MOL1        -0.1435
      12    H8      20.789752   18.100622   22.331374 H          1 MOL1         0.0948
      13    H9      19.035145   17.942852   22.433869 H          1 MOL1         0.0948
      14    C5      19.872391   19.394234   23.820396 C.3        1 MOL1        -0.1435
      15    H10     20.698090   20.119116   23.842060 H          1 MOL1         0.0948
      16    H11     18.941817   19.966133   23.933668 H          1 MOL1         0.0948
      17    C6      20.028855   18.399049   24.995771 C.3        1 MOL1        -0.1500
      18    H12     20.935392   17.800244   24.835371 H          1 MOL1         0.0948
      19    H13     19.185519   17.695664   25.001843 H          1 MOL1         0.0948
      20    C7      20.131391   19.098930   26.368220 C.3        1 MOL1         0.1162
      21    H14     20.961915   19.810519   26.329201 H          1 MOL1         0.0910
      22    C8      20.428029   18.070847   27.471559 C.3        1 MOL1        -0.2491
      23    H15     20.538332   18.566007   28.444216 H          1 MOL1         0.0959
      24    H16     19.620749   17.332234   27.553415 H          1 MOL1         0.0959
      25    H17     21.362217   17.534358   27.263634 H          1 MOL1         0.0959
      26    N1      18.897543   19.891176   26.704102 N.4        1 MOL1        -0.5987
      27    H18     18.990990   20.363892   27.607696 H          1 MOL1         0.3605
      28    H19     18.071015   19.289800   26.756528 H          1 MOL1         0.3605
      29    H20     18.712065   20.610424   25.999854 H          1 MOL1         0.3605
@<TRIPOS>BOND
    1     1     2    1
    2     1     3    1
    3     1     4    1
    4     1     5    1
    5     5     6    1
    6     5     7    1
    7     5     8    1
    8     8     9    1
    9     8    10    1
   10     8    11    1
   11    11    12    1
   12    11    13    1
   13    11    14    1
   14    14    15    1
   15    14    16    1
   16    14    17    1
   17    17    18    1
   18    17    19    1
   19    17    20    1
   20    20    21    1
   21    20    22    1
   22    22    23    1
   23    22    24    1
   24    22    25    1
   25    20    26    1
   26    26    27    1
   27    26    28    1
   28    26    29    1
@<TRIPOS>SUBSTRUCTURE
       1 MOL1            1 RESIDUE      1      MOL     
@<SCITEGIC>MOL_PROPERTY
VM2 Rank
SciTegic.value.IntegerValue
1

@<SCITEGIC>MOL_PROPERTY
Conf_Id
SciTegic.value.IntegerValue
1424

@<SCITEGIC>MOL_PROPERTY
Probability
SciTegic.value.DoubleValue
10.38

@<SCITEGIC>MOL_PROPERTY
Sum Probability
SciTegic.value.DoubleValue
10.38

@<SCITEGIC>MOL_PROPERTY
Delta G
SciTegic.value.DoubleValue
0.000

@<SCITEGIC>MOL_PROPERTY
G
SciTegic.value.DoubleValue
33.702

@<SCITEGIC>MOL_PROPERTY
E
SciTegic.value.DoubleValue
-3.682

@<SCITEGIC>MOL_PROPERTY
-TS
SciTegic.value.DoubleValue
37.384

@<SCITEGIC>MOL_PROPERTY
U+W
SciTegic.value.DoubleValue
-27.827

@<SCITEGIC>MOL_PROPERTY
U
SciTegic.value.DoubleValue
23.963

@<SCITEGIC>MOL_PROPERTY
W
SciTegic.value.DoubleValue
-51.788

@<SCITEGIC>MOL_PROPERTY
W(PB)
SciTegic.value.DoubleValue
-54.341

@<SCITEGIC>MOL_PROPERTY
W(SA)
SciTegic.value.DoubleValue
2.554

@<SCITEGIC>MOL_PROPERTY
Valence
SciTegic.value.DoubleValue
3.166

@<SCITEGIC>MOL_PROPERTY
Coulomb
SciTegic.value.DoubleValue
19.734

@<SCITEGIC>MOL_PROPERTY
VdW
SciTegic.value.DoubleValue
1.062

@<SCITEGIC>MOL_PROPERTY
VdW6
SciTegic.value.DoubleValue
-7.938

@<SCITEGIC>MOL_PROPERTY
VdW12
SciTegic.value.DoubleValue
9.001

@<SCITEGIC>MOL_PROPERTY
Bond
SciTegic.value.DoubleValue
0.188

@<SCITEGIC>MOL_PROPERTY
Angle
SciTegic.value.DoubleValue
0.880

@<SCITEGIC>MOL_PROPERTY
Pdih
SciTegic.value.DoubleValue
2.098

@<SCITEGIC>MOL_PROPERTY
Idih
SciTegic.value.DoubleValue
0.000

@<SCITEGIC>MOL_PROPERTY
Tether
SciTegic.value.DoubleValue
0.000

