@<TRIPOS>MOLECULE
guest-s16_vm2.mol2 : vm2 ligand conformer 1
          13          13           1
SMALL
USER_CHARGES
 
@<TRIPOS>ATOM
       1    C1      19.718388   18.988698   20.930846 C.3        1 MOL1        -0.1693
       2    H1      18.784500   19.299602   20.444247 H          1 MOL1         0.0829
       3    H2      20.460412   18.765716   20.154947 H          1 MOL1         0.0829
       4    C2      19.545959   17.907019   22.047792 C.3        1 MOL1        -0.1768
       5    H3      20.463179   17.361627   22.302838 H          1 MOL1         0.0829
       6    H4      18.736001   17.184612   21.898564 H          1 MOL1         0.0829
       7    C3      19.222596   19.106153   22.989444 C.3        1 MOL1         0.1211
       8    H5      18.179059   19.445722   22.936686 H          1 MOL1         0.0786
       9    C4      20.196005   19.925305   22.089272 C.3        1 MOL1        -0.1768
      10    H6      21.255400   19.823641   22.355602 H          1 MOL1         0.0829
      11    H7      19.960945   20.989510   21.978929 H          1 MOL1         0.0829
      12    O1      19.630051   18.947825   24.328646 O.3        1 MOL1        -0.5515
      13    H8      19.029604   18.288951   24.739196 H          1 MOL1         0.3773
@<TRIPOS>BOND
    1     1     2    1
    2     1     3    1
    3     1     4    1
    4     4     5    1
    5     4     6    1
    6     4     7    1
    7     7     8    1
    8     1     9    1
    9     7     9    1
   10     9    10    1
   11     9    11    1
   12     7    12    1
   13    12    13    1
@<TRIPOS>SUBSTRUCTURE
       1 MOL1            1 RESIDUE      1      MOL     
@<SCITEGIC>MOL_PROPERTY
VM2 Rank
SciTegic.value.IntegerValue
1

@<SCITEGIC>MOL_PROPERTY
Conf_Id
SciTegic.value.IntegerValue
19

@<SCITEGIC>MOL_PROPERTY
Probability
SciTegic.value.DoubleValue
32.01

@<SCITEGIC>MOL_PROPERTY
Sum Probability
SciTegic.value.DoubleValue
32.01

@<SCITEGIC>MOL_PROPERTY
Delta G
SciTegic.value.DoubleValue
0.000

@<SCITEGIC>MOL_PROPERTY
G
SciTegic.value.DoubleValue
16.554

@<SCITEGIC>MOL_PROPERTY
E
SciTegic.value.DoubleValue
6.694

@<SCITEGIC>MOL_PROPERTY
-TS
SciTegic.value.DoubleValue
9.860

@<SCITEGIC>MOL_PROPERTY
U+W
SciTegic.value.DoubleValue
-3.142

@<SCITEGIC>MOL_PROPERTY
U
SciTegic.value.DoubleValue
-0.154

@<SCITEGIC>MOL_PROPERTY
W
SciTegic.value.DoubleValue
-2.989

@<SCITEGIC>MOL_PROPERTY
W(PB)
SciTegic.value.DoubleValue
-4.588

@<SCITEGIC>MOL_PROPERTY
W(SA)
SciTegic.value.DoubleValue
1.599

@<SCITEGIC>MOL_PROPERTY
Valence
SciTegic.value.DoubleValue
6.334

@<SCITEGIC>MOL_PROPERTY
Coulomb
SciTegic.value.DoubleValue
-7.439

@<SCITEGIC>MOL_PROPERTY
VdW
SciTegic.value.DoubleValue
0.951

@<SCITEGIC>MOL_PROPERTY
VdW6
SciTegic.value.DoubleValue
-2.120

@<SCITEGIC>MOL_PROPERTY
VdW12
SciTegic.value.DoubleValue
3.072

@<SCITEGIC>MOL_PROPERTY
Bond
SciTegic.value.DoubleValue
0.065

@<SCITEGIC>MOL_PROPERTY
Angle
SciTegic.value.DoubleValue
0.930

@<SCITEGIC>MOL_PROPERTY
Pdih
SciTegic.value.DoubleValue
5.339

@<SCITEGIC>MOL_PROPERTY
Idih
SciTegic.value.DoubleValue
0.000

@<SCITEGIC>MOL_PROPERTY
Tether
SciTegic.value.DoubleValue
0.000

