@<TRIPOS>MOLECULE
guest-s15_vm2.mol2 : vm2 ligand conformer 1
          29          28           1
SMALL
USER_CHARGES
 
@<TRIPOS>ATOM
       1    C1      19.530644   19.931337   18.743945 C.3        1 MOL1        -0.2426
       2    H1      18.590593   20.492447   18.825866 H          1 MOL1         0.0959
       3    H2      20.358530   20.652076   18.724070 H          1 MOL1         0.0959
       4    H3      19.523342   19.399796   17.783495 H          1 MOL1         0.0959
       5    C2      19.687730   18.938471   19.915012 C.3        1 MOL1        -0.1410
       6    H4      20.619038   18.368951   19.787685 H          1 MOL1         0.0948
       7    H5      18.864720   18.210552   19.888744 H          1 MOL1         0.0948
       8    C3      19.701054   19.661531   21.279914 C.3        1 MOL1        -0.1435
       9    H6      20.523787   20.389612   21.300575 H          1 MOL1         0.0948
      10    H7      18.769309   20.231144   21.401540 H          1 MOL1         0.0948
      11    C4      19.858363   18.670426   22.455082 C.3        1 MOL1        -0.1435
      12    H8      20.789752   18.100622   22.331374 H          1 MOL1         0.0948
      13    H9      19.035145   17.942852   22.433869 H          1 MOL1         0.0948
      14    C5      19.872391   19.394234   23.820396 C.3        1 MOL1        -0.1435
      15    H10     20.698090   20.119116   23.842060 H          1 MOL1         0.0948
      16    H11     18.941817   19.966133   23.933668 H          1 MOL1         0.0948
      17    C6      20.028855   18.399049   24.995771 C.3        1 MOL1        -0.1500
      18    H12     20.935392   17.800244   24.835371 H          1 MOL1         0.0948
      19    H13     19.185519   17.695664   25.001843 H          1 MOL1         0.0948
      20    C7      20.131391   19.098930   26.368220 C.3        1 MOL1         0.1162
      21    H14     20.961915   19.810519   26.329201 H          1 MOL1         0.0910
      22    C8      20.428029   18.070847   27.471559 C.3        1 MOL1        -0.2491
      23    H15     20.538332   18.566007   28.444216 H          1 MOL1         0.0959
      24    H16     19.620749   17.332234   27.553415 H          1 MOL1         0.0959
      25    H17     21.362217   17.534358   27.263634 H          1 MOL1         0.0959
      26    N1      18.897543   19.891176   26.704102 N.4        1 MOL1        -0.5987
      27    H18     18.990990   20.363892   27.607696 H          1 MOL1         0.3605
      28    H19     18.071015   19.289800   26.756528 H          1 MOL1         0.3605
      29    H20     18.712065   20.610424   25.999854 H          1 MOL1         0.3605
@<TRIPOS>BOND
    1     1     2    1
    2     1     3    1
    3     1     4    1
    4     1     5    1
    5     5     6    1
    6     5     7    1
    7     5     8    1
    8     8     9    1
    9     8    10    1
   10     8    11    1
   11    11    12    1
   12    11    13    1
   13    11    14    1
   14    14    15    1
   15    14    16    1
   16    14    17    1
   17    17    18    1
   18    17    19    1
   19    17    20    1
   20    20    21    1
   21    20    22    1
   22    22    23    1
   23    22    24    1
   24    22    25    1
   25    20    26    1
   26    26    27    1
   27    26    28    1
   28    26    29    1
@<TRIPOS>SUBSTRUCTURE
       1 MOL1            1 RESIDUE      1      MOL     
@<SCITEGIC>MOL_PROPERTY
VM2 Rank
SciTegic.value.IntegerValue
1

@<SCITEGIC>MOL_PROPERTY
Conf_Id
SciTegic.value.IntegerValue
1424

@<SCITEGIC>MOL_PROPERTY
Probability
SciTegic.value.DoubleValue
10.38

@<SCITEGIC>MOL_PROPERTY
Sum Probability
SciTegic.value.DoubleValue
10.38

@<SCITEGIC>MOL_PROPERTY
Delta G
SciTegic.value.DoubleValue
0.000

@<SCITEGIC>MOL_PROPERTY
G
SciTegic.value.DoubleValue
33.702

@<SCITEGIC>MOL_PROPERTY
E
SciTegic.value.DoubleValue
-3.682

@<SCITEGIC>MOL_PROPERTY
-TS
SciTegic.value.DoubleValue
37.384

@<SCITEGIC>MOL_PROPERTY
U+W
SciTegic.value.DoubleValue
-27.827

@<SCITEGIC>MOL_PROPERTY
U
SciTegic.value.DoubleValue
23.963

@<SCITEGIC>MOL_PROPERTY
W
SciTegic.value.DoubleValue
-51.788

@<SCITEGIC>MOL_PROPERTY
W(PB)
SciTegic.value.DoubleValue
-54.341

@<SCITEGIC>MOL_PROPERTY
W(SA)
SciTegic.value.DoubleValue
2.554

@<SCITEGIC>MOL_PROPERTY
Valence
SciTegic.value.DoubleValue
3.166

@<SCITEGIC>MOL_PROPERTY
Coulomb
SciTegic.value.DoubleValue
19.734

@<SCITEGIC>MOL_PROPERTY
VdW
SciTegic.value.DoubleValue
1.062

@<SCITEGIC>MOL_PROPERTY
VdW6
SciTegic.value.DoubleValue
-7.938

@<SCITEGIC>MOL_PROPERTY
VdW12
SciTegic.value.DoubleValue
9.001

@<SCITEGIC>MOL_PROPERTY
Bond
SciTegic.value.DoubleValue
0.188

@<SCITEGIC>MOL_PROPERTY
Angle
SciTegic.value.DoubleValue
0.880

@<SCITEGIC>MOL_PROPERTY
Pdih
SciTegic.value.DoubleValue
2.098

@<SCITEGIC>MOL_PROPERTY
Idih
SciTegic.value.DoubleValue
0.000

@<SCITEGIC>MOL_PROPERTY
Tether
SciTegic.value.DoubleValue
0.000

@<TRIPOS>MOLECULE
guest-s15_vm2.mol2 : vm2 ligand conformer 2
          29          28           1
SMALL
USER_CHARGES
 
@<TRIPOS>ATOM
       1    C1      19.030797   19.352356   18.849809 C.3        1 MOL1        -0.2426
       2    H1      18.500249   18.391504   18.826685 H          1 MOL1         0.0959
       3    H2      18.285911   20.151887   18.955371 H          1 MOL1         0.0959
       4    H3      19.531886   19.484107   17.882027 H          1 MOL1         0.0959
       5    C2      20.054957   19.392711   20.003637 C.3        1 MOL1        -0.1410
       6    H4      20.592768   20.350895   19.980434 H          1 MOL1         0.0948
       7    H5      20.805409   18.604069   19.852765 H          1 MOL1         0.0948
       8    C3      19.375066   19.209474   21.378442 C.3        1 MOL1        -0.1435
       9    H6      18.624390   19.998631   21.523733 H          1 MOL1         0.0948
      10    H7      18.836905   18.251625   21.395953 H          1 MOL1         0.0948
      11    C4      20.397659   19.249176   22.536398 C.3        1 MOL1        -0.1435
      12    H8      20.935526   20.207187   22.517367 H          1 MOL1         0.0948
      13    H9      21.148120   18.460017   22.389788 H          1 MOL1         0.0948
      14    C5      19.717284   19.065606   23.911759 C.3        1 MOL1        -0.1435
      15    H10     18.967939   19.855940   24.051156 H          1 MOL1         0.0948
      16    H11     19.179034   18.108703   23.919102 H          1 MOL1         0.0948
      17    C6      20.748992   19.103101   25.069146 C.3        1 MOL1        -0.1500
      18    H12     21.313072   20.043709   25.018833 H          1 MOL1         0.0948
      19    H13     21.485372   18.301403   24.924911 H          1 MOL1         0.0948
      20    C7      20.143372   18.972234   26.486630 C.3        1 MOL1         0.1162
      21    H14     20.969354   19.044668   27.200970 H          1 MOL1         0.0910
      22    C8      19.461210   17.609897   26.701199 C.3        1 MOL1        -0.2491
      23    H15     19.163312   17.491446   27.750214 H          1 MOL1         0.0959
      24    H16     18.561073   17.505051   26.083973 H          1 MOL1         0.0959
      25    H17     20.145209   16.788243   26.455003 H          1 MOL1         0.0959
      26    N1      19.206663   20.101446   26.816980 N.4        1 MOL1        -0.5987
      27    H18     19.666527   21.011270   26.719675 H          1 MOL1         0.3605
      28    H19     18.863277   20.033239   27.779323 H          1 MOL1         0.3605
      29    H20     18.391343   20.100065   26.199087 H          1 MOL1         0.3605
@<TRIPOS>BOND
    1     1     2    1
    2     1     3    1
    3     1     4    1
    4     1     5    1
    5     5     6    1
    6     5     7    1
    7     5     8    1
    8     8     9    1
    9     8    10    1
   10     8    11    1
   11    11    12    1
   12    11    13    1
   13    11    14    1
   14    14    15    1
   15    14    16    1
   16    14    17    1
   17    17    18    1
   18    17    19    1
   19    17    20    1
   20    20    21    1
   21    20    22    1
   22    22    23    1
   23    22    24    1
   24    22    25    1
   25    20    26    1
   26    26    27    1
   27    26    28    1
   28    26    29    1
@<TRIPOS>SUBSTRUCTURE
       1 MOL1            1 RESIDUE      1      MOL     
@<SCITEGIC>MOL_PROPERTY
VM2 Rank
SciTegic.value.IntegerValue
2

@<SCITEGIC>MOL_PROPERTY
Conf_Id
SciTegic.value.IntegerValue
1448

@<SCITEGIC>MOL_PROPERTY
Probability
SciTegic.value.DoubleValue
5.09

@<SCITEGIC>MOL_PROPERTY
Sum Probability
SciTegic.value.DoubleValue
15.47

@<SCITEGIC>MOL_PROPERTY
Delta G
SciTegic.value.DoubleValue
0.425

@<SCITEGIC>MOL_PROPERTY
G
SciTegic.value.DoubleValue
34.127

@<SCITEGIC>MOL_PROPERTY
E
SciTegic.value.DoubleValue
-3.403

@<SCITEGIC>MOL_PROPERTY
-TS
SciTegic.value.DoubleValue
37.530

@<SCITEGIC>MOL_PROPERTY
U+W
SciTegic.value.DoubleValue
-27.548

@<SCITEGIC>MOL_PROPERTY
U
SciTegic.value.DoubleValue
24.513

@<SCITEGIC>MOL_PROPERTY
W
SciTegic.value.DoubleValue
-52.061

@<SCITEGIC>MOL_PROPERTY
W(PB)
SciTegic.value.DoubleValue
-54.558

@<SCITEGIC>MOL_PROPERTY
W(SA)
SciTegic.value.DoubleValue
2.497

@<SCITEGIC>MOL_PROPERTY
Valence
SciTegic.value.DoubleValue
3.678

@<SCITEGIC>MOL_PROPERTY
Coulomb
SciTegic.value.DoubleValue
19.662

@<SCITEGIC>MOL_PROPERTY
VdW
SciTegic.value.DoubleValue
1.174

@<SCITEGIC>MOL_PROPERTY
VdW6
SciTegic.value.DoubleValue
-8.569

@<SCITEGIC>MOL_PROPERTY
VdW12
SciTegic.value.DoubleValue
9.743

@<SCITEGIC>MOL_PROPERTY
Bond
SciTegic.value.DoubleValue
0.224

@<SCITEGIC>MOL_PROPERTY
Angle
SciTegic.value.DoubleValue
1.211

@<SCITEGIC>MOL_PROPERTY
Pdih
SciTegic.value.DoubleValue
2.243

@<SCITEGIC>MOL_PROPERTY
Idih
SciTegic.value.DoubleValue
0.000

@<SCITEGIC>MOL_PROPERTY
Tether
SciTegic.value.DoubleValue
0.000

@<TRIPOS>MOLECULE
guest-s15_vm2.mol2 : vm2 ligand conformer 3
          29          28           1
SMALL
USER_CHARGES
 
@<TRIPOS>ATOM
       1    C1      20.203069   19.467344   18.690426 C.3        1 MOL1        -0.2426
       2    H1      20.598506   20.491399   18.704452 H          1 MOL1         0.0959
       3    H2      21.052450   18.773348   18.643788 H          1 MOL1         0.0959
       4    H3      19.616855   19.344935   17.770416 H          1 MOL1         0.0959
       5    C2      19.330224   19.192842   19.933264 C.3        1 MOL1        -0.1410
       6    H4      18.922102   18.174085   19.874359 H          1 MOL1         0.0948
       7    H5      18.471602   19.878893   19.934502 H          1 MOL1         0.0948
       8    C3      20.132034   19.358499   21.243070 C.3        1 MOL1        -0.1435
       9    H6      20.990434   18.672564   21.236049 H          1 MOL1         0.0948
      10    H7      20.539779   20.377475   21.296441 H          1 MOL1         0.0948
      11    C4      19.261264   19.084335   22.489945 C.3        1 MOL1        -0.1435
      12    H8      18.854128   18.065101   22.436049 H          1 MOL1         0.0948
      13    H9      18.402656   19.770067   22.494734 H          1 MOL1         0.0948
      14    C5      20.063809   19.250704   23.800214 C.3        1 MOL1        -0.1435
      15    H10     20.923328   18.567921   23.781338 H          1 MOL1         0.0948
      16    H11     20.466569   20.271563   23.856289 H          1 MOL1         0.0948
      17    C6      19.190220   18.970853   25.047754 C.3        1 MOL1        -0.1500
      18    H12     18.839157   17.930510   25.028356 H          1 MOL1         0.0948
      19    H13     18.293750   19.602771   24.995315 H          1 MOL1         0.0948
      20    C7      19.908594   19.252365   26.387207 C.3        1 MOL1         0.1162
      21    H14     20.285082   20.279702   26.365537 H          1 MOL1         0.0910
      22    C8      21.097229   18.302393   26.619541 C.3        1 MOL1        -0.2491
      23    H15     20.778911   17.252974   26.586203 H          1 MOL1         0.0959
      24    H16     21.878698   18.449107   25.865121 H          1 MOL1         0.0959
      25    H17     21.554225   18.488117   27.599347 H          1 MOL1         0.0959
      26    N1      18.949557   19.176665   27.542578 N.4        1 MOL1        -0.5987
      27    H18     19.412344   19.401278   28.428081 H          1 MOL1         0.3605
      28    H19     18.549865   18.238966   27.636096 H          1 MOL1         0.3605
      29    H20     18.171533   19.833218   27.430627 H          1 MOL1         0.3605
@<TRIPOS>BOND
    1     1     2    1
    2     1     3    1
    3     1     4    1
    4     1     5    1
    5     5     6    1
    6     5     7    1
    7     5     8    1
    8     8     9    1
    9     8    10    1
   10     8    11    1
   11    11    12    1
   12    11    13    1
   13    11    14    1
   14    14    15    1
   15    14    16    1
   16    14    17    1
   17    17    18    1
   18    17    19    1
   19    17    20    1
   20    20    21    1
   21    20    22    1
   22    22    23    1
   23    22    24    1
   24    22    25    1
   25    20    26    1
   26    26    27    1
   27    26    28    1
   28    26    29    1
@<TRIPOS>SUBSTRUCTURE
       1 MOL1            1 RESIDUE      1      MOL     
@<SCITEGIC>MOL_PROPERTY
VM2 Rank
SciTegic.value.IntegerValue
3

@<SCITEGIC>MOL_PROPERTY
Conf_Id
SciTegic.value.IntegerValue
58

@<SCITEGIC>MOL_PROPERTY
Probability
SciTegic.value.DoubleValue
5.07

@<SCITEGIC>MOL_PROPERTY
Sum Probability
SciTegic.value.DoubleValue
20.55

@<SCITEGIC>MOL_PROPERTY
Delta G
SciTegic.value.DoubleValue
0.427

@<SCITEGIC>MOL_PROPERTY
G
SciTegic.value.DoubleValue
34.129

@<SCITEGIC>MOL_PROPERTY
E
SciTegic.value.DoubleValue
-3.270

@<SCITEGIC>MOL_PROPERTY
-TS
SciTegic.value.DoubleValue
37.399

@<SCITEGIC>MOL_PROPERTY
U+W
SciTegic.value.DoubleValue
-27.414

@<SCITEGIC>MOL_PROPERTY
U
SciTegic.value.DoubleValue
24.279

@<SCITEGIC>MOL_PROPERTY
W
SciTegic.value.DoubleValue
-51.694

@<SCITEGIC>MOL_PROPERTY
W(PB)
SciTegic.value.DoubleValue
-54.271

@<SCITEGIC>MOL_PROPERTY
W(SA)
SciTegic.value.DoubleValue
2.577

@<SCITEGIC>MOL_PROPERTY
Valence
SciTegic.value.DoubleValue
3.709

@<SCITEGIC>MOL_PROPERTY
Coulomb
SciTegic.value.DoubleValue
19.380

@<SCITEGIC>MOL_PROPERTY
VdW
SciTegic.value.DoubleValue
1.191

@<SCITEGIC>MOL_PROPERTY
VdW6
SciTegic.value.DoubleValue
-8.093

@<SCITEGIC>MOL_PROPERTY
VdW12
SciTegic.value.DoubleValue
9.284

@<SCITEGIC>MOL_PROPERTY
Bond
SciTegic.value.DoubleValue
0.200

@<SCITEGIC>MOL_PROPERTY
Angle
SciTegic.value.DoubleValue
1.161

@<SCITEGIC>MOL_PROPERTY
Pdih
SciTegic.value.DoubleValue
2.348

@<SCITEGIC>MOL_PROPERTY
Idih
SciTegic.value.DoubleValue
0.000

@<SCITEGIC>MOL_PROPERTY
Tether
SciTegic.value.DoubleValue
0.000

@<TRIPOS>MOLECULE
guest-s15_vm2.mol2 : vm2 ligand conformer 4
          29          28           1
SMALL
USER_CHARGES
 
@<TRIPOS>ATOM
       1    C1      18.828702   18.794358   19.403746 C.3        1 MOL1        -0.2426
       2    H1      18.682856   17.874334   19.983181 H          1 MOL1         0.0959
       3    H2      17.943894   19.430051   19.538060 H          1 MOL1         0.0959
       4    H3      18.881587   18.511952   18.344319 H          1 MOL1         0.0959
       5    C2      20.115677   19.536069   19.830454 C.3        1 MOL1        -0.1410
       6    H4      20.282541   20.378531   19.144761 H          1 MOL1         0.0948
       7    H5      20.981851   18.869588   19.715237 H          1 MOL1         0.0948
       8    C3      20.061502   20.078284   21.279066 C.3        1 MOL1        -0.1435
       9    H6      20.961652   20.682134   21.459054 H          1 MOL1         0.0948
      10    H7      19.205987   20.759726   21.383725 H          1 MOL1         0.0948
      11    C4      19.977001   18.965452   22.351036 C.3        1 MOL1        -0.1435
      12    H8      20.804679   18.256886   22.209371 H          1 MOL1         0.0948
      13    H9      19.045508   18.397574   22.227502 H          1 MOL1         0.0948
      14    C5      20.030745   19.543780   23.783166 C.3        1 MOL1        -0.1435
      15    H10     20.965700   20.105601   23.916848 H          1 MOL1         0.0948
      16    H11     19.206937   20.258154   23.913071 H          1 MOL1         0.0948
      17    C6      19.940773   18.430603   24.855153 C.3        1 MOL1        -0.1500
      18    H12     20.738817   17.698232   24.673883 H          1 MOL1         0.0948
      19    H13     18.990191   17.890612   24.751236 H          1 MOL1         0.0948
      20    C7      20.077500   18.969033   26.295743 C.3        1 MOL1         0.1162
      21    H14     21.019091   19.522155   26.367271 H          1 MOL1         0.0910
      22    C8      20.123695   17.805561   27.298984 C.3        1 MOL1        -0.2491
      23    H15     20.257565   18.179622   28.321512 H          1 MOL1         0.0959
      24    H16     19.197604   17.217884   27.268307 H          1 MOL1         0.0959
      25    H17     20.962338   17.133468   27.078235 H          1 MOL1         0.0959
      26    N1      18.980404   19.932860   26.656652 N.4        1 MOL1        -0.5987
      27    H18     18.965518   20.736391   26.022771 H          1 MOL1         0.3605
      28    H19     19.098080   20.294634   27.607409 H          1 MOL1         0.3605
      29    H20     18.060944   19.485679   26.610151 H          1 MOL1         0.3605
@<TRIPOS>BOND
    1     1     2    1
    2     1     3    1
    3     1     4    1
    4     1     5    1
    5     5     6    1
    6     5     7    1
    7     5     8    1
    8     8     9    1
    9     8    10    1
   10     8    11    1
   11    11    12    1
   12    11    13    1
   13    11    14    1
   14    14    15    1
   15    14    16    1
   16    14    17    1
   17    17    18    1
   18    17    19    1
   19    17    20    1
   20    20    21    1
   21    20    22    1
   22    22    23    1
   23    22    24    1
   24    22    25    1
   25    20    26    1
   26    26    27    1
   27    26    28    1
   28    26    29    1
@<TRIPOS>SUBSTRUCTURE
       1 MOL1            1 RESIDUE      1      MOL     
@<SCITEGIC>MOL_PROPERTY
VM2 Rank
SciTegic.value.IntegerValue
4

@<SCITEGIC>MOL_PROPERTY
Conf_Id
SciTegic.value.IntegerValue
1236

@<SCITEGIC>MOL_PROPERTY
Probability
SciTegic.value.DoubleValue
3.90

@<SCITEGIC>MOL_PROPERTY
Sum Probability
SciTegic.value.DoubleValue
24.45

@<SCITEGIC>MOL_PROPERTY
Delta G
SciTegic.value.DoubleValue
0.583

@<SCITEGIC>MOL_PROPERTY
G
SciTegic.value.DoubleValue
34.285

@<SCITEGIC>MOL_PROPERTY
E
SciTegic.value.DoubleValue
-3.210

@<SCITEGIC>MOL_PROPERTY
-TS
SciTegic.value.DoubleValue
37.496

@<SCITEGIC>MOL_PROPERTY
U+W
SciTegic.value.DoubleValue
-27.355

@<SCITEGIC>MOL_PROPERTY
U
SciTegic.value.DoubleValue
24.589

@<SCITEGIC>MOL_PROPERTY
W
SciTegic.value.DoubleValue
-51.944

@<SCITEGIC>MOL_PROPERTY
W(PB)
SciTegic.value.DoubleValue
-54.479

@<SCITEGIC>MOL_PROPERTY
W(SA)
SciTegic.value.DoubleValue
2.535

@<SCITEGIC>MOL_PROPERTY
Valence
SciTegic.value.DoubleValue
3.670

@<SCITEGIC>MOL_PROPERTY
Coulomb
SciTegic.value.DoubleValue
19.723

@<SCITEGIC>MOL_PROPERTY
VdW
SciTegic.value.DoubleValue
1.196

@<SCITEGIC>MOL_PROPERTY
VdW6
SciTegic.value.DoubleValue
-8.561

@<SCITEGIC>MOL_PROPERTY
VdW12
SciTegic.value.DoubleValue
9.756

@<SCITEGIC>MOL_PROPERTY
Bond
SciTegic.value.DoubleValue
0.223

@<SCITEGIC>MOL_PROPERTY
Angle
SciTegic.value.DoubleValue
1.119

@<SCITEGIC>MOL_PROPERTY
Pdih
SciTegic.value.DoubleValue
2.329

@<SCITEGIC>MOL_PROPERTY
Idih
SciTegic.value.DoubleValue
0.000

@<SCITEGIC>MOL_PROPERTY
Tether
SciTegic.value.DoubleValue
0.000

@<TRIPOS>MOLECULE
guest-s15_vm2.mol2 : vm2 ligand conformer 5
          29          28           1
SMALL
USER_CHARGES
 
@<TRIPOS>ATOM
       1    C1      20.485763   18.897178   19.301329 C.3        1 MOL1        -0.2426
       2    H1      20.354266   18.590382   18.255615 H          1 MOL1         0.0959
       3    H2      21.278485   19.655933   19.331523 H          1 MOL1         0.0959
       4    H3      20.828454   18.018666   19.861894 H          1 MOL1         0.0959
       5    C2      19.161768   19.453868   19.872005 C.3        1 MOL1        -0.1410
       6    H4      18.394096   18.667588   19.858982 H          1 MOL1         0.0948
       7    H5      18.797446   20.250367   19.208212 H          1 MOL1         0.0948
       8    C3      19.301082   20.025683   21.303454 C.3        1 MOL1        -0.1435
       9    H6      20.055020   20.824932   21.307324 H          1 MOL1         0.0948
      10    H7      18.349213   20.497158   21.584402 H          1 MOL1         0.0948
      11    C4      19.667514   18.957212   22.361182 C.3        1 MOL1        -0.1435
      12    H8      20.650721   18.526234   22.131118 H          1 MOL1         0.0948
      13    H9      18.940081   18.134848   22.318990 H          1 MOL1         0.0948
      14    C5      19.694981   19.549228   23.788473 C.3        1 MOL1        -0.1435
      15    H10     20.422664   20.371726   23.829319 H          1 MOL1         0.0948
      16    H11     18.711614   19.980486   24.018291 H          1 MOL1         0.0948
      17    C6      20.064337   18.480606   24.845866 C.3        1 MOL1        -0.1500
      18    H12     21.023939   18.024020   24.568753 H          1 MOL1         0.0948
      19    H13     19.318847   17.674301   24.835265 H          1 MOL1         0.0948
      20    C7      20.182710   19.059993   26.272129 C.3        1 MOL1         0.1162
      21    H14     20.911949   19.875738   26.251557 H          1 MOL1         0.0910
      22    C8      20.689371   17.984016   27.245717 C.3        1 MOL1        -0.2491
      23    H15     19.989798   17.140759   27.304591 H          1 MOL1         0.0959
      24    H16     21.664888   17.596984   26.925823 H          1 MOL1         0.0959
      25    H17     20.810568   18.398768   28.254033 H          1 MOL1         0.0959
      26    N1      18.888475   19.648216   26.763845 N.4        1 MOL1        -0.5987
      27    H18     18.990561   20.044926   27.702389 H          1 MOL1         0.3605
      28    H19     18.150381   18.940567   26.808485 H          1 MOL1         0.3605
      29    H20     18.561024   20.397686   26.148415 H          1 MOL1         0.3605
@<TRIPOS>BOND
    1     1     2    1
    2     1     3    1
    3     1     4    1
    4     1     5    1
    5     5     6    1
    6     5     7    1
    7     5     8    1
    8     8     9    1
    9     8    10    1
   10     8    11    1
   11    11    12    1
   12    11    13    1
   13    11    14    1
   14    14    15    1
   15    14    16    1
   16    14    17    1
   17    17    18    1
   18    17    19    1
   19    17    20    1
   20    20    21    1
   21    20    22    1
   22    22    23    1
   23    22    24    1
   24    22    25    1
   25    20    26    1
   26    26    27    1
   27    26    28    1
   28    26    29    1
@<TRIPOS>SUBSTRUCTURE
       1 MOL1            1 RESIDUE      1      MOL     
@<SCITEGIC>MOL_PROPERTY
VM2 Rank
SciTegic.value.IntegerValue
5

@<SCITEGIC>MOL_PROPERTY
Conf_Id
SciTegic.value.IntegerValue
231

@<SCITEGIC>MOL_PROPERTY
Probability
SciTegic.value.DoubleValue
3.80

@<SCITEGIC>MOL_PROPERTY
Sum Probability
SciTegic.value.DoubleValue
28.25

@<SCITEGIC>MOL_PROPERTY
Delta G
SciTegic.value.DoubleValue
0.599

@<SCITEGIC>MOL_PROPERTY
G
SciTegic.value.DoubleValue
34.301

@<SCITEGIC>MOL_PROPERTY
E
SciTegic.value.DoubleValue
-3.195

@<SCITEGIC>MOL_PROPERTY
-TS
SciTegic.value.DoubleValue
37.495

@<SCITEGIC>MOL_PROPERTY
U+W
SciTegic.value.DoubleValue
-27.339

@<SCITEGIC>MOL_PROPERTY
U
SciTegic.value.DoubleValue
24.573

@<SCITEGIC>MOL_PROPERTY
W
SciTegic.value.DoubleValue
-51.912

@<SCITEGIC>MOL_PROPERTY
W(PB)
SciTegic.value.DoubleValue
-54.449

@<SCITEGIC>MOL_PROPERTY
W(SA)
SciTegic.value.DoubleValue
2.537

@<SCITEGIC>MOL_PROPERTY
Valence
SciTegic.value.DoubleValue
3.669

@<SCITEGIC>MOL_PROPERTY
Coulomb
SciTegic.value.DoubleValue
19.705

@<SCITEGIC>MOL_PROPERTY
VdW
SciTegic.value.DoubleValue
1.199

@<SCITEGIC>MOL_PROPERTY
VdW6
SciTegic.value.DoubleValue
-8.560

@<SCITEGIC>MOL_PROPERTY
VdW12
SciTegic.value.DoubleValue
9.759

@<SCITEGIC>MOL_PROPERTY
Bond
SciTegic.value.DoubleValue
0.223

@<SCITEGIC>MOL_PROPERTY
Angle
SciTegic.value.DoubleValue
1.119

@<SCITEGIC>MOL_PROPERTY
Pdih
SciTegic.value.DoubleValue
2.327

@<SCITEGIC>MOL_PROPERTY
Idih
SciTegic.value.DoubleValue
0.000

@<SCITEGIC>MOL_PROPERTY
Tether
SciTegic.value.DoubleValue
0.000

@<TRIPOS>MOLECULE
guest-s15_vm2.mol2 : vm2 ligand conformer 6
          29          28           1
SMALL
USER_CHARGES
 
@<TRIPOS>ATOM
       1    C1      20.675084   18.987764   19.135391 C.3        1 MOL1        -0.2426
       2    H1      21.275985   18.114448   19.420829 H          1 MOL1         0.0959
       3    H2      20.335773   18.840169   18.101888 H          1 MOL1         0.0959
       4    H3      21.326079   19.871577   19.153502 H          1 MOL1         0.0959
       5    C2      19.470813   19.166585   20.083929 C.3        1 MOL1        -0.1410
       6    H4      18.821414   18.282246   20.019642 H          1 MOL1         0.0948
       7    H5      18.870695   20.025580   19.752476 H          1 MOL1         0.0948
       8    C3      19.921046   19.377203   21.546497 C.3        1 MOL1        -0.1435
       9    H6      20.526946   18.517433   21.860357 H          1 MOL1         0.0948
      10    H7      20.567711   20.263480   21.605861 H          1 MOL1         0.0948
      11    C4      18.713635   19.552099   22.498908 C.3        1 MOL1        -0.1435
      12    H8      18.096488   18.643100   22.486539 H          1 MOL1         0.0948
      13    H9      18.075761   20.362470   22.119678 H          1 MOL1         0.0948
      14    C5      19.114201   19.887779   23.956699 C.3        1 MOL1        -0.1435
      15    H10     19.729167   20.798362   23.968101 H          1 MOL1         0.0948
      16    H11     18.198368   20.126367   24.513131 H          1 MOL1         0.0948
      17    C6      19.869867   18.737959   24.671554 C.3        1 MOL1        -0.1500
      18    H12     20.796835   18.519423   24.127300 H          1 MOL1         0.0948
      19    H13     19.264948   17.821943   24.644050 H          1 MOL1         0.0948
      20    C7      20.234230   19.075118   26.133879 C.3        1 MOL1         0.1162
      21    H14     20.804580   20.009104   26.138692 H          1 MOL1         0.0910
      22    C8      21.116107   17.968148   26.733503 C.3        1 MOL1        -0.2491
      23    H15     21.407747   18.217907   27.761112 H          1 MOL1         0.0959
      24    H16     20.588188   17.006422   26.752009 H          1 MOL1         0.0959
      25    H17     22.035626   17.841986   26.148417 H          1 MOL1         0.0959
      26    N1      19.021017   19.303343   26.993642 N.4        1 MOL1        -0.5987
      27    H18     18.431093   18.468012   27.035418 H          1 MOL1         0.3605
      28    H19     18.446068   20.069720   26.633530 H          1 MOL1         0.3605
      29    H20     19.283030   19.542369   27.954298 H          1 MOL1         0.3605
@<TRIPOS>BOND
    1     1     2    1
    2     1     3    1
    3     1     4    1
    4     1     5    1
    5     5     6    1
    6     5     7    1
    7     5     8    1
    8     8     9    1
    9     8    10    1
   10     8    11    1
   11    11    12    1
   12    11    13    1
   13    11    14    1
   14    14    15    1
   15    14    16    1
   16    14    17    1
   17    17    18    1
   18    17    19    1
   19    17    20    1
   20    20    21    1
   21    20    22    1
   22    22    23    1
   23    22    24    1
   24    22    25    1
   25    20    26    1
   26    26    27    1
   27    26    28    1
   28    26    29    1
@<TRIPOS>SUBSTRUCTURE
       1 MOL1            1 RESIDUE      1      MOL     
@<SCITEGIC>MOL_PROPERTY
VM2 Rank
SciTegic.value.IntegerValue
6

@<SCITEGIC>MOL_PROPERTY
Conf_Id
SciTegic.value.IntegerValue
625

@<SCITEGIC>MOL_PROPERTY
Probability
SciTegic.value.DoubleValue
3.49

@<SCITEGIC>MOL_PROPERTY
Sum Probability
SciTegic.value.DoubleValue
31.74

@<SCITEGIC>MOL_PROPERTY
Delta G
SciTegic.value.DoubleValue
0.650

@<SCITEGIC>MOL_PROPERTY
G
SciTegic.value.DoubleValue
34.353

@<SCITEGIC>MOL_PROPERTY
E
SciTegic.value.DoubleValue
-3.103

@<SCITEGIC>MOL_PROPERTY
-TS
SciTegic.value.DoubleValue
37.456

@<SCITEGIC>MOL_PROPERTY
U+W
SciTegic.value.DoubleValue
-27.248

@<SCITEGIC>MOL_PROPERTY
U
SciTegic.value.DoubleValue
24.710

@<SCITEGIC>MOL_PROPERTY
W
SciTegic.value.DoubleValue
-51.958

@<SCITEGIC>MOL_PROPERTY
W(PB)
SciTegic.value.DoubleValue
-54.511

@<SCITEGIC>MOL_PROPERTY
W(SA)
SciTegic.value.DoubleValue
2.553

@<SCITEGIC>MOL_PROPERTY
Valence
SciTegic.value.DoubleValue
3.735

@<SCITEGIC>MOL_PROPERTY
Coulomb
SciTegic.value.DoubleValue
19.760

@<SCITEGIC>MOL_PROPERTY
VdW
SciTegic.value.DoubleValue
1.216

@<SCITEGIC>MOL_PROPERTY
VdW6
SciTegic.value.DoubleValue
-8.624

@<SCITEGIC>MOL_PROPERTY
VdW12
SciTegic.value.DoubleValue
9.840

@<SCITEGIC>MOL_PROPERTY
Bond
SciTegic.value.DoubleValue
0.236

@<SCITEGIC>MOL_PROPERTY
Angle
SciTegic.value.DoubleValue
1.168

@<SCITEGIC>MOL_PROPERTY
Pdih
SciTegic.value.DoubleValue
2.331

@<SCITEGIC>MOL_PROPERTY
Idih
SciTegic.value.DoubleValue
0.000

@<SCITEGIC>MOL_PROPERTY
Tether
SciTegic.value.DoubleValue
0.000

@<TRIPOS>MOLECULE
guest-s15_vm2.mol2 : vm2 ligand conformer 7
          29          28           1
SMALL
USER_CHARGES
 
@<TRIPOS>ATOM
       1    C1      19.704526   20.025454   19.021299 C.3        1 MOL1        -0.2426
       2    H1      20.461133   20.391535   18.315198 H          1 MOL1         0.0959
       3    H2      19.242350   19.129891   18.585850 H          1 MOL1         0.0959
       4    H3      18.930335   20.798003   19.116391 H          1 MOL1         0.0959
       5    C2      20.343995   19.709757   20.389958 C.3        1 MOL1        -0.1410
       6    H4      20.826796   20.614957   20.784172 H          1 MOL1         0.0948
       7    H5      21.136292   18.959616   20.257853 H          1 MOL1         0.0948
       8    C3      19.299469   19.192068   21.403335 C.3        1 MOL1        -0.1435
       9    H6      18.508605   19.944221   21.530515 H          1 MOL1         0.0948
      10    H7      18.817885   18.289032   21.003315 H          1 MOL1         0.0948
      11    C4      19.936279   18.874333   22.774914 C.3        1 MOL1        -0.1435
      12    H8      20.422315   19.779015   23.163567 H          1 MOL1         0.0948
      13    H9      20.724210   18.119327   22.646283 H          1 MOL1         0.0948
      14    C5      18.887062   18.357849   23.788372 C.3        1 MOL1        -0.1435
      15    H10     18.109058   19.118141   23.938879 H          1 MOL1         0.0948
      16    H11     18.377154   17.482661   23.362465 H          1 MOL1         0.0948
      17    C6      19.503141   17.951447   25.151601 C.3        1 MOL1        -0.1500
      18    H12     20.203481   17.121352   24.988999 H          1 MOL1         0.0948
      19    H13     18.708799   17.559435   25.800620 H          1 MOL1         0.0948
      20    C7      20.240704   19.096418   25.881381 C.3        1 MOL1         0.1162
      21    H14     21.040823   19.461395   25.230743 H          1 MOL1         0.0910
      22    C8      20.878562   18.579361   27.180430 C.3        1 MOL1        -0.2491
      23    H15     20.116584   18.204830   27.875438 H          1 MOL1         0.0959
      24    H16     21.581167   17.763049   26.971315 H          1 MOL1         0.0959
      25    H17     21.436909   19.378418   27.683564 H          1 MOL1         0.0959
      26    N1      19.342262   20.269313   26.162712 N.4        1 MOL1        -0.5987
      27    H18     19.851289   21.029686   26.622409 H          1 MOL1         0.3605
      28    H19     18.565751   20.005276   26.774927 H          1 MOL1         0.3605
      29    H20     18.941090   20.644812   25.299003 H          1 MOL1         0.3605
@<TRIPOS>BOND
    1     1     2    1
    2     1     3    1
    3     1     4    1
    4     1     5    1
    5     5     6    1
    6     5     7    1
    7     5     8    1
    8     8     9    1
    9     8    10    1
   10     8    11    1
   11    11    12    1
   12    11    13    1
   13    11    14    1
   14    14    15    1
   15    14    16    1
   16    14    17    1
   17    17    18    1
   18    17    19    1
   19    17    20    1
   20    20    21    1
   21    20    22    1
   22    22    23    1
   23    22    24    1
   24    22    25    1
   25    20    26    1
   26    26    27    1
   27    26    28    1
   28    26    29    1
@<TRIPOS>SUBSTRUCTURE
       1 MOL1            1 RESIDUE      1      MOL     
@<SCITEGIC>MOL_PROPERTY
VM2 Rank
SciTegic.value.IntegerValue
7

@<SCITEGIC>MOL_PROPERTY
Conf_Id
SciTegic.value.IntegerValue
1296

@<SCITEGIC>MOL_PROPERTY
Probability
SciTegic.value.DoubleValue
3.43

@<SCITEGIC>MOL_PROPERTY
Sum Probability
SciTegic.value.DoubleValue
35.17

@<SCITEGIC>MOL_PROPERTY
Delta G
SciTegic.value.DoubleValue
0.661

@<SCITEGIC>MOL_PROPERTY
G
SciTegic.value.DoubleValue
34.363

@<SCITEGIC>MOL_PROPERTY
E
SciTegic.value.DoubleValue
-3.215

@<SCITEGIC>MOL_PROPERTY
-TS
SciTegic.value.DoubleValue
37.578

@<SCITEGIC>MOL_PROPERTY
U+W
SciTegic.value.DoubleValue
-27.360

@<SCITEGIC>MOL_PROPERTY
U
SciTegic.value.DoubleValue
24.672

@<SCITEGIC>MOL_PROPERTY
W
SciTegic.value.DoubleValue
-52.032

@<SCITEGIC>MOL_PROPERTY
W(PB)
SciTegic.value.DoubleValue
-54.582

@<SCITEGIC>MOL_PROPERTY
W(SA)
SciTegic.value.DoubleValue
2.550

@<SCITEGIC>MOL_PROPERTY
Valence
SciTegic.value.DoubleValue
3.465

@<SCITEGIC>MOL_PROPERTY
Coulomb
SciTegic.value.DoubleValue
20.280

@<SCITEGIC>MOL_PROPERTY
VdW
SciTegic.value.DoubleValue
0.927

@<SCITEGIC>MOL_PROPERTY
VdW6
SciTegic.value.DoubleValue
-8.843

@<SCITEGIC>MOL_PROPERTY
VdW12
SciTegic.value.DoubleValue
9.770

@<SCITEGIC>MOL_PROPERTY
Bond
SciTegic.value.DoubleValue
0.217

@<SCITEGIC>MOL_PROPERTY
Angle
SciTegic.value.DoubleValue
1.094

@<SCITEGIC>MOL_PROPERTY
Pdih
SciTegic.value.DoubleValue
2.153

@<SCITEGIC>MOL_PROPERTY
Idih
SciTegic.value.DoubleValue
0.000

@<SCITEGIC>MOL_PROPERTY
Tether
SciTegic.value.DoubleValue
0.000

@<TRIPOS>MOLECULE
guest-s15_vm2.mol2 : vm2 ligand conformer 8
          29          28           1
SMALL
USER_CHARGES
 
@<TRIPOS>ATOM
       1    C1      18.622081   18.915923   19.291810 C.3        1 MOL1        -0.2426
       2    H1      18.857924   18.830807   18.223083 H          1 MOL1         0.0959
       3    H2      18.168256   17.969378   19.613263 H          1 MOL1         0.0959
       4    H3      17.874445   19.711142   19.409767 H          1 MOL1         0.0959
       5    C2      19.894942   19.226107   20.107623 C.3        1 MOL1        -0.1410
       6    H4      20.344590   20.159229   19.740239 H          1 MOL1         0.0948
       7    H5      20.635850   18.431024   19.943919 H          1 MOL1         0.0948
       8    C3      19.590466   19.351945   21.616768 C.3        1 MOL1        -0.1435
       9    H6      18.851162   20.149073   21.775496 H          1 MOL1         0.0948
      10    H7      19.133817   18.417662   21.968612 H          1 MOL1         0.0948
      11    C4      20.866899   19.658698   22.436247 C.3        1 MOL1        -0.1435
      12    H8      21.351351   20.553856   22.022278 H          1 MOL1         0.0948
      13    H9      21.587533   18.837275   22.321175 H          1 MOL1         0.0948
      14    C5      20.592056   19.901309   23.940554 C.3        1 MOL1        -0.1435
      15    H10     21.530334   20.214360   24.419342 H          1 MOL1         0.0948
      16    H11     19.892947   20.741337   24.048222 H          1 MOL1         0.0948
      17    C6      20.043519   18.651941   24.676073 C.3        1 MOL1        -0.1500
      18    H12     20.700295   17.797744   24.464193 H          1 MOL1         0.0948
      19    H13     19.050518   18.390189   24.289358 H          1 MOL1         0.0948
      20    C7      19.958541   18.847324   26.205120 C.3        1 MOL1         0.1162
      21    H14     20.952284   19.122827   26.571464 H          1 MOL1         0.0910
      22    C8      19.537960   17.536878   26.889304 C.3        1 MOL1        -0.2491
      23    H15     18.542321   17.217167   26.557003 H          1 MOL1         0.0959
      24    H16     20.248738   16.732701   26.661597 H          1 MOL1         0.0959
      25    H17     19.511789   17.658939   27.979174 H          1 MOL1         0.0959
      26    N1      19.029536   19.965875   26.590502 N.4        1 MOL1        -0.5987
      27    H18     19.002040   20.096349   27.605821 H          1 MOL1         0.3605
      28    H19     18.072560   19.779963   26.278888 H          1 MOL1         0.3605
      29    H20     19.322586   20.854303   26.175116 H          1 MOL1         0.3605
@<TRIPOS>BOND
    1     1     2    1
    2     1     3    1
    3     1     4    1
    4     1     5    1
    5     5     6    1
    6     5     7    1
    7     5     8    1
    8     8     9    1
    9     8    10    1
   10     8    11    1
   11    11    12    1
   12    11    13    1
   13    11    14    1
   14    14    15    1
   15    14    16    1
   16    14    17    1
   17    17    18    1
   18    17    19    1
   19    17    20    1
   20    20    21    1
   21    20    22    1
   22    22    23    1
   23    22    24    1
   24    22    25    1
   25    20    26    1
   26    26    27    1
   27    26    28    1
   28    26    29    1
@<TRIPOS>SUBSTRUCTURE
       1 MOL1            1 RESIDUE      1      MOL     
@<SCITEGIC>MOL_PROPERTY
VM2 Rank
SciTegic.value.IntegerValue
8

@<SCITEGIC>MOL_PROPERTY
Conf_Id
SciTegic.value.IntegerValue
987

@<SCITEGIC>MOL_PROPERTY
Probability
SciTegic.value.DoubleValue
3.41

@<SCITEGIC>MOL_PROPERTY
Sum Probability
SciTegic.value.DoubleValue
38.58

@<SCITEGIC>MOL_PROPERTY
Delta G
SciTegic.value.DoubleValue
0.663

@<SCITEGIC>MOL_PROPERTY
G
SciTegic.value.DoubleValue
34.366

@<SCITEGIC>MOL_PROPERTY
E
SciTegic.value.DoubleValue
-3.137

@<SCITEGIC>MOL_PROPERTY
-TS
SciTegic.value.DoubleValue
37.503

@<SCITEGIC>MOL_PROPERTY
U+W
SciTegic.value.DoubleValue
-27.282

@<SCITEGIC>MOL_PROPERTY
U
SciTegic.value.DoubleValue
24.740

@<SCITEGIC>MOL_PROPERTY
W
SciTegic.value.DoubleValue
-52.022

@<SCITEGIC>MOL_PROPERTY
W(PB)
SciTegic.value.DoubleValue
-54.547

@<SCITEGIC>MOL_PROPERTY
W(SA)
SciTegic.value.DoubleValue
2.525

@<SCITEGIC>MOL_PROPERTY
Valence
SciTegic.value.DoubleValue
3.693

@<SCITEGIC>MOL_PROPERTY
Coulomb
SciTegic.value.DoubleValue
19.918

@<SCITEGIC>MOL_PROPERTY
VdW
SciTegic.value.DoubleValue
1.129

@<SCITEGIC>MOL_PROPERTY
VdW6
SciTegic.value.DoubleValue
-8.666

@<SCITEGIC>MOL_PROPERTY
VdW12
SciTegic.value.DoubleValue
9.795

@<SCITEGIC>MOL_PROPERTY
Bond
SciTegic.value.DoubleValue
0.229

@<SCITEGIC>MOL_PROPERTY
Angle
SciTegic.value.DoubleValue
1.104

@<SCITEGIC>MOL_PROPERTY
Pdih
SciTegic.value.DoubleValue
2.361

@<SCITEGIC>MOL_PROPERTY
Idih
SciTegic.value.DoubleValue
0.000

@<SCITEGIC>MOL_PROPERTY
Tether
SciTegic.value.DoubleValue
0.000

