VeraChem MOL file


 26 25  0  0  0  0  0  0  0  0999 V2000     
   19.9052   19.3107   18.8162 C   0  0  0  0  0  0  0  0  0  0  0  0
   20.2945   20.3369   18.7943 H   0  0  0  0  0  0  0  0  0  0  0  0
   20.2787   18.7895   17.9252 H   0  0  0  0  0  0  0  0  0  0  0  0
   18.8108   19.3585   18.7447 H   0  0  0  0  0  0  0  0  0  0  0  0
   20.3457   18.5776   20.1010 C   0  0  0  0  0  0  0  0  0  0  0  0
   21.4427   18.5157   20.1275 H   0  0  0  0  0  0  0  0  0  0  0  0
   19.9704   17.5449   20.0784 H   0  0  0  0  0  0  0  0  0  0  0  0
   19.8327   19.2912   21.3714 C   0  0  0  0  0  0  0  0  0  0  0  0
   20.2083   20.3237   21.3883 H   0  0  0  0  0  0  0  0  0  0  0  0
   18.7360   19.3526   21.3392 H   0  0  0  0  0  0  0  0  0  0  0  0
   20.2719   18.5602   22.6602 C   0  0  0  0  0  0  0  0  0  0  0  0
   21.3686   18.4989   22.6913 H   0  0  0  0  0  0  0  0  0  0  0  0
   19.8962   17.5277   22.6422 H   0  0  0  0  0  0  0  0  0  0  0  0
   19.7583   19.2745   23.9308 C   0  0  0  0  0  0  0  0  0  0  0  0
   20.1340   20.3071   23.9492 H   0  0  0  0  0  0  0  0  0  0  0  0
   18.6614   19.3359   23.9000 H   0  0  0  0  0  0  0  0  0  0  0  0
   20.1968   18.5443   25.2193 C   0  0  0  0  0  0  0  0  0  0  0  0
   21.2928   18.4855   25.2564 H   0  0  0  0  0  0  0  0  0  0  0  0
   19.8188   17.5133   25.2071 H   0  0  0  0  0  0  0  0  0  0  0  0
   19.6802   19.2637   26.4777 C   0  0  0  0  0  0  0  0  0  0  0  0
   20.0676   20.2859   26.5026 H   0  0  0  0  0  0  0  0  0  0  0  0
   18.5881   19.3102   26.4531 H   0  0  0  0  0  0  0  0  0  0  0  0
   20.0901   18.5768   27.7644 N   0  3  0  0  0  0  0  0  0  0  0  0
   19.7359   19.0720   28.5901 H   0  0  0  0  0  0  0  0  0  0  0  0
   21.1095   18.5250   27.8622 H   0  0  0  0  0  0  0  0  0  0  0  0
   19.7328   17.6172   27.8161 H   0  0  0  0  0  0  0  0  0  0  0  0
  1  2  1  0  0  0  0
  1  3  1  0  0  0  0
  1  4  1  0  0  0  0
  1  5  1  0  0  0  0
  5  6  1  0  0  0  0
  5  7  1  0  0  0  0
  5  8  1  0  0  0  0
  8  9  1  0  0  0  0
  8 10  1  0  0  0  0
  8 11  1  0  0  0  0
 11 12  1  0  0  0  0
 11 13  1  0  0  0  0
 11 14  1  0  0  0  0
 14 15  1  0  0  0  0
 14 16  1  0  0  0  0
 14 17  1  0  0  0  0
 17 18  1  0  0  0  0
 17 19  1  0  0  0  0
 17 20  1  0  0  0  0
 20 21  1  0  0  0  0
 20 22  1  0  0  0  0
 20 23  1  0  0  0  0
 23 24  1  0  0  0  0
 23 25  1  0  0  0  0
 23 26  1  0  0  0  0
M  END
> <VM2 Rank>
1

> <Conf_Id>
316

> <Probability>
7.71

> <Sum Probability>
7.71

> <Delta G>
0.000

> <G>
48.261

> <E>
15.909

> <-TS>
32.352

> <U+W>
-5.553

> <U>
47.192

> <W>
-52.743

> <W(PB)>
-55.134

> <W(SA)>
2.391

> <Valence>
2.156

> <Coulomb>
44.449

> <VdW>
0.587

> <VdW6>
-5.761

> <VdW12>
6.348

> <Bond>
0.129

> <Angle>
0.393

> <Pdih>
1.634

> <Idih>
0.000

> <Tether>
0.000

$$$$
VeraChem MOL file


 26 25  0  0  0  0  0  0  0  0999 V2000     
   20.1408   19.6499   19.0008 C   0  0  0  0  0  0  0  0  0  0  0  0
   19.1347   20.0853   18.9420 H   0  0  0  0  0  0  0  0  0  0  0  0
   20.8621   20.4696   19.1149 H   0  0  0  0  0  0  0  0  0  0  0  0
   20.3477   19.1494   18.0460 H   0  0  0  0  0  0  0  0  0  0  0  0
   20.2456   18.6516   20.1733 C   0  0  0  0  0  0  0  0  0  0  0  0
   21.2510   18.2079   20.1855 H   0  0  0  0  0  0  0  0  0  0  0  0
   19.5370   17.8267   20.0140 H   0  0  0  0  0  0  0  0  0  0  0  0
   19.9586   19.3310   21.5306 C   0  0  0  0  0  0  0  0  0  0  0  0
   20.6678   20.1562   21.6841 H   0  0  0  0  0  0  0  0  0  0  0  0
   18.9536   19.7749   21.5127 H   0  0  0  0  0  0  0  0  0  0  0  0
   20.0625   18.3343   22.7072 C   0  0  0  0  0  0  0  0  0  0  0  0
   21.0678   17.8909   22.7245 H   0  0  0  0  0  0  0  0  0  0  0  0
   19.3536   17.5091   22.5519 H   0  0  0  0  0  0  0  0  0  0  0  0
   19.7748   19.0142   24.0649 C   0  0  0  0  0  0  0  0  0  0  0  0
   20.4826   19.8408   24.2124 H   0  0  0  0  0  0  0  0  0  0  0  0
   18.7683   19.4551   24.0484 H   0  0  0  0  0  0  0  0  0  0  0  0
   19.8801   18.0151   25.2413 C   0  0  0  0  0  0  0  0  0  0  0  0
   20.8922   17.5914   25.2861 H   0  0  0  0  0  0  0  0  0  0  0  0
   19.1959   17.1741   25.0665 H   0  0  0  0  0  0  0  0  0  0  0  0
   19.5295   18.6544   26.5987 C   0  0  0  0  0  0  0  0  0  0  0  0
   18.5244   19.0826   26.5554 H   0  0  0  0  0  0  0  0  0  0  0  0
   19.5390   17.8848   27.3753 H   0  0  0  0  0  0  0  0  0  0  0  0
   20.4891   19.7484   27.0243 N   0  3  0  0  0  0  0  0  0  0  0  0
   20.2355   20.1437   27.9363 H   0  0  0  0  0  0  0  0  0  0  0  0
   20.5021   20.5238   26.3545 H   0  0  0  0  0  0  0  0  0  0  0  0
   21.4504   19.4014   27.1054 H   0  0  0  0  0  0  0  0  0  0  0  0
  1  2  1  0  0  0  0
  1  3  1  0  0  0  0
  1  4  1  0  0  0  0
  1  5  1  0  0  0  0
  5  6  1  0  0  0  0
  5  7  1  0  0  0  0
  5  8  1  0  0  0  0
  8  9  1  0  0  0  0
  8 10  1  0  0  0  0
  8 11  1  0  0  0  0
 11 12  1  0  0  0  0
 11 13  1  0  0  0  0
 11 14  1  0  0  0  0
 14 15  1  0  0  0  0
 14 16  1  0  0  0  0
 14 17  1  0  0  0  0
 17 18  1  0  0  0  0
 17 19  1  0  0  0  0
 17 20  1  0  0  0  0
 20 21  1  0  0  0  0
 20 22  1  0  0  0  0
 20 23  1  0  0  0  0
 23 24  1  0  0  0  0
 23 25  1  0  0  0  0
 23 26  1  0  0  0  0
M  END
> <VM2 Rank>
2

> <Conf_Id>
307

> <Probability>
5.09

> <Sum Probability>
12.80

> <Delta G>
0.248

> <G>
48.509

> <E>
16.054

> <-TS>
32.455

> <U+W>
-5.408

> <U>
47.845

> <W>
-53.253

> <W(PB)>
-55.604

> <W(SA)>
2.351

> <Valence>
2.258

> <Coulomb>
44.894

> <VdW>
0.694

> <VdW6>
-6.285

> <VdW12>
6.979

> <Bond>
0.149

> <Angle>
0.434

> <Pdih>
1.675

> <Idih>
0.000

> <Tether>
0.000

$$$$
VeraChem MOL file


 26 25  0  0  0  0  0  0  0  0999 V2000     
   19.4926   19.2222   18.9791 C   0  0  0  0  0  0  0  0  0  0  0  0
   18.4512   18.8790   19.0343 H   0  0  0  0  0  0  0  0  0  0  0  0
   19.4901   20.3197   18.9538 H   0  0  0  0  0  0  0  0  0  0  0  0
   19.9156   18.8643   18.0315 H   0  0  0  0  0  0  0  0  0  0  0  0
   20.3139   18.6967   20.1755 C   0  0  0  0  0  0  0  0  0  0  0  0
   21.3572   19.0275   20.0748 H   0  0  0  0  0  0  0  0  0  0  0  0
   20.3264   17.5979   20.1547 H   0  0  0  0  0  0  0  0  0  0  0  0
   19.7393   19.1864   21.5232 C   0  0  0  0  0  0  0  0  0  0  0  0
   19.7268   20.2850   21.5385 H   0  0  0  0  0  0  0  0  0  0  0  0
   18.6958   18.8554   21.6181 H   0  0  0  0  0  0  0  0  0  0  0  0
   20.5592   18.6621   22.7237 C   0  0  0  0  0  0  0  0  0  0  0  0
   21.6027   18.9928   22.6271 H   0  0  0  0  0  0  0  0  0  0  0  0
   20.5711   17.5634   22.7079 H   0  0  0  0  0  0  0  0  0  0  0  0
   19.9844   19.1525   24.0719 C   0  0  0  0  0  0  0  0  0  0  0  0
   19.9753   20.2513   24.0887 H   0  0  0  0  0  0  0  0  0  0  0  0
   18.9404   18.8235   24.1609 H   0  0  0  0  0  0  0  0  0  0  0  0
   20.8062   18.6260   25.2722 C   0  0  0  0  0  0  0  0  0  0  0  0
   21.8554   18.9283   25.1553 H   0  0  0  0  0  0  0  0  0  0  0  0
   20.7959   17.5279   25.2829 H   0  0  0  0  0  0  0  0  0  0  0  0
   20.2934   19.1583   26.6243 C   0  0  0  0  0  0  0  0  0  0  0  0
   20.9606   18.8224   27.4228 H   0  0  0  0  0  0  0  0  0  0  0  0
   20.2967   20.2516   26.6146 H   0  0  0  0  0  0  0  0  0  0  0  0
   18.8920   18.6949   26.9710 N   0  3  0  0  0  0  0  0  0  0  0  0
   18.5862   19.0556   27.8813 H   0  0  0  0  0  0  0  0  0  0  0  0
   18.8297   17.6727   27.0178 H   0  0  0  0  0  0  0  0  0  0  0  0
   18.2058   19.0091   26.2780 H   0  0  0  0  0  0  0  0  0  0  0  0
  1  2  1  0  0  0  0
  1  3  1  0  0  0  0
  1  4  1  0  0  0  0
  1  5  1  0  0  0  0
  5  6  1  0  0  0  0
  5  7  1  0  0  0  0
  5  8  1  0  0  0  0
  8  9  1  0  0  0  0
  8 10  1  0  0  0  0
  8 11  1  0  0  0  0
 11 12  1  0  0  0  0
 11 13  1  0  0  0  0
 11 14  1  0  0  0  0
 14 15  1  0  0  0  0
 14 16  1  0  0  0  0
 14 17  1  0  0  0  0
 17 18  1  0  0  0  0
 17 19  1  0  0  0  0
 17 20  1  0  0  0  0
 20 21  1  0  0  0  0
 20 22  1  0  0  0  0
 20 23  1  0  0  0  0
 23 24  1  0  0  0  0
 23 25  1  0  0  0  0
 23 26  1  0  0  0  0
M  END
> <VM2 Rank>
3

> <Conf_Id>
1283

> <Probability>
4.96

> <Sum Probability>
17.75

> <Delta G>
0.264

> <G>
48.525

> <E>
16.069

> <-TS>
32.456

> <U+W>
-5.393

> <U>
47.845

> <W>
-53.237

> <W(PB)>
-55.586

> <W(SA)>
2.349

> <Valence>
2.258

> <Coulomb>
44.893

> <VdW>
0.694

> <VdW6>
-6.285

> <VdW12>
6.978

> <Bond>
0.149

> <Angle>
0.434

> <Pdih>
1.675

> <Idih>
0.000

> <Tether>
0.000

$$$$
VeraChem MOL file


 26 25  0  0  0  0  0  0  0  0999 V2000     
   19.7687   18.8534   18.9897 C   0  0  0  0  0  0  0  0  0  0  0  0
   20.5472   19.5752   18.7104 H   0  0  0  0  0  0  0  0  0  0  0  0
   19.7779   18.0440   18.2481 H   0  0  0  0  0  0  0  0  0  0  0  0
   18.7958   19.3580   18.9257 H   0  0  0  0  0  0  0  0  0  0  0  0
   20.0122   18.2958   20.4081 C   0  0  0  0  0  0  0  0  0  0  0  0
   20.9761   17.7682   20.4318 H   0  0  0  0  0  0  0  0  0  0  0  0
   19.2381   17.5526   20.6454 H   0  0  0  0  0  0  0  0  0  0  0  0
   20.0042   19.4156   21.4722 C   0  0  0  0  0  0  0  0  0  0  0  0
   20.7776   20.1572   21.2288 H   0  0  0  0  0  0  0  0  0  0  0  0
   19.0397   19.9413   21.4434 H   0  0  0  0  0  0  0  0  0  0  0  0
   20.2481   18.8613   22.8940 C   0  0  0  0  0  0  0  0  0  0  0  0
   21.2140   18.3381   22.9221 H   0  0  0  0  0  0  0  0  0  0  0  0
   19.4755   18.1167   23.1278 H   0  0  0  0  0  0  0  0  0  0  0  0
   20.2382   19.9852   23.9578 C   0  0  0  0  0  0  0  0  0  0  0  0
   20.9815   20.7472   23.6851 H   0  0  0  0  0  0  0  0  0  0  0  0
   19.2617   20.4892   23.9558 H   0  0  0  0  0  0  0  0  0  0  0  0
   20.5521   19.4746   25.3837 C   0  0  0  0  0  0  0  0  0  0  0  0
   20.6146   20.3342   26.0643 H   0  0  0  0  0  0  0  0  0  0  0  0
   21.5389   18.9928   25.3943 H   0  0  0  0  0  0  0  0  0  0  0  0
   19.4901   18.4916   25.9112 C   0  0  0  0  0  0  0  0  0  0  0  0
   18.5077   18.9716   25.9018 H   0  0  0  0  0  0  0  0  0  0  0  0
   19.4489   17.6099   25.2666 H   0  0  0  0  0  0  0  0  0  0  0  0
   19.7675   18.0214   27.3244 N   0  3  0  0  0  0  0  0  0  0  0  0
   19.0495   17.3684   27.6566 H   0  0  0  0  0  0  0  0  0  0  0  0
   19.7914   18.8018   27.9890 H   0  0  0  0  0  0  0  0  0  0  0  0
   20.6680   17.5365   27.3960 H   0  0  0  0  0  0  0  0  0  0  0  0
  1  2  1  0  0  0  0
  1  3  1  0  0  0  0
  1  4  1  0  0  0  0
  1  5  1  0  0  0  0
  5  6  1  0  0  0  0
  5  7  1  0  0  0  0
  5  8  1  0  0  0  0
  8  9  1  0  0  0  0
  8 10  1  0  0  0  0
  8 11  1  0  0  0  0
 11 12  1  0  0  0  0
 11 13  1  0  0  0  0
 11 14  1  0  0  0  0
 14 15  1  0  0  0  0
 14 16  1  0  0  0  0
 14 17  1  0  0  0  0
 17 18  1  0  0  0  0
 17 19  1  0  0  0  0
 17 20  1  0  0  0  0
 20 21  1  0  0  0  0
 20 22  1  0  0  0  0
 20 23  1  0  0  0  0
 23 24  1  0  0  0  0
 23 25  1  0  0  0  0
 23 26  1  0  0  0  0
M  END
> <VM2 Rank>
4

> <Conf_Id>
1284

> <Probability>
3.52

> <Sum Probability>
21.27

> <Delta G>
0.468

> <G>
48.730

> <E>
16.279

> <-TS>
32.451

> <U+W>
-5.183

> <U>
48.002

> <W>
-53.185

> <W(PB)>
-55.535

> <W(SA)>
2.350

> <Valence>
2.459

> <Coulomb>
44.900

> <VdW>
0.643

> <VdW6>
-6.362

> <VdW12>
7.005

> <Bond>
0.151

> <Angle>
0.519

> <Pdih>
1.789

> <Idih>
0.000

> <Tether>
0.000

$$$$
VeraChem MOL file


 26 25  0  0  0  0  0  0  0  0999 V2000     
   20.3710   19.2510   19.0099 C   0  0  0  0  0  0  0  0  0  0  0  0
   21.1451   18.9461   18.2938 H   0  0  0  0  0  0  0  0  0  0  0  0
   19.4151   18.8294   18.6724 H   0  0  0  0  0  0  0  0  0  0  0  0
   20.2929   20.3455   18.9761 H   0  0  0  0  0  0  0  0  0  0  0  0
   20.7212   18.7634   20.4317 C   0  0  0  0  0  0  0  0  0  0  0  0
   21.6969   19.1737   20.7277 H   0  0  0  0  0  0  0  0  0  0  0  0
   20.8258   17.6693   20.4265 H   0  0  0  0  0  0  0  0  0  0  0  0
   19.6465   19.1797   21.4603 C   0  0  0  0  0  0  0  0  0  0  0  0
   19.5440   20.2738   21.4604 H   0  0  0  0  0  0  0  0  0  0  0  0
   18.6728   18.7695   21.1584 H   0  0  0  0  0  0  0  0  0  0  0  0
   19.9935   18.6931   22.8854 C   0  0  0  0  0  0  0  0  0  0  0  0
   20.9701   19.1017   23.1778 H   0  0  0  0  0  0  0  0  0  0  0  0
   20.0931   17.5988   22.8844 H   0  0  0  0  0  0  0  0  0  0  0  0
   18.9157   19.1128   23.9136 C   0  0  0  0  0  0  0  0  0  0  0  0
   18.8364   20.2085   23.9416 H   0  0  0  0  0  0  0  0  0  0  0  0
   17.9365   18.7389   23.5834 H   0  0  0  0  0  0  0  0  0  0  0  0
   19.1951   18.5795   25.3384 C   0  0  0  0  0  0  0  0  0  0  0  0
   19.2499   17.4829   25.3179 H   0  0  0  0  0  0  0  0  0  0  0  0
   18.3493   18.8399   25.9886 H   0  0  0  0  0  0  0  0  0  0  0  0
   20.4904   19.1515   25.9446 C   0  0  0  0  0  0  0  0  0  0  0  0
   21.3465   18.8615   25.3300 H   0  0  0  0  0  0  0  0  0  0  0  0
   20.4356   20.2433   25.9661 H   0  0  0  0  0  0  0  0  0  0  0  0
   20.7476   18.6681   27.3572 N   0  3  0  0  0  0  0  0  0  0  0  0
   19.9905   18.9334   27.9956 H   0  0  0  0  0  0  0  0  0  0  0  0
   21.6138   19.0602   27.7423 H   0  0  0  0  0  0  0  0  0  0  0  0
   20.8363   17.6476   27.4017 H   0  0  0  0  0  0  0  0  0  0  0  0
  1  2  1  0  0  0  0
  1  3  1  0  0  0  0
  1  4  1  0  0  0  0
  1  5  1  0  0  0  0
  5  6  1  0  0  0  0
  5  7  1  0  0  0  0
  5  8  1  0  0  0  0
  8  9  1  0  0  0  0
  8 10  1  0  0  0  0
  8 11  1  0  0  0  0
 11 12  1  0  0  0  0
 11 13  1  0  0  0  0
 11 14  1  0  0  0  0
 14 15  1  0  0  0  0
 14 16  1  0  0  0  0
 14 17  1  0  0  0  0
 17 18  1  0  0  0  0
 17 19  1  0  0  0  0
 17 20  1  0  0  0  0
 20 21  1  0  0  0  0
 20 22  1  0  0  0  0
 20 23  1  0  0  0  0
 23 24  1  0  0  0  0
 23 25  1  0  0  0  0
 23 26  1  0  0  0  0
M  END
> <VM2 Rank>
5

> <Conf_Id>
1194

> <Probability>
3.49

> <Sum Probability>
24.75

> <Delta G>
0.473

> <G>
48.735

> <E>
16.284

> <-TS>
32.451

> <U+W>
-5.178

> <U>
48.002

> <W>
-53.180

> <W(PB)>
-55.521

> <W(SA)>
2.341

> <Valence>
2.459

> <Coulomb>
44.900

> <VdW>
0.642

> <VdW6>
-6.362

> <VdW12>
7.005

> <Bond>
0.151

> <Angle>
0.519

> <Pdih>
1.789

> <Idih>
0.000

> <Tether>
0.000

$$$$
VeraChem MOL file


 26 25  0  0  0  0  0  0  0  0999 V2000     
   19.4449   18.1621   19.5243 C   0  0  0  0  0  0  0  0  0  0  0  0
   19.4107   17.2842   20.1812 H   0  0  0  0  0  0  0  0  0  0  0  0
   18.4489   18.6236   19.5138 H   0  0  0  0  0  0  0  0  0  0  0  0
   19.6603   17.8057   18.5087 H   0  0  0  0  0  0  0  0  0  0  0  0
   20.5209   19.1727   19.9822 C   0  0  0  0  0  0  0  0  0  0  0  0
   20.6012   19.9696   19.2297 H   0  0  0  0  0  0  0  0  0  0  0  0
   21.5023   18.6791   20.0130 H   0  0  0  0  0  0  0  0  0  0  0  0
   20.2154   19.8164   21.3563 C   0  0  0  0  0  0  0  0  0  0  0  0
   20.9651   20.5960   21.5503 H   0  0  0  0  0  0  0  0  0  0  0  0
   19.2431   20.3264   21.3142 H   0  0  0  0  0  0  0  0  0  0  0  0
   20.2241   18.8045   22.5271 C   0  0  0  0  0  0  0  0  0  0  0  0
   21.1784   18.2598   22.5339 H   0  0  0  0  0  0  0  0  0  0  0  0
   19.4316   18.0585   22.3821 H   0  0  0  0  0  0  0  0  0  0  0  0
   20.0185   19.5030   23.8904 C   0  0  0  0  0  0  0  0  0  0  0  0
   20.8118   20.2475   24.0459 H   0  0  0  0  0  0  0  0  0  0  0  0
   19.0657   20.0507   23.8823 H   0  0  0  0  0  0  0  0  0  0  0  0
   20.0229   18.4950   25.0607 C   0  0  0  0  0  0  0  0  0  0  0  0
   20.9756   17.9488   25.0748 H   0  0  0  0  0  0  0  0  0  0  0  0
   19.2276   17.7523   24.9124 H   0  0  0  0  0  0  0  0  0  0  0  0
   19.8179   19.2010   26.4126 C   0  0  0  0  0  0  0  0  0  0  0  0
   20.6168   19.9301   26.5720 H   0  0  0  0  0  0  0  0  0  0  0  0
   18.8625   19.7327   26.4090 H   0  0  0  0  0  0  0  0  0  0  0  0
   19.8164   18.2444   27.5875 N   0  3  0  0  0  0  0  0  0  0  0  0
   19.6785   18.7350   28.4779 H   0  0  0  0  0  0  0  0  0  0  0  0
   20.7006   17.7311   27.6636 H   0  0  0  0  0  0  0  0  0  0  0  0
   19.0682   17.5474   27.5120 H   0  0  0  0  0  0  0  0  0  0  0  0
  1  2  1  0  0  0  0
  1  3  1  0  0  0  0
  1  4  1  0  0  0  0
  1  5  1  0  0  0  0
  5  6  1  0  0  0  0
  5  7  1  0  0  0  0
  5  8  1  0  0  0  0
  8  9  1  0  0  0  0
  8 10  1  0  0  0  0
  8 11  1  0  0  0  0
 11 12  1  0  0  0  0
 11 13  1  0  0  0  0
 11 14  1  0  0  0  0
 14 15  1  0  0  0  0
 14 16  1  0  0  0  0
 14 17  1  0  0  0  0
 17 18  1  0  0  0  0
 17 19  1  0  0  0  0
 17 20  1  0  0  0  0
 20 21  1  0  0  0  0
 20 22  1  0  0  0  0
 20 23  1  0  0  0  0
 23 24  1  0  0  0  0
 23 25  1  0  0  0  0
 23 26  1  0  0  0  0
M  END
> <VM2 Rank>
6

> <Conf_Id>
285

> <Probability>
2.86

> <Sum Probability>
27.61

> <Delta G>
0.591

> <G>
48.853

> <E>
16.390

> <-TS>
32.463

> <U+W>
-5.072

> <U>
47.845

> <W>
-52.917

> <W(PB)>
-55.279

> <W(SA)>
2.362

> <Valence>
2.661

> <Coulomb>
44.462

> <VdW>
0.723

> <VdW6>
-6.379

> <VdW12>
7.102

> <Bond>
0.164

> <Angle>
0.634

> <Pdih>
1.863

> <Idih>
0.000

> <Tether>
0.000

$$$$
VeraChem MOL file


 26 25  0  0  0  0  0  0  0  0999 V2000     
   21.1080   19.2588   19.5798 C   0  0  0  0  0  0  0  0  0  0  0  0
   21.3980   18.9514   18.5667 H   0  0  0  0  0  0  0  0  0  0  0  0
   21.0759   20.3558   19.6014 H   0  0  0  0  0  0  0  0  0  0  0  0
   21.8973   18.9238   20.2642 H   0  0  0  0  0  0  0  0  0  0  0  0
   19.7359   18.6550   19.9560 C   0  0  0  0  0  0  0  0  0  0  0  0
   19.8023   17.5580   19.9563 H   0  0  0  0  0  0  0  0  0  0  0  0
   19.0075   18.9186   19.1765 H   0  0  0  0  0  0  0  0  0  0  0  0
   19.2008   19.1474   21.3224 C   0  0  0  0  0  0  0  0  0  0  0  0
   19.1163   20.2428   21.3100 H   0  0  0  0  0  0  0  0  0  0  0  0
   18.1813   18.7603   21.4573 H   0  0  0  0  0  0  0  0  0  0  0  0
   20.0723   18.7044   22.5220 C   0  0  0  0  0  0  0  0  0  0  0  0
   21.0754   19.1426   22.4371 H   0  0  0  0  0  0  0  0  0  0  0  0
   20.1974   17.6130   22.5011 H   0  0  0  0  0  0  0  0  0  0  0  0
   19.4481   19.1269   23.8713 C   0  0  0  0  0  0  0  0  0  0  0  0
   19.3196   20.2182   23.8908 H   0  0  0  0  0  0  0  0  0  0  0  0
   18.4455   18.6871   23.9668 H   0  0  0  0  0  0  0  0  0  0  0  0
   20.3177   18.6894   25.0705 C   0  0  0  0  0  0  0  0  0  0  0  0
   21.3191   19.1316   24.9823 H   0  0  0  0  0  0  0  0  0  0  0  0
   20.4445   17.5986   25.0570 H   0  0  0  0  0  0  0  0  0  0  0  0
   19.6869   19.1145   26.4082 C   0  0  0  0  0  0  0  0  0  0  0  0
   19.5738   20.2018   26.4329 H   0  0  0  0  0  0  0  0  0  0  0  0
   18.6959   18.6633   26.5078 H   0  0  0  0  0  0  0  0  0  0  0  0
   20.5113   18.7026   27.6107 N   0  3  0  0  0  0  0  0  0  0  0  0
   20.0734   18.9953   28.4911 H   0  0  0  0  0  0  0  0  0  0  0  0
   21.4488   19.1173   27.5916 H   0  0  0  0  0  0  0  0  0  0  0  0
   20.6320   17.6857   27.6613 H   0  0  0  0  0  0  0  0  0  0  0  0
  1  2  1  0  0  0  0
  1  3  1  0  0  0  0
  1  4  1  0  0  0  0
  1  5  1  0  0  0  0
  5  6  1  0  0  0  0
  5  7  1  0  0  0  0
  5  8  1  0  0  0  0
  8  9  1  0  0  0  0
  8 10  1  0  0  0  0
  8 11  1  0  0  0  0
 11 12  1  0  0  0  0
 11 13  1  0  0  0  0
 11 14  1  0  0  0  0
 14 15  1  0  0  0  0
 14 16  1  0  0  0  0
 14 17  1  0  0  0  0
 17 18  1  0  0  0  0
 17 19  1  0  0  0  0
 17 20  1  0  0  0  0
 20 21  1  0  0  0  0
 20 22  1  0  0  0  0
 20 23  1  0  0  0  0
 23 24  1  0  0  0  0
 23 25  1  0  0  0  0
 23 26  1  0  0  0  0
M  END
> <VM2 Rank>
7

> <Conf_Id>
1255

> <Probability>
2.69

> <Sum Probability>
30.30

> <Delta G>
0.628

> <G>
48.890

> <E>
16.427

> <-TS>
32.463

> <U+W>
-5.035

> <U>
47.845

> <W>
-52.880

> <W(PB)>
-55.232

> <W(SA)>
2.352

> <Valence>
2.661

> <Coulomb>
44.462

> <VdW>
0.723

> <VdW6>
-6.379

> <VdW12>
7.102

> <Bond>
0.164

> <Angle>
0.634

> <Pdih>
1.863

> <Idih>
0.000

> <Tether>
0.000

$$$$
VeraChem MOL file


 26 25  0  0  0  0  0  0  0  0999 V2000     
   20.1860   19.7829   19.1893 C   0  0  0  0  0  0  0  0  0  0  0  0
   20.2156   18.9015   18.5353 H   0  0  0  0  0  0  0  0  0  0  0  0
   19.1862   20.2302   19.1153 H   0  0  0  0  0  0  0  0  0  0  0  0
   20.9108   20.5120   18.8045 H   0  0  0  0  0  0  0  0  0  0  0  0
   20.5169   19.4034   20.6483 C   0  0  0  0  0  0  0  0  0  0  0  0
   20.5179   20.3143   21.2614 H   0  0  0  0  0  0  0  0  0  0  0  0
   21.5326   18.9864   20.6946 H   0  0  0  0  0  0  0  0  0  0  0  0
   19.5052   18.3790   21.2142 C   0  0  0  0  0  0  0  0  0  0  0  0
   18.4972   18.8163   21.2168 H   0  0  0  0  0  0  0  0  0  0  0  0
   19.4625   17.5111   20.5417 H   0  0  0  0  0  0  0  0  0  0  0  0
   19.8581   17.8795   22.6369 C   0  0  0  0  0  0  0  0  0  0  0  0
   20.8599   17.4282   22.6300 H   0  0  0  0  0  0  0  0  0  0  0  0
   19.1595   17.0750   22.9055 H   0  0  0  0  0  0  0  0  0  0  0  0
   19.7906   18.9867   23.7163 C   0  0  0  0  0  0  0  0  0  0  0  0
   20.5374   19.7634   23.5051 H   0  0  0  0  0  0  0  0  0  0  0  0
   18.8056   19.4728   23.6834 H   0  0  0  0  0  0  0  0  0  0  0  0
   20.0384   18.4224   25.1326 C   0  0  0  0  0  0  0  0  0  0  0  0
   21.0227   17.9366   25.1700 H   0  0  0  0  0  0  0  0  0  0  0  0
   19.2897   17.6521   25.3608 H   0  0  0  0  0  0  0  0  0  0  0  0
   19.9736   19.5298   26.1992 C   0  0  0  0  0  0  0  0  0  0  0  0
   20.7289   20.2911   25.9859 H   0  0  0  0  0  0  0  0  0  0  0  0
   18.9895   20.0056   26.1766 H   0  0  0  0  0  0  0  0  0  0  0  0
   20.2121   19.0154   27.6042 N   0  3  0  0  0  0  0  0  0  0  0  0
   21.1350   18.5790   27.6999 H   0  0  0  0  0  0  0  0  0  0  0  0
   19.5165   18.3135   27.8774 H   0  0  0  0  0  0  0  0  0  0  0  0
   20.1647   19.7687   28.2989 H   0  0  0  0  0  0  0  0  0  0  0  0
  1  2  1  0  0  0  0
  1  3  1  0  0  0  0
  1  4  1  0  0  0  0
  1  5  1  0  0  0  0
  5  6  1  0  0  0  0
  5  7  1  0  0  0  0
  5  8  1  0  0  0  0
  8  9  1  0  0  0  0
  8 10  1  0  0  0  0
  8 11  1  0  0  0  0
 11 12  1  0  0  0  0
 11 13  1  0  0  0  0
 11 14  1  0  0  0  0
 14 15  1  0  0  0  0
 14 16  1  0  0  0  0
 14 17  1  0  0  0  0
 17 18  1  0  0  0  0
 17 19  1  0  0  0  0
 17 20  1  0  0  0  0
 20 21  1  0  0  0  0
 20 22  1  0  0  0  0
 20 23  1  0  0  0  0
 23 24  1  0  0  0  0
 23 25  1  0  0  0  0
 23 26  1  0  0  0  0
M  END
> <VM2 Rank>
8

> <Conf_Id>
487

> <Probability>
2.54

> <Sum Probability>
32.84

> <Delta G>
0.663

> <G>
48.924

> <E>
16.474

> <-TS>
32.451

> <U+W>
-4.988

> <U>
48.035

> <W>
-53.023

> <W(PB)>
-55.378

> <W(SA)>
2.355

> <Valence>
2.701

> <Coulomb>
44.622

> <VdW>
0.712

> <VdW6>
-6.418

> <VdW12>
7.130

> <Bond>
0.168

> <Angle>
0.659

> <Pdih>
1.875

> <Idih>
0.000

> <Tether>
0.000

$$$$
