@<TRIPOS>MOLECULE
guest-s10_vm2.mol2 : vm2 ligand conformer 1
          20          19           1
SMALL
USER_CHARGES
 
@<TRIPOS>ATOM
       1    N1      20.391186   20.173140   24.127942 N.4        1 MOL1        -0.5937
       2    H1      20.006986   20.937973   23.567580 H          1 MOL1         0.3684
       3    H2      21.389534   20.106957   23.914713 H          1 MOL1         0.3684
       4    H3      20.306493   20.444641   25.111187 H          1 MOL1         0.3684
       5    C1      19.681092   18.875229   23.851793 C.3        1 MOL1         0.1270
       6    H4      18.627124   19.033856   24.100542 H          1 MOL1         0.0960
       7    C2      20.226136   17.758235   24.756902 C.3        1 MOL1        -0.2382
       8    H5      19.667280   16.826271   24.606037 H          1 MOL1         0.1009
       9    H6      20.131899   18.034313   25.814336 H          1 MOL1         0.1009
      10    H7      21.284809   17.559063   24.548734 H          1 MOL1         0.1009
      11    C3      19.768831   18.454707   22.368012 C.3        1 MOL1        -0.1392
      12    H8      20.820397   18.311765   22.085714 H          1 MOL1         0.0998
      13    H9      19.277146   17.480270   22.246413 H          1 MOL1         0.0998
      14    C4      19.103596   19.471956   21.409794 C.3        1 MOL1        -0.1302
      15    H10     19.614722   20.442203   21.471425 H          1 MOL1         0.0998
      16    H11     18.061276   19.641246   21.715002 H          1 MOL1         0.0998
      17    C5      19.134159   18.980732   19.946557 C.3        1 MOL1        -0.2317
      18    H12     18.595917   18.030202   19.836931 H          1 MOL1         0.1009
      19    H13     20.165617   18.831132   19.601634 H          1 MOL1         0.1009
      20    H14     18.660005   19.714086   19.281385 H          1 MOL1         0.1009
@<TRIPOS>BOND
    1     1     2    1
    2     1     3    1
    3     1     4    1
    4     1     5    1
    5     5     6    1
    6     5     7    1
    7     7     8    1
    8     7     9    1
    9     7    10    1
   10     5    11    1
   11    11    12    1
   12    11    13    1
   13    11    14    1
   14    14    15    1
   15    14    16    1
   16    14    17    1
   17    17    18    1
   18    17    19    1
   19    17    20    1
@<TRIPOS>SUBSTRUCTURE
       1 MOL1            1 RESIDUE      1      MOL     
@<SCITEGIC>MOL_PROPERTY
VM2 Rank
SciTegic.value.IntegerValue
1

@<SCITEGIC>MOL_PROPERTY
Conf_Id
SciTegic.value.IntegerValue
213

@<SCITEGIC>MOL_PROPERTY
Probability
SciTegic.value.DoubleValue
40.81

@<SCITEGIC>MOL_PROPERTY
Sum Probability
SciTegic.value.DoubleValue
40.81

@<SCITEGIC>MOL_PROPERTY
Delta G
SciTegic.value.DoubleValue
0.000

@<SCITEGIC>MOL_PROPERTY
G
SciTegic.value.DoubleValue
2.706

@<SCITEGIC>MOL_PROPERTY
E
SciTegic.value.DoubleValue
-20.181

@<SCITEGIC>MOL_PROPERTY
-TS
SciTegic.value.DoubleValue
22.887

@<SCITEGIC>MOL_PROPERTY
U+W
SciTegic.value.DoubleValue
-36.277

@<SCITEGIC>MOL_PROPERTY
U
SciTegic.value.DoubleValue
22.080

@<SCITEGIC>MOL_PROPERTY
W
SciTegic.value.DoubleValue
-58.357

@<SCITEGIC>MOL_PROPERTY
W(PB)
SciTegic.value.DoubleValue
-60.289

@<SCITEGIC>MOL_PROPERTY
W(SA)
SciTegic.value.DoubleValue
1.932

@<SCITEGIC>MOL_PROPERTY
Valence
SciTegic.value.DoubleValue
1.884

@<SCITEGIC>MOL_PROPERTY
Coulomb
SciTegic.value.DoubleValue
19.559

@<SCITEGIC>MOL_PROPERTY
VdW
SciTegic.value.DoubleValue
0.637

@<SCITEGIC>MOL_PROPERTY
VdW6
SciTegic.value.DoubleValue
-4.482

@<SCITEGIC>MOL_PROPERTY
VdW12
SciTegic.value.DoubleValue
5.119

@<SCITEGIC>MOL_PROPERTY
Bond
SciTegic.value.DoubleValue
0.136

@<SCITEGIC>MOL_PROPERTY
Angle
SciTegic.value.DoubleValue
0.867

@<SCITEGIC>MOL_PROPERTY
Pdih
SciTegic.value.DoubleValue
0.882

@<SCITEGIC>MOL_PROPERTY
Idih
SciTegic.value.DoubleValue
0.000

@<SCITEGIC>MOL_PROPERTY
Tether
SciTegic.value.DoubleValue
0.000

