VeraChem MOL file


 26 25  0  0  0  0  0  0  0  0999 V2000     
   19.9837   18.6238   26.4861 N   0  3  0  0  0  0  0  0  0  0  0  0
   20.8629   18.0856   26.5333 H   0  0  0  0  0  0  0  0  0  0  0  0
   19.2305   17.9186   26.4752 H   0  0  0  0  0  0  0  0  0  0  0  0
   19.9443   19.4507   25.2166 C   0  0  0  0  0  0  0  0  0  0  0  0
   20.7599   20.1768   25.2640 H   0  0  0  0  0  0  0  0  0  0  0  0
   18.9977   19.9967   25.2014 H   0  0  0  0  0  0  0  0  0  0  0  0
   20.0761   18.6066   23.9359 C   0  0  0  0  0  0  0  0  0  0  0  0
   21.0207   18.0471   23.9630 H   0  0  0  0  0  0  0  0  0  0  0  0
   19.2644   17.8676   23.9007 H   0  0  0  0  0  0  0  0  0  0  0  0
   20.0307   19.4900   22.6695 C   0  0  0  0  0  0  0  0  0  0  0  0
   20.8409   20.2314   22.7110 H   0  0  0  0  0  0  0  0  0  0  0  0
   19.0867   20.0524   22.6490 H   0  0  0  0  0  0  0  0  0  0  0  0
   20.1618   18.6528   21.3767 C   0  0  0  0  0  0  0  0  0  0  0  0
   21.1057   18.0906   21.3970 H   0  0  0  0  0  0  0  0  0  0  0  0
   19.3517   17.9116   21.3350 H   0  0  0  0  0  0  0  0  0  0  0  0
   20.1163   19.5367   20.1103 C   0  0  0  0  0  0  0  0  0  0  0  0
   20.9266   20.2785   20.1460 H   0  0  0  0  0  0  0  0  0  0  0  0
   19.1727   20.0996   20.0841 H   0  0  0  0  0  0  0  0  0  0  0  0
   20.2474   18.6973   18.8214 C   0  0  0  0  0  0  0  0  0  0  0  0
   21.1981   18.1487   18.8024 H   0  0  0  0  0  0  0  0  0  0  0  0
   20.2130   19.3421   17.9337 H   0  0  0  0  0  0  0  0  0  0  0  0
   19.4305   17.9685   18.7400 H   0  0  0  0  0  0  0  0  0  0  0  0
   19.8476   19.5320   27.7004 C   0  0  0  0  0  0  0  0  0  0  0  0
   18.8961   20.0654   27.6451 H   0  0  0  0  0  0  0  0  0  0  0  0
   19.8775   18.9241   28.6075 H   0  0  0  0  0  0  0  0  0  0  0  0
   20.6730   20.2472   27.7084 H   0  0  0  0  0  0  0  0  0  0  0  0
  1  2  1  0  0  0  0
  1  3  1  0  0  0  0
  1  4  1  0  0  0  0
  4  5  1  0  0  0  0
  4  6  1  0  0  0  0
  4  7  1  0  0  0  0
  7  8  1  0  0  0  0
  7  9  1  0  0  0  0
  7 10  1  0  0  0  0
 10 11  1  0  0  0  0
 10 12  1  0  0  0  0
 10 13  1  0  0  0  0
 13 14  1  0  0  0  0
 13 15  1  0  0  0  0
 13 16  1  0  0  0  0
 16 17  1  0  0  0  0
 16 18  1  0  0  0  0
 16 19  1  0  0  0  0
 19 20  1  0  0  0  0
 19 21  1  0  0  0  0
 19 22  1  0  0  0  0
  1 23  1  0  0  0  0
 23 24  1  0  0  0  0
 23 25  1  0  0  0  0
 23 26  1  0  0  0  0
M  END
> <VM2 Rank>
1

> <Conf_Id>
1417

> <Probability>
6.83

> <Sum Probability>
6.83

> <Delta G>
0.000

> <G>
75.466

> <E>
43.303

> <-TS>
32.163

> <U+W>
21.841

> <U>
70.357

> <W>
-48.515

> <W(PB)>
-50.856

> <W(SA)>
2.341

> <Valence>
1.714

> <Coulomb>
68.480

> <VdW>
0.163

> <VdW6>
-5.268

> <VdW12>
5.431

> <Bond>
0.126

> <Angle>
0.350

> <Pdih>
1.238

> <Idih>
0.000

> <Tether>
0.000

$$$$
VeraChem MOL file


 26 25  0  0  0  0  0  0  0  0999 V2000     
   20.3923   19.0035   26.6223 N   0  3  0  0  0  0  0  0  0  0  0  0
   20.8629   19.5627   27.3515 H   0  0  0  0  0  0  0  0  0  0  0  0
   20.8762   18.0923   26.6322 H   0  0  0  0  0  0  0  0  0  0  0  0
   20.5689   19.6776   25.2718 C   0  0  0  0  0  0  0  0  0  0  0  0
   21.6303   19.9155   25.1643 H   0  0  0  0  0  0  0  0  0  0  0  0
   20.0111   20.6172   25.2891 H   0  0  0  0  0  0  0  0  0  0  0  0
   20.1224   18.8245   24.0671 C   0  0  0  0  0  0  0  0  0  0  0  0
   20.6515   17.8625   24.0861 H   0  0  0  0  0  0  0  0  0  0  0  0
   19.0500   18.6039   24.1455 H   0  0  0  0  0  0  0  0  0  0  0  0
   20.4034   19.5462   22.7305 C   0  0  0  0  0  0  0  0  0  0  0  0
   21.4768   19.7687   22.6529 H   0  0  0  0  0  0  0  0  0  0  0  0
   19.8775   20.5111   22.7181 H   0  0  0  0  0  0  0  0  0  0  0  0
   19.9615   18.7009   21.5141 C   0  0  0  0  0  0  0  0  0  0  0  0
   20.4871   17.7360   21.5265 H   0  0  0  0  0  0  0  0  0  0  0  0
   18.8881   18.4786   21.5913 H   0  0  0  0  0  0  0  0  0  0  0  0
   20.2426   19.4231   20.1774 C   0  0  0  0  0  0  0  0  0  0  0  0
   21.3157   19.6456   20.0942 H   0  0  0  0  0  0  0  0  0  0  0  0
   19.7168   20.3881   20.1591 H   0  0  0  0  0  0  0  0  0  0  0  0
   19.8001   18.5761   18.9651 C   0  0  0  0  0  0  0  0  0  0  0  0
   20.0077   19.1052   18.0260 H   0  0  0  0  0  0  0  0  0  0  0  0
   18.7232   18.3659   19.0021 H   0  0  0  0  0  0  0  0  0  0  0  0
   20.3346   17.6176   18.9367 H   0  0  0  0  0  0  0  0  0  0  0  0
   18.9168   18.8381   26.9688 C   0  0  0  0  0  0  0  0  0  0  0  0
   18.4414   18.1920   26.2281 H   0  0  0  0  0  0  0  0  0  0  0  0
   18.8312   18.3856   27.9592 H   0  0  0  0  0  0  0  0  0  0  0  0
   18.4362   19.8188   26.9688 H   0  0  0  0  0  0  0  0  0  0  0  0
  1  2  1  0  0  0  0
  1  3  1  0  0  0  0
  1  4  1  0  0  0  0
  4  5  1  0  0  0  0
  4  6  1  0  0  0  0
  4  7  1  0  0  0  0
  7  8  1  0  0  0  0
  7  9  1  0  0  0  0
  7 10  1  0  0  0  0
 10 11  1  0  0  0  0
 10 12  1  0  0  0  0
 10 13  1  0  0  0  0
 13 14  1  0  0  0  0
 13 15  1  0  0  0  0
 13 16  1  0  0  0  0
 16 17  1  0  0  0  0
 16 18  1  0  0  0  0
 16 19  1  0  0  0  0
 19 20  1  0  0  0  0
 19 21  1  0  0  0  0
 19 22  1  0  0  0  0
  1 23  1  0  0  0  0
 23 24  1  0  0  0  0
 23 25  1  0  0  0  0
 23 26  1  0  0  0  0
M  END
> <VM2 Rank>
2

> <Conf_Id>
1434

> <Probability>
4.20

> <Sum Probability>
11.03

> <Delta G>
0.291

> <G>
75.757

> <E>
43.423

> <-TS>
32.334

> <U+W>
21.961

> <U>
70.745

> <W>
-48.784

> <W(PB)>
-51.112

> <W(SA)>
2.328

> <Valence>
1.993

> <Coulomb>
68.323

> <VdW>
0.429

> <VdW6>
-5.973

> <VdW12>
6.403

> <Bond>
0.161

> <Angle>
0.472

> <Pdih>
1.360

> <Idih>
0.000

> <Tether>
0.000

$$$$
VeraChem MOL file


 26 25  0  0  0  0  0  0  0  0999 V2000     
   19.4983   18.9125   26.5906 N   0  3  0  0  0  0  0  0  0  0  0  0
   19.2083   17.9225   26.5732 H   0  0  0  0  0  0  0  0  0  0  0  0
   18.8749   19.3603   27.2811 H   0  0  0  0  0  0  0  0  0  0  0  0
   19.2845   19.5468   25.2263 C   0  0  0  0  0  0  0  0  0  0  0  0
   19.6392   20.5793   25.2758 H   0  0  0  0  0  0  0  0  0  0  0  0
   18.2072   19.5668   25.0431 H   0  0  0  0  0  0  0  0  0  0  0  0
   19.9769   18.8096   24.0619 C   0  0  0  0  0  0  0  0  0  0  0  0
   21.0636   18.8088   24.2168 H   0  0  0  0  0  0  0  0  0  0  0  0
   19.6522   17.7607   24.0507 H   0  0  0  0  0  0  0  0  0  0  0  0
   19.6507   19.4695   22.7038 C   0  0  0  0  0  0  0  0  0  0  0  0
   19.9712   20.5206   22.7215 H   0  0  0  0  0  0  0  0  0  0  0  0
   18.5626   19.4719   22.5497 H   0  0  0  0  0  0  0  0  0  0  0  0
   20.3379   18.7393   21.5274 C   0  0  0  0  0  0  0  0  0  0  0  0
   21.4259   18.7371   21.6812 H   0  0  0  0  0  0  0  0  0  0  0  0
   20.0177   17.6882   21.5098 H   0  0  0  0  0  0  0  0  0  0  0  0
   20.0114   19.3995   20.1692 C   0  0  0  0  0  0  0  0  0  0  0  0
   20.3318   20.4508   20.1809 H   0  0  0  0  0  0  0  0  0  0  0  0
   18.9240   19.4017   20.0094 H   0  0  0  0  0  0  0  0  0  0  0  0
   20.6994   18.6678   18.9970 C   0  0  0  0  0  0  0  0  0  0  0  0
   21.7912   18.6788   19.1109 H   0  0  0  0  0  0  0  0  0  0  0  0
   20.4557   19.1508   18.0419 H   0  0  0  0  0  0  0  0  0  0  0  0
   20.3724   17.6214   18.9381 H   0  0  0  0  0  0  0  0  0  0  0  0
   20.9489   19.0451   27.0407 C   0  0  0  0  0  0  0  0  0  0  0  0
   21.2210   20.1025   27.0674 H   0  0  0  0  0  0  0  0  0  0  0  0
   21.0543   18.6121   28.0379 H   0  0  0  0  0  0  0  0  0  0  0  0
   21.5954   18.5132   26.3398 H   0  0  0  0  0  0  0  0  0  0  0  0
  1  2  1  0  0  0  0
  1  3  1  0  0  0  0
  1  4  1  0  0  0  0
  4  5  1  0  0  0  0
  4  6  1  0  0  0  0
  4  7  1  0  0  0  0
  7  8  1  0  0  0  0
  7  9  1  0  0  0  0
  7 10  1  0  0  0  0
 10 11  1  0  0  0  0
 10 12  1  0  0  0  0
 10 13  1  0  0  0  0
 13 14  1  0  0  0  0
 13 15  1  0  0  0  0
 13 16  1  0  0  0  0
 16 17  1  0  0  0  0
 16 18  1  0  0  0  0
 16 19  1  0  0  0  0
 19 20  1  0  0  0  0
 19 21  1  0  0  0  0
 19 22  1  0  0  0  0
  1 23  1  0  0  0  0
 23 24  1  0  0  0  0
 23 25  1  0  0  0  0
 23 26  1  0  0  0  0
M  END
> <VM2 Rank>
3

> <Conf_Id>
37

> <Probability>
4.16

> <Sum Probability>
15.18

> <Delta G>
0.296

> <G>
75.762

> <E>
43.429

> <-TS>
32.333

> <U+W>
21.967

> <U>
70.745

> <W>
-48.778

> <W(PB)>
-51.115

> <W(SA)>
2.337

> <Valence>
1.993

> <Coulomb>
68.323

> <VdW>
0.429

> <VdW6>
-5.973

> <VdW12>
6.403

> <Bond>
0.161

> <Angle>
0.472

> <Pdih>
1.360

> <Idih>
0.000

> <Tether>
0.000

$$$$
VeraChem MOL file


 26 25  0  0  0  0  0  0  0  0999 V2000     
   20.5559   19.2937   25.9474 N   0  3  0  0  0  0  0  0  0  0  0  0
   20.9607   20.0235   25.3419 H   0  0  0  0  0  0  0  0  0  0  0  0
   21.2650   18.5453   25.9905 H   0  0  0  0  0  0  0  0  0  0  0  0
   19.2732   18.7625   25.3370 C   0  0  0  0  0  0  0  0  0  0  0  0
   18.5525   19.5832   25.2991 H   0  0  0  0  0  0  0  0  0  0  0  0
   18.8814   17.9953   26.0097 H   0  0  0  0  0  0  0  0  0  0  0  0
   19.4519   18.1634   23.9280 C   0  0  0  0  0  0  0  0  0  0  0  0
   20.1817   17.3438   23.9678 H   0  0  0  0  0  0  0  0  0  0  0  0
   18.4975   17.7176   23.6174 H   0  0  0  0  0  0  0  0  0  0  0  0
   19.8905   19.2154   22.8816 C   0  0  0  0  0  0  0  0  0  0  0  0
   20.8629   19.6408   23.1635 H   0  0  0  0  0  0  0  0  0  0  0  0
   19.1699   20.0452   22.8730 H   0  0  0  0  0  0  0  0  0  0  0  0
   19.9934   18.6073   21.4643 C   0  0  0  0  0  0  0  0  0  0  0  0
   20.7114   17.7754   21.4726 H   0  0  0  0  0  0  0  0  0  0  0  0
   19.0216   18.1847   21.1738 H   0  0  0  0  0  0  0  0  0  0  0  0
   20.4321   19.6555   20.4174 C   0  0  0  0  0  0  0  0  0  0  0  0
   21.4056   20.0793   20.7015 H   0  0  0  0  0  0  0  0  0  0  0  0
   19.7157   20.4889   20.4038 H   0  0  0  0  0  0  0  0  0  0  0  0
   20.5332   19.0445   19.0034 C   0  0  0  0  0  0  0  0  0  0  0  0
   21.2683   18.2295   18.9769 H   0  0  0  0  0  0  0  0  0  0  0  0
   20.8457   19.8035   18.2745 H   0  0  0  0  0  0  0  0  0  0  0  0
   19.5653   18.6425   18.6767 H   0  0  0  0  0  0  0  0  0  0  0  0
   20.2778   19.8478   27.3378 C   0  0  0  0  0  0  0  0  0  0  0  0
   21.2088   20.2269   27.7653 H   0  0  0  0  0  0  0  0  0  0  0  0
   19.5495   20.6582   27.2624 H   0  0  0  0  0  0  0  0  0  0  0  0
   19.8799   19.0502   27.9691 H   0  0  0  0  0  0  0  0  0  0  0  0
  1  2  1  0  0  0  0
  1  3  1  0  0  0  0
  1  4  1  0  0  0  0
  4  5  1  0  0  0  0
  4  6  1  0  0  0  0
  4  7  1  0  0  0  0
  7  8  1  0  0  0  0
  7  9  1  0  0  0  0
  7 10  1  0  0  0  0
 10 11  1  0  0  0  0
 10 12  1  0  0  0  0
 10 13  1  0  0  0  0
 13 14  1  0  0  0  0
 13 15  1  0  0  0  0
 13 16  1  0  0  0  0
 16 17  1  0  0  0  0
 16 18  1  0  0  0  0
 16 19  1  0  0  0  0
 19 20  1  0  0  0  0
 19 21  1  0  0  0  0
 19 22  1  0  0  0  0
  1 23  1  0  0  0  0
 23 24  1  0  0  0  0
 23 25  1  0  0  0  0
 23 26  1  0  0  0  0
M  END
> <VM2 Rank>
4

> <Conf_Id>
1029

> <Probability>
3.08

> <Sum Probability>
18.26

> <Delta G>
0.475

> <G>
75.941

> <E>
43.686

> <-TS>
32.255

> <U+W>
22.224

> <U>
71.143

> <W>
-48.918

> <W(PB)>
-51.256

> <W(SA)>
2.337

> <Valence>
1.835

> <Coulomb>
69.102

> <VdW>
0.206

> <VdW6>
-5.849

> <VdW12>
6.055

> <Bond>
0.142

> <Angle>
0.413

> <Pdih>
1.279

> <Idih>
0.000

> <Tether>
0.000

$$$$
VeraChem MOL file


 26 25  0  0  0  0  0  0  0  0999 V2000     
   19.3272   19.1677   25.9040 N   0  3  0  0  0  0  0  0  0  0  0  0
   18.7834   18.2908   25.9027 H   0  0  0  0  0  0  0  0  0  0  0  0
   18.8262   19.8046   25.2664 H   0  0  0  0  0  0  0  0  0  0  0  0
   20.7304   18.9120   25.3886 C   0  0  0  0  0  0  0  0  0  0  0  0
   21.2216   18.2354   26.0926 H   0  0  0  0  0  0  0  0  0  0  0  0
   21.2707   19.8621   25.3952 H   0  0  0  0  0  0  0  0  0  0  0  0
   20.7760   18.2993   23.9749 C   0  0  0  0  0  0  0  0  0  0  0  0
   21.8203   18.0584   23.7351 H   0  0  0  0  0  0  0  0  0  0  0  0
   20.2266   17.3484   23.9694 H   0  0  0  0  0  0  0  0  0  0  0  0
   20.2075   19.2479   22.8928 C   0  0  0  0  0  0  0  0  0  0  0  0
   20.7437   20.2066   22.9287 H   0  0  0  0  0  0  0  0  0  0  0  0
   19.1518   19.4653   23.1028 H   0  0  0  0  0  0  0  0  0  0  0  0
   20.3295   18.6417   21.4762 C   0  0  0  0  0  0  0  0  0  0  0  0
   21.3848   18.4270   21.2575 H   0  0  0  0  0  0  0  0  0  0  0  0
   19.7962   17.6816   21.4402 H   0  0  0  0  0  0  0  0  0  0  0  0
   19.7619   19.5867   20.3936 C   0  0  0  0  0  0  0  0  0  0  0  0
   20.2936   20.5482   20.4243 H   0  0  0  0  0  0  0  0  0  0  0  0
   18.7052   19.8023   20.6057 H   0  0  0  0  0  0  0  0  0  0  0  0
   19.8861   18.9781   18.9804 C   0  0  0  0  0  0  0  0  0  0  0  0
   20.9359   18.7830   18.7253 H   0  0  0  0  0  0  0  0  0  0  0  0
   19.4781   19.6632   18.2260 H   0  0  0  0  0  0  0  0  0  0  0  0
   19.3352   18.0313   18.9084 H   0  0  0  0  0  0  0  0  0  0  0  0
   19.3893   19.7566   27.3064 C   0  0  0  0  0  0  0  0  0  0  0  0
   19.9416   20.6983   27.2764 H   0  0  0  0  0  0  0  0  0  0  0  0
   18.3732   19.9360   27.6650 H   0  0  0  0  0  0  0  0  0  0  0  0
   19.8953   19.0517   27.9697 H   0  0  0  0  0  0  0  0  0  0  0  0
  1  2  1  0  0  0  0
  1  3  1  0  0  0  0
  1  4  1  0  0  0  0
  4  5  1  0  0  0  0
  4  6  1  0  0  0  0
  4  7  1  0  0  0  0
  7  8  1  0  0  0  0
  7  9  1  0  0  0  0
  7 10  1  0  0  0  0
 10 11  1  0  0  0  0
 10 12  1  0  0  0  0
 10 13  1  0  0  0  0
 13 14  1  0  0  0  0
 13 15  1  0  0  0  0
 13 16  1  0  0  0  0
 16 17  1  0  0  0  0
 16 18  1  0  0  0  0
 16 19  1  0  0  0  0
 19 20  1  0  0  0  0
 19 21  1  0  0  0  0
 19 22  1  0  0  0  0
  1 23  1  0  0  0  0
 23 24  1  0  0  0  0
 23 25  1  0  0  0  0
 23 26  1  0  0  0  0
M  END
> <VM2 Rank>
5

> <Conf_Id>
1541

> <Probability>
3.07

> <Sum Probability>
21.34

> <Delta G>
0.476

> <G>
75.942

> <E>
43.687

> <-TS>
32.255

> <U+W>
22.225

> <U>
71.142

> <W>
-48.917

> <W(PB)>
-51.254

> <W(SA)>
2.337

> <Valence>
1.835

> <Coulomb>
69.101

> <VdW>
0.206

> <VdW6>
-5.849

> <VdW12>
6.055

> <Bond>
0.142

> <Angle>
0.413

> <Pdih>
1.279

> <Idih>
0.000

> <Tether>
0.000

$$$$
VeraChem MOL file


 26 25  0  0  0  0  0  0  0  0999 V2000     
   19.9281   18.8063   26.2895 N   0  3  0  0  0  0  0  0  0  0  0  0
   20.7994   19.0418   26.7899 H   0  0  0  0  0  0  0  0  0  0  0  0
   19.8671   17.7766   26.3145 H   0  0  0  0  0  0  0  0  0  0  0  0
   20.0011   19.2914   24.8557 C   0  0  0  0  0  0  0  0  0  0  0  0
   20.0753   20.3816   24.8739 H   0  0  0  0  0  0  0  0  0  0  0  0
   19.0648   19.0176   24.3639 H   0  0  0  0  0  0  0  0  0  0  0  0
   21.1921   18.7039   24.0742 C   0  0  0  0  0  0  0  0  0  0  0  0
   22.1235   18.9486   24.6020 H   0  0  0  0  0  0  0  0  0  0  0  0
   21.1186   17.6083   24.0576 H   0  0  0  0  0  0  0  0  0  0  0  0
   21.2799   19.2410   22.6261 C   0  0  0  0  0  0  0  0  0  0  0  0
   22.1973   18.8534   22.1618 H   0  0  0  0  0  0  0  0  0  0  0  0
   21.3810   20.3351   22.6466 H   0  0  0  0  0  0  0  0  0  0  0  0
   20.0626   18.8451   21.7557 C   0  0  0  0  0  0  0  0  0  0  0  0
   19.9445   17.7527   21.7645 H   0  0  0  0  0  0  0  0  0  0  0  0
   19.1429   19.2680   22.1815 H   0  0  0  0  0  0  0  0  0  0  0  0
   20.2163   19.3333   20.2979 C   0  0  0  0  0  0  0  0  0  0  0  0
   21.1299   18.9091   19.8583 H   0  0  0  0  0  0  0  0  0  0  0  0
   20.3355   20.4258   20.2831 H   0  0  0  0  0  0  0  0  0  0  0  0
   19.0011   18.9393   19.4312 C   0  0  0  0  0  0  0  0  0  0  0  0
   18.8759   17.8491   19.3990 H   0  0  0  0  0  0  0  0  0  0  0  0
   19.1290   19.2940   18.4003 H   0  0  0  0  0  0  0  0  0  0  0  0
   18.0755   19.3782   19.8258 H   0  0  0  0  0  0  0  0  0  0  0  0
   18.7267   19.4296   26.9866 C   0  0  0  0  0  0  0  0  0  0  0  0
   17.8152   19.1396   26.4595 H   0  0  0  0  0  0  0  0  0  0  0  0
   18.6859   19.0723   28.0180 H   0  0  0  0  0  0  0  0  0  0  0  0
   18.8300   20.5169   26.9768 H   0  0  0  0  0  0  0  0  0  0  0  0
  1  2  1  0  0  0  0
  1  3  1  0  0  0  0
  1  4  1  0  0  0  0
  4  5  1  0  0  0  0
  4  6  1  0  0  0  0
  4  7  1  0  0  0  0
  7  8  1  0  0  0  0
  7  9  1  0  0  0  0
  7 10  1  0  0  0  0
 10 11  1  0  0  0  0
 10 12  1  0  0  0  0
 10 13  1  0  0  0  0
 13 14  1  0  0  0  0
 13 15  1  0  0  0  0
 13 16  1  0  0  0  0
 16 17  1  0  0  0  0
 16 18  1  0  0  0  0
 16 19  1  0  0  0  0
 19 20  1  0  0  0  0
 19 21  1  0  0  0  0
 19 22  1  0  0  0  0
  1 23  1  0  0  0  0
 23 24  1  0  0  0  0
 23 25  1  0  0  0  0
 23 26  1  0  0  0  0
M  END
> <VM2 Rank>
6

> <Conf_Id>
1039

> <Probability>
2.67

> <Sum Probability>
24.01

> <Delta G>
0.560

> <G>
76.026

> <E>
43.766

> <-TS>
32.260

> <U+W>
22.304

> <U>
71.138

> <W>
-48.833

> <W(PB)>
-51.178

> <W(SA)>
2.344

> <Valence>
2.016

> <Coulomb>
68.932

> <VdW>
0.190

> <VdW6>
-5.902

> <VdW12>
6.092

> <Bond>
0.149

> <Angle>
0.477

> <Pdih>
1.390

> <Idih>
0.000

> <Tether>
0.000

$$$$
VeraChem MOL file


 26 25  0  0  0  0  0  0  0  0999 V2000     
   20.0151   18.8153   26.2927 N   0  3  0  0  0  0  0  0  0  0  0  0
   20.2815   17.8191   26.3293 H   0  0  0  0  0  0  0  0  0  0  0  0
   19.0813   18.8659   26.7291 H   0  0  0  0  0  0  0  0  0  0  0  0
   19.9460   19.2857   24.8538 C   0  0  0  0  0  0  0  0  0  0  0  0
   20.9506   19.2107   24.4308 H   0  0  0  0  0  0  0  0  0  0  0  0
   19.6515   20.3381   24.8588 H   0  0  0  0  0  0  0  0  0  0  0  0
   18.9565   18.4748   23.9950 C   0  0  0  0  0  0  0  0  0  0  0  0
   19.2514   17.4169   23.9914 H   0  0  0  0  0  0  0  0  0  0  0  0
   17.9602   18.5219   24.4546 H   0  0  0  0  0  0  0  0  0  0  0  0
   18.8633   18.9934   22.5405 C   0  0  0  0  0  0  0  0  0  0  0  0
   18.5417   20.0442   22.5461 H   0  0  0  0  0  0  0  0  0  0  0  0
   18.0781   18.4315   22.0159 H   0  0  0  0  0  0  0  0  0  0  0  0
   20.1934   18.8584   21.7603 C   0  0  0  0  0  0  0  0  0  0  0  0
   20.9764   19.4556   22.2464 H   0  0  0  0  0  0  0  0  0  0  0  0
   20.5292   17.8125   21.7850 H   0  0  0  0  0  0  0  0  0  0  0  0
   20.0465   19.3161   20.2919 C   0  0  0  0  0  0  0  0  0  0  0  0
   19.7099   20.3619   20.2611 H   0  0  0  0  0  0  0  0  0  0  0  0
   19.2706   18.7189   19.7924 H   0  0  0  0  0  0  0  0  0  0  0  0
   21.3738   19.1824   19.5151 C   0  0  0  0  0  0  0  0  0  0  0  0
   21.7189   18.1403   19.4994 H   0  0  0  0  0  0  0  0  0  0  0  0
   22.1616   19.7966   19.9705 H   0  0  0  0  0  0  0  0  0  0  0  0
   21.2493   19.5114   18.4753 H   0  0  0  0  0  0  0  0  0  0  0  0
   21.0134   19.6640   27.0677 C   0  0  0  0  0  0  0  0  0  0  0  0
   21.9995   19.5684   26.6078 H   0  0  0  0  0  0  0  0  0  0  0  0
   20.6930   20.7079   27.0428 H   0  0  0  0  0  0  0  0  0  0  0  0
   21.0534   19.3150   28.1020 H   0  0  0  0  0  0  0  0  0  0  0  0
  1  2  1  0  0  0  0
  1  3  1  0  0  0  0
  1  4  1  0  0  0  0
  4  5  1  0  0  0  0
  4  6  1  0  0  0  0
  4  7  1  0  0  0  0
  7  8  1  0  0  0  0
  7  9  1  0  0  0  0
  7 10  1  0  0  0  0
 10 11  1  0  0  0  0
 10 12  1  0  0  0  0
 10 13  1  0  0  0  0
 13 14  1  0  0  0  0
 13 15  1  0  0  0  0
 13 16  1  0  0  0  0
 16 17  1  0  0  0  0
 16 18  1  0  0  0  0
 16 19  1  0  0  0  0
 19 20  1  0  0  0  0
 19 21  1  0  0  0  0
 19 22  1  0  0  0  0
  1 23  1  0  0  0  0
 23 24  1  0  0  0  0
 23 25  1  0  0  0  0
 23 26  1  0  0  0  0
M  END
> <VM2 Rank>
7

> <Conf_Id>
1805

> <Probability>
2.54

> <Sum Probability>
26.55

> <Delta G>
0.591

> <G>
76.057

> <E>
43.796

> <-TS>
32.260

> <U+W>
22.335

> <U>
71.138

> <W>
-48.803

> <W(PB)>
-51.140

> <W(SA)>
2.337

> <Valence>
2.016

> <Coulomb>
68.932

> <VdW>
0.190

> <VdW6>
-5.902

> <VdW12>
6.092

> <Bond>
0.149

> <Angle>
0.477

> <Pdih>
1.390

> <Idih>
0.000

> <Tether>
0.000

$$$$
VeraChem MOL file


 26 25  0  0  0  0  0  0  0  0999 V2000     
   19.5898   19.7659   26.0203 N   0  3  0  0  0  0  0  0  0  0  0  0
   18.9699   19.9958   26.8132 H   0  0  0  0  0  0  0  0  0  0  0  0
   19.4484   20.5278   25.3404 H   0  0  0  0  0  0  0  0  0  0  0  0
   19.1669   18.4374   25.4125 C   0  0  0  0  0  0  0  0  0  0  0  0
   18.0907   18.4906   25.2292 H   0  0  0  0  0  0  0  0  0  0  0  0
   19.3419   17.6608   26.1614 H   0  0  0  0  0  0  0  0  0  0  0  0
   19.8814   18.0564   24.0973 C   0  0  0  0  0  0  0  0  0  0  0  0
   20.9580   17.9416   24.2782 H   0  0  0  0  0  0  0  0  0  0  0  0
   19.5153   17.0713   23.7791 H   0  0  0  0  0  0  0  0  0  0  0  0
   19.6409   19.0828   22.9649 C   0  0  0  0  0  0  0  0  0  0  0  0
   20.0424   20.0619   23.2586 H   0  0  0  0  0  0  0  0  0  0  0  0
   18.5605   19.2129   22.8118 H   0  0  0  0  0  0  0  0  0  0  0  0
   20.3007   18.6403   21.6390 C   0  0  0  0  0  0  0  0  0  0  0  0
   21.3805   18.5069   21.7927 H   0  0  0  0  0  0  0  0  0  0  0  0
   19.8999   17.6628   21.3369 H   0  0  0  0  0  0  0  0  0  0  0  0
   20.0645   19.6653   20.5073 C   0  0  0  0  0  0  0  0  0  0  0  0
   20.4664   20.6445   20.8033 H   0  0  0  0  0  0  0  0  0  0  0  0
   18.9855   19.8008   20.3483 H   0  0  0  0  0  0  0  0  0  0  0  0
   20.7247   19.2199   19.1849 C   0  0  0  0  0  0  0  0  0  0  0  0
   20.3180   18.2587   18.8446 H   0  0  0  0  0  0  0  0  0  0  0  0
   21.8104   19.1089   19.3033 H   0  0  0  0  0  0  0  0  0  0  0  0
   20.5462   19.9599   18.3939 H   0  0  0  0  0  0  0  0  0  0  0  0
   21.0391   19.7220   26.4907 C   0  0  0  0  0  0  0  0  0  0  0  0
   21.1549   18.9185   27.2214 H   0  0  0  0  0  0  0  0  0  0  0  0
   21.6914   19.5412   25.6339 H   0  0  0  0  0  0  0  0  0  0  0  0
   21.2945   20.6789   26.9512 H   0  0  0  0  0  0  0  0  0  0  0  0
  1  2  1  0  0  0  0
  1  3  1  0  0  0  0
  1  4  1  0  0  0  0
  4  5  1  0  0  0  0
  4  6  1  0  0  0  0
  4  7  1  0  0  0  0
  7  8  1  0  0  0  0
  7  9  1  0  0  0  0
  7 10  1  0  0  0  0
 10 11  1  0  0  0  0
 10 12  1  0  0  0  0
 10 13  1  0  0  0  0
 13 14  1  0  0  0  0
 13 15  1  0  0  0  0
 13 16  1  0  0  0  0
 16 17  1  0  0  0  0
 16 18  1  0  0  0  0
 16 19  1  0  0  0  0
 19 20  1  0  0  0  0
 19 21  1  0  0  0  0
 19 22  1  0  0  0  0
  1 23  1  0  0  0  0
 23 24  1  0  0  0  0
 23 25  1  0  0  0  0
 23 26  1  0  0  0  0
M  END
> <VM2 Rank>
8

> <Conf_Id>
1800

> <Probability>
2.52

> <Sum Probability>
29.07

> <Delta G>
0.594

> <G>
76.060

> <E>
43.581

> <-TS>
32.479

> <U+W>
22.119

> <U>
71.480

> <W>
-49.360

> <W(PB)>
-51.654

> <W(SA)>
2.294

> <Valence>
2.085

> <Coulomb>
68.999

> <VdW>
0.396

> <VdW6>
-6.753

> <VdW12>
7.148

> <Bond>
0.184

> <Angle>
0.576

> <Pdih>
1.325

> <Idih>
0.000

> <Tether>
0.000

$$$$
