@<TRIPOS>MOLECULE
guest-s13_vm2.mol2 : vm2 ligand conformer 1
          26          25           1
SMALL
USER_CHARGES
 
@<TRIPOS>ATOM
       1    C1      20.241427   18.656338   18.805962 C.3        1 MOL1        -0.2398
       2    H1      19.604562   19.497214   18.501702 H          1 MOL1         0.0972
       3    H2      21.055721   18.568691   18.075010 H          1 MOL1         0.0972
       4    H3      19.642417   17.737742   18.754872 H          1 MOL1         0.0972
       5    C2      20.805069   18.872830   20.226373 C.3        1 MOL1        -0.1383
       6    H4      21.426428   19.779318   20.237684 H          1 MOL1         0.0961
       7    H5      21.464179   18.033379   20.488698 H          1 MOL1         0.0961
       8    C3      19.678467   18.999468   21.275693 C.3        1 MOL1        -0.1407
       9    H6      19.020756   19.837628   21.006682 H          1 MOL1         0.0961
      10    H7      19.059242   18.091836   21.259431 H          1 MOL1         0.0961
      11    C4      20.238915   19.217313   22.699427 C.3        1 MOL1        -0.1407
      12    H8      20.854941   20.127250   22.715033 H          1 MOL1         0.0961
      13    H9      20.899964   18.379309   22.957561 H          1 MOL1         0.0961
      14    C5      19.107587   19.342248   23.748809 C.3        1 MOL1        -0.1472
      15    H10     18.427922   20.149003   23.443338 H          1 MOL1         0.0961
      16    H11     18.511888   18.419809   23.764592 H          1 MOL1         0.0961
      17    C6      19.633133   19.645588   25.168764 C.3        1 MOL1         0.1190
      18    H12     20.241854   20.553890   25.122221 H          1 MOL1         0.0923
      19    C7      18.460530   19.899599   26.129594 C.3        1 MOL1        -0.2463
      20    H13     17.844626   20.737666   25.780257 H          1 MOL1         0.0972
      21    H14     18.827553   20.152080   27.132052 H          1 MOL1         0.0972
      22    H15     17.817273   19.014704   26.213826 H          1 MOL1         0.0972
      23    N1      20.522872   18.554616   25.699379 N.4        1 MOL1        -0.5974
      24    H16     20.876897   18.781484   26.632986 H          1 MOL1         0.3625
      25    H17     20.021710   17.665125   25.769693 H          1 MOL1         0.3625
      26    H18     21.333712   18.404948   25.093137 H          1 MOL1         0.3625
@<TRIPOS>BOND
    1     1     2    1
    2     1     3    1
    3     1     4    1
    4     1     5    1
    5     5     6    1
    6     5     7    1
    7     5     8    1
    8     8     9    1
    9     8    10    1
   10     8    11    1
   11    11    12    1
   12    11    13    1
   13    11    14    1
   14    14    15    1
   15    14    16    1
   16    14    17    1
   17    17    18    1
   18    17    19    1
   19    19    20    1
   20    19    21    1
   21    19    22    1
   22    17    23    1
   23    23    24    1
   24    23    25    1
   25    23    26    1
@<TRIPOS>SUBSTRUCTURE
       1 MOL1            1 RESIDUE      1      MOL     
@<SCITEGIC>MOL_PROPERTY
VM2 Rank
SciTegic.value.IntegerValue
1

@<SCITEGIC>MOL_PROPERTY
Conf_Id
SciTegic.value.IntegerValue
1163

@<SCITEGIC>MOL_PROPERTY
Probability
SciTegic.value.DoubleValue
17.00

@<SCITEGIC>MOL_PROPERTY
Sum Probability
SciTegic.value.DoubleValue
17.00

@<SCITEGIC>MOL_PROPERTY
Delta G
SciTegic.value.DoubleValue
0.000

@<SCITEGIC>MOL_PROPERTY
G
SciTegic.value.DoubleValue
23.710

@<SCITEGIC>MOL_PROPERTY
E
SciTegic.value.DoubleValue
-8.843

@<SCITEGIC>MOL_PROPERTY
-TS
SciTegic.value.DoubleValue
32.553

@<SCITEGIC>MOL_PROPERTY
U+W
SciTegic.value.DoubleValue
-30.305

@<SCITEGIC>MOL_PROPERTY
U
SciTegic.value.DoubleValue
23.517

@<SCITEGIC>MOL_PROPERTY
W
SciTegic.value.DoubleValue
-53.819

@<SCITEGIC>MOL_PROPERTY
W(PB)
SciTegic.value.DoubleValue
-56.165

@<SCITEGIC>MOL_PROPERTY
W(SA)
SciTegic.value.DoubleValue
2.346

@<SCITEGIC>MOL_PROPERTY
Valence
SciTegic.value.DoubleValue
2.737

@<SCITEGIC>MOL_PROPERTY
Coulomb
SciTegic.value.DoubleValue
19.862

@<SCITEGIC>MOL_PROPERTY
VdW
SciTegic.value.DoubleValue
0.919

@<SCITEGIC>MOL_PROPERTY
VdW6
SciTegic.value.DoubleValue
-6.793

@<SCITEGIC>MOL_PROPERTY
VdW12
SciTegic.value.DoubleValue
7.712

@<SCITEGIC>MOL_PROPERTY
Bond
SciTegic.value.DoubleValue
0.171

@<SCITEGIC>MOL_PROPERTY
Angle
SciTegic.value.DoubleValue
0.873

@<SCITEGIC>MOL_PROPERTY
Pdih
SciTegic.value.DoubleValue
1.693

@<SCITEGIC>MOL_PROPERTY
Idih
SciTegic.value.DoubleValue
0.000

@<SCITEGIC>MOL_PROPERTY
Tether
SciTegic.value.DoubleValue
0.000

