VeraChem MOL file


 23 22  0  0  0  0  0  0  0  0999 V2000     
   19.7414   18.6610   26.4278 N   0  3  0  0  0  0  0  0  0  0  0  0
   20.7321   18.4175   26.5284 H   0  0  0  0  0  0  0  0  0  0  0  0
   19.2107   17.7845   26.4591 H   0  0  0  0  0  0  0  0  0  0  0  0
   19.4803   19.1972   27.2623 H   0  0  0  0  0  0  0  0  0  0  0  0
   19.4763   19.4376   25.1540 C   0  0  0  0  0  0  0  0  0  0  0  0
   20.0477   20.3686   25.2013 H   0  0  0  0  0  0  0  0  0  0  0  0
   18.4124   19.6883   25.1268 H   0  0  0  0  0  0  0  0  0  0  0  0
   19.8579   18.6596   23.8821 C   0  0  0  0  0  0  0  0  0  0  0  0
   20.9233   18.3958   23.9215 H   0  0  0  0  0  0  0  0  0  0  0  0
   19.2937   17.7180   23.8472 H   0  0  0  0  0  0  0  0  0  0  0  0
   19.5729   19.4847   22.6077 C   0  0  0  0  0  0  0  0  0  0  0  0
   20.1350   20.4281   22.6490 H   0  0  0  0  0  0  0  0  0  0  0  0
   18.5072   19.7511   22.5748 H   0  0  0  0  0  0  0  0  0  0  0  0
   19.9525   18.7125   21.3237 C   0  0  0  0  0  0  0  0  0  0  0  0
   21.0181   18.4461   21.3564 H   0  0  0  0  0  0  0  0  0  0  0  0
   19.3905   17.7692   21.2823 H   0  0  0  0  0  0  0  0  0  0  0  0
   19.6673   19.5379   20.0493 C   0  0  0  0  0  0  0  0  0  0  0  0
   20.2293   20.4818   20.0848 H   0  0  0  0  0  0  0  0  0  0  0  0
   18.6018   19.8049   20.0107 H   0  0  0  0  0  0  0  0  0  0  0  0
   20.0477   18.7637   18.7693 C   0  0  0  0  0  0  0  0  0  0  0  0
   21.1163   18.5122   18.7629 H   0  0  0  0  0  0  0  0  0  0  0  0
   19.8380   19.3655   17.8755 H   0  0  0  0  0  0  0  0  0  0  0  0
   19.4761   17.8299   18.6882 H   0  0  0  0  0  0  0  0  0  0  0  0
  1  2  1  0  0  0  0
  1  3  1  0  0  0  0
  1  4  1  0  0  0  0
  1  5  1  0  0  0  0
  5  6  1  0  0  0  0
  5  7  1  0  0  0  0
  5  8  1  0  0  0  0
  8  9  1  0  0  0  0
  8 10  1  0  0  0  0
  8 11  1  0  0  0  0
 11 12  1  0  0  0  0
 11 13  1  0  0  0  0
 11 14  1  0  0  0  0
 14 15  1  0  0  0  0
 14 16  1  0  0  0  0
 14 17  1  0  0  0  0
 17 18  1  0  0  0  0
 17 19  1  0  0  0  0
 17 20  1  0  0  0  0
 20 21  1  0  0  0  0
 20 22  1  0  0  0  0
 20 23  1  0  0  0  0
M  END
> <VM2 Rank>
1

> <Conf_Id>
242

> <Probability>
11.98

> <Sum Probability>
11.98

> <Delta G>
0.000

> <G>
37.916

> <E>
10.396

> <-TS>
27.520

> <U+W>
-8.383

> <U>
46.604

> <W>
-54.986

> <W(PB)>
-57.162

> <W(SA)>
2.176

> <Valence>
1.727

> <Coulomb>
44.434

> <VdW>
0.443

> <VdW6>
-4.623

> <VdW12>
5.066

> <Bond>
0.112

> <Angle>
0.386

> <Pdih>
1.228

> <Idih>
0.000

> <Tether>
0.000

$$$$
VeraChem MOL file


 23 22  0  0  0  0  0  0  0  0999 V2000     
   20.4491   19.4573   25.7940 N   0  3  0  0  0  0  0  0  0  0  0  0
   20.8558   20.1752   25.1866 H   0  0  0  0  0  0  0  0  0  0  0  0
   21.1373   18.7018   25.8732 H   0  0  0  0  0  0  0  0  0  0  0  0
   20.3534   19.8733   26.7266 H   0  0  0  0  0  0  0  0  0  0  0  0
   19.1204   18.9564   25.2623 C   0  0  0  0  0  0  0  0  0  0  0  0
   18.4287   19.8024   25.2256 H   0  0  0  0  0  0  0  0  0  0  0  0
   18.7300   18.2283   25.9787 H   0  0  0  0  0  0  0  0  0  0  0  0
   19.2146   18.3026   23.8699 C   0  0  0  0  0  0  0  0  0  0  0  0
   19.9143   17.4570   23.9086 H   0  0  0  0  0  0  0  0  0  0  0  0
   18.2316   17.8843   23.6156 H   0  0  0  0  0  0  0  0  0  0  0  0
   19.6475   19.2996   22.7689 C   0  0  0  0  0  0  0  0  0  0  0  0
   20.6464   19.6957   22.9955 H   0  0  0  0  0  0  0  0  0  0  0  0
   18.9592   20.1562   22.7599 H   0  0  0  0  0  0  0  0  0  0  0  0
   19.6671   18.6391   21.3717 C   0  0  0  0  0  0  0  0  0  0  0  0
   20.3533   17.7808   21.3807 H   0  0  0  0  0  0  0  0  0  0  0  0
   18.6686   18.2449   21.1370 H   0  0  0  0  0  0  0  0  0  0  0  0
   20.0997   19.6326   20.2705 C   0  0  0  0  0  0  0  0  0  0  0  0
   21.0996   20.0276   20.4987 H   0  0  0  0  0  0  0  0  0  0  0  0
   19.4151   20.4922   20.2563 H   0  0  0  0  0  0  0  0  0  0  0  0
   20.1175   18.9694   18.8768 C   0  0  0  0  0  0  0  0  0  0  0  0
   20.8197   18.1260   18.8498 H   0  0  0  0  0  0  0  0  0  0  0  0
   20.4269   19.6899   18.1085 H   0  0  0  0  0  0  0  0  0  0  0  0
   19.1221   18.5943   18.6053 H   0  0  0  0  0  0  0  0  0  0  0  0
  1  2  1  0  0  0  0
  1  3  1  0  0  0  0
  1  4  1  0  0  0  0
  1  5  1  0  0  0  0
  5  6  1  0  0  0  0
  5  7  1  0  0  0  0
  5  8  1  0  0  0  0
  8  9  1  0  0  0  0
  8 10  1  0  0  0  0
  8 11  1  0  0  0  0
 11 12  1  0  0  0  0
 11 13  1  0  0  0  0
 11 14  1  0  0  0  0
 14 15  1  0  0  0  0
 14 16  1  0  0  0  0
 14 17  1  0  0  0  0
 17 18  1  0  0  0  0
 17 19  1  0  0  0  0
 17 20  1  0  0  0  0
 20 21  1  0  0  0  0
 20 22  1  0  0  0  0
 20 23  1  0  0  0  0
M  END
> <VM2 Rank>
2

> <Conf_Id>
674

> <Probability>
7.37

> <Sum Probability>
19.35

> <Delta G>
0.290

> <G>
38.206

> <E>
10.584

> <-TS>
27.622

> <U+W>
-8.195

> <U>
47.288

> <W>
-55.483

> <W(PB)>
-57.632

> <W(SA)>
2.149

> <Valence>
1.833

> <Coulomb>
44.908

> <VdW>
0.548

> <VdW6>
-5.142

> <VdW12>
5.689

> <Bond>
0.133

> <Angle>
0.431

> <Pdih>
1.269

> <Idih>
0.000

> <Tether>
0.000

$$$$
VeraChem MOL file


 23 22  0  0  0  0  0  0  0  0999 V2000     
   18.7299   18.7422   25.7155 N   0  3  0  0  0  0  0  0  0  0  0  0
   17.9834   18.9805   25.0555 H   0  0  0  0  0  0  0  0  0  0  0  0
   18.4302   19.0733   26.6388 H   0  0  0  0  0  0  0  0  0  0  0  0
   18.7754   17.7194   25.7654 H   0  0  0  0  0  0  0  0  0  0  0  0
   20.0586   19.3465   25.3051 C   0  0  0  0  0  0  0  0  0  0  0  0
   20.7924   19.0860   26.0727 H   0  0  0  0  0  0  0  0  0  0  0  0
   19.9482   20.4343   25.2950 H   0  0  0  0  0  0  0  0  0  0  0  0
   20.5632   18.8636   23.9314 C   0  0  0  0  0  0  0  0  0  0  0  0
   21.5692   19.2725   23.7678 H   0  0  0  0  0  0  0  0  0  0  0  0
   20.6677   17.7704   23.9429 H   0  0  0  0  0  0  0  0  0  0  0  0
   19.6390   19.2961   22.7685 C   0  0  0  0  0  0  0  0  0  0  0  0
   19.5165   20.3881   22.7854 H   0  0  0  0  0  0  0  0  0  0  0  0
   18.6397   18.8611   22.9040 H   0  0  0  0  0  0  0  0  0  0  0  0
   20.2012   18.8613   21.3960 C   0  0  0  0  0  0  0  0  0  0  0  0
   21.1994   19.2977   21.2523 H   0  0  0  0  0  0  0  0  0  0  0  0
   20.3265   17.7697   21.3795 H   0  0  0  0  0  0  0  0  0  0  0  0
   19.2795   19.2914   20.2331 C   0  0  0  0  0  0  0  0  0  0  0  0
   19.1527   20.3831   20.2443 H   0  0  0  0  0  0  0  0  0  0  0  0
   18.2803   18.8549   20.3703 H   0  0  0  0  0  0  0  0  0  0  0  0
   19.8446   18.8558   18.8644 C   0  0  0  0  0  0  0  0  0  0  0  0
   19.1769   19.1699   18.0516 H   0  0  0  0  0  0  0  0  0  0  0  0
   19.9508   17.7645   18.8103 H   0  0  0  0  0  0  0  0  0  0  0  0
   20.8300   19.3046   18.6832 H   0  0  0  0  0  0  0  0  0  0  0  0
  1  2  1  0  0  0  0
  1  3  1  0  0  0  0
  1  4  1  0  0  0  0
  1  5  1  0  0  0  0
  5  6  1  0  0  0  0
  5  7  1  0  0  0  0
  5  8  1  0  0  0  0
  8  9  1  0  0  0  0
  8 10  1  0  0  0  0
  8 11  1  0  0  0  0
 11 12  1  0  0  0  0
 11 13  1  0  0  0  0
 11 14  1  0  0  0  0
 14 15  1  0  0  0  0
 14 16  1  0  0  0  0
 14 17  1  0  0  0  0
 17 18  1  0  0  0  0
 17 19  1  0  0  0  0
 17 20  1  0  0  0  0
 20 21  1  0  0  0  0
 20 22  1  0  0  0  0
 20 23  1  0  0  0  0
M  END
> <VM2 Rank>
3

> <Conf_Id>
745

> <Probability>
7.16

> <Sum Probability>
26.51

> <Delta G>
0.307

> <G>
38.223

> <E>
10.600

> <-TS>
27.623

> <U+W>
-8.179

> <U>
47.288

> <W>
-55.467

> <W(PB)>
-57.600

> <W(SA)>
2.133

> <Valence>
1.833

> <Coulomb>
44.908

> <VdW>
0.548

> <VdW6>
-5.142

> <VdW12>
5.689

> <Bond>
0.133

> <Angle>
0.431

> <Pdih>
1.269

> <Idih>
0.000

> <Tether>
0.000

$$$$
VeraChem MOL file


 23 22  0  0  0  0  0  0  0  0999 V2000     
   19.5097   18.2599   26.0549 N   0  3  0  0  0  0  0  0  0  0  0  0
   20.4067   17.7707   26.1373 H   0  0  0  0  0  0  0  0  0  0  0  0
   18.7901   17.6264   26.4193 H   0  0  0  0  0  0  0  0  0  0  0  0
   19.5460   19.0650   26.6885 H   0  0  0  0  0  0  0  0  0  0  0  0
   19.2220   18.6768   24.6269 C   0  0  0  0  0  0  0  0  0  0  0  0
   18.2433   19.1639   24.6081 H   0  0  0  0  0  0  0  0  0  0  0  0
   19.1674   17.7709   24.0178 H   0  0  0  0  0  0  0  0  0  0  0  0
   20.2860   19.6299   24.0505 C   0  0  0  0  0  0  0  0  0  0  0  0
   20.3622   20.5150   24.6960 H   0  0  0  0  0  0  0  0  0  0  0  0
   21.2692   19.1410   24.0703 H   0  0  0  0  0  0  0  0  0  0  0  0
   19.9615   20.0868   22.6086 C   0  0  0  0  0  0  0  0  0  0  0  0
   20.7077   20.8316   22.2989 H   0  0  0  0  0  0  0  0  0  0  0  0
   18.9890   20.5983   22.5965 H   0  0  0  0  0  0  0  0  0  0  0  0
   19.9519   18.9222   21.5893 C   0  0  0  0  0  0  0  0  0  0  0  0
   20.9139   18.3926   21.6277 H   0  0  0  0  0  0  0  0  0  0  0  0
   19.1762   18.1932   21.8592 H   0  0  0  0  0  0  0  0  0  0  0  0
   19.6978   19.4219   20.1497 C   0  0  0  0  0  0  0  0  0  0  0  0
   20.4737   20.1465   19.8655 H   0  0  0  0  0  0  0  0  0  0  0  0
   18.7367   19.9532   20.1057 H   0  0  0  0  0  0  0  0  0  0  0  0
   19.6871   18.2595   19.1342 C   0  0  0  0  0  0  0  0  0  0  0  0
   20.6483   17.7291   19.1311 H   0  0  0  0  0  0  0  0  0  0  0  0
   19.5058   18.6339   18.1183 H   0  0  0  0  0  0  0  0  0  0  0  0
   18.8974   17.5347   19.3719 H   0  0  0  0  0  0  0  0  0  0  0  0
  1  2  1  0  0  0  0
  1  3  1  0  0  0  0
  1  4  1  0  0  0  0
  1  5  1  0  0  0  0
  5  6  1  0  0  0  0
  5  7  1  0  0  0  0
  5  8  1  0  0  0  0
  8  9  1  0  0  0  0
  8 10  1  0  0  0  0
  8 11  1  0  0  0  0
 11 12  1  0  0  0  0
 11 13  1  0  0  0  0
 11 14  1  0  0  0  0
 14 15  1  0  0  0  0
 14 16  1  0  0  0  0
 14 17  1  0  0  0  0
 17 18  1  0  0  0  0
 17 19  1  0  0  0  0
 17 20  1  0  0  0  0
 20 21  1  0  0  0  0
 20 22  1  0  0  0  0
 20 23  1  0  0  0  0
M  END
> <VM2 Rank>
4

> <Conf_Id>
707

> <Probability>
5.52

> <Sum Probability>
32.03

> <Delta G>
0.462

> <G>
38.379

> <E>
10.760

> <-TS>
27.618

> <U+W>
-8.019

> <U>
47.375

> <W>
-55.393

> <W(PB)>
-57.545

> <W(SA)>
2.152

> <Valence>
2.032

> <Coulomb>
44.843

> <VdW>
0.499

> <VdW6>
-5.218

> <VdW12>
5.717

> <Bond>
0.135

> <Angle>
0.514

> <Pdih>
1.383

> <Idih>
0.000

> <Tether>
0.000

$$$$
VeraChem MOL file


 23 22  0  0  0  0  0  0  0  0999 V2000     
   20.2169   18.5540   26.0871 N   0  3  0  0  0  0  0  0  0  0  0  0
   21.1423   18.6047   26.5265 H   0  0  0  0  0  0  0  0  0  0  0  0
   19.9271   17.5711   26.1154 H   0  0  0  0  0  0  0  0  0  0  0  0
   19.5723   19.0758   26.6897 H   0  0  0  0  0  0  0  0  0  0  0  0
   20.2344   19.0979   24.6730 C   0  0  0  0  0  0  0  0  0  0  0  0
   20.9613   18.5170   24.0995 H   0  0  0  0  0  0  0  0  0  0  0  0
   20.5782   20.1350   24.7145 H   0  0  0  0  0  0  0  0  0  0  0  0
   18.8575   19.0357   23.9854 C   0  0  0  0  0  0  0  0  0  0  0  0
   18.5118   17.9941   23.9446 H   0  0  0  0  0  0  0  0  0  0  0  0
   18.1274   19.5855   24.5942 H   0  0  0  0  0  0  0  0  0  0  0  0
   18.8736   19.6344   22.5590 C   0  0  0  0  0  0  0  0  0  0  0  0
   19.1952   20.6841   22.6060 H   0  0  0  0  0  0  0  0  0  0  0  0
   17.8465   19.6416   22.1685 H   0  0  0  0  0  0  0  0  0  0  0  0
   19.7839   18.8524   21.5816 C   0  0  0  0  0  0  0  0  0  0  0  0
   20.8236   18.8785   21.9343 H   0  0  0  0  0  0  0  0  0  0  0  0
   19.4806   17.7964   21.5624 H   0  0  0  0  0  0  0  0  0  0  0  0
   19.7202   19.4312   20.1507 C   0  0  0  0  0  0  0  0  0  0  0  0
   20.0222   20.4879   20.1642 H   0  0  0  0  0  0  0  0  0  0  0  0
   18.6846   19.4023   19.7839 H   0  0  0  0  0  0  0  0  0  0  0  0
   20.6295   18.6514   19.1772 C   0  0  0  0  0  0  0  0  0  0  0  0
   20.5705   19.0766   18.1669 H   0  0  0  0  0  0  0  0  0  0  0  0
   20.3304   17.5968   19.1167 H   0  0  0  0  0  0  0  0  0  0  0  0
   21.6784   18.6914   19.4986 H   0  0  0  0  0  0  0  0  0  0  0  0
  1  2  1  0  0  0  0
  1  3  1  0  0  0  0
  1  4  1  0  0  0  0
  1  5  1  0  0  0  0
  5  6  1  0  0  0  0
  5  7  1  0  0  0  0
  5  8  1  0  0  0  0
  8  9  1  0  0  0  0
  8 10  1  0  0  0  0
  8 11  1  0  0  0  0
 11 12  1  0  0  0  0
 11 13  1  0  0  0  0
 11 14  1  0  0  0  0
 14 15  1  0  0  0  0
 14 16  1  0  0  0  0
 14 17  1  0  0  0  0
 17 18  1  0  0  0  0
 17 19  1  0  0  0  0
 17 20  1  0  0  0  0
 20 21  1  0  0  0  0
 20 22  1  0  0  0  0
 20 23  1  0  0  0  0
M  END
> <VM2 Rank>
5

> <Conf_Id>
692

> <Probability>
4.93

> <Sum Probability>
36.95

> <Delta G>
0.530

> <G>
38.446

> <E>
10.828

> <-TS>
27.618

> <U+W>
-7.951

> <U>
47.375

> <W>
-55.326

> <W(PB)>
-57.492

> <W(SA)>
2.166

> <Valence>
2.032

> <Coulomb>
44.843

> <VdW>
0.500

> <VdW6>
-5.218

> <VdW12>
5.718

> <Bond>
0.135

> <Angle>
0.514

> <Pdih>
1.383

> <Idih>
0.000

> <Tether>
0.000

$$$$
VeraChem MOL file


 23 22  0  0  0  0  0  0  0  0999 V2000     
   19.5474   18.7522   26.3216 N   0  3  0  0  0  0  0  0  0  0  0  0
   18.8411   18.9694   27.0330 H   0  0  0  0  0  0  0  0  0  0  0  0
   20.4083   19.2340   26.6000 H   0  0  0  0  0  0  0  0  0  0  0  0
   19.7318   17.7457   26.3829 H   0  0  0  0  0  0  0  0  0  0  0  0
   19.0936   19.1608   24.9349 C   0  0  0  0  0  0  0  0  0  0  0  0
   18.8875   20.2345   24.9499 H   0  0  0  0  0  0  0  0  0  0  0  0
   18.1603   18.6347   24.7165 H   0  0  0  0  0  0  0  0  0  0  0  0
   20.1323   18.8479   23.8432 C   0  0  0  0  0  0  0  0  0  0  0  0
   21.0728   19.3650   24.0758 H   0  0  0  0  0  0  0  0  0  0  0  0
   20.3480   17.7711   23.8423 H   0  0  0  0  0  0  0  0  0  0  0  0
   19.6322   19.2790   22.4466 C   0  0  0  0  0  0  0  0  0  0  0  0
   19.4160   20.3564   22.4517 H   0  0  0  0  0  0  0  0  0  0  0  0
   18.6865   18.7648   22.2299 H   0  0  0  0  0  0  0  0  0  0  0  0
   20.6695   18.9645   21.3418 C   0  0  0  0  0  0  0  0  0  0  0  0
   21.6298   19.4268   21.6089 H   0  0  0  0  0  0  0  0  0  0  0  0
   20.8494   17.8814   21.2995 H   0  0  0  0  0  0  0  0  0  0  0  0
   20.2524   19.4739   19.9408 C   0  0  0  0  0  0  0  0  0  0  0  0
   21.0845   19.3064   19.2427 H   0  0  0  0  0  0  0  0  0  0  0  0
   20.0925   20.5607   19.9728 H   0  0  0  0  0  0  0  0  0  0  0  0
   18.9887   18.7787   19.3850 C   0  0  0  0  0  0  0  0  0  0  0  0
   18.7903   19.1077   18.3567 H   0  0  0  0  0  0  0  0  0  0  0  0
   18.1009   19.0167   19.9838 H   0  0  0  0  0  0  0  0  0  0  0  0
   19.1121   17.6880   19.3703 H   0  0  0  0  0  0  0  0  0  0  0  0
  1  2  1  0  0  0  0
  1  3  1  0  0  0  0
  1  4  1  0  0  0  0
  1  5  1  0  0  0  0
  5  6  1  0  0  0  0
  5  7  1  0  0  0  0
  5  8  1  0  0  0  0
  8  9  1  0  0  0  0
  8 10  1  0  0  0  0
  8 11  1  0  0  0  0
 11 12  1  0  0  0  0
 11 13  1  0  0  0  0
 11 14  1  0  0  0  0
 14 15  1  0  0  0  0
 14 16  1  0  0  0  0
 14 17  1  0  0  0  0
 17 18  1  0  0  0  0
 17 19  1  0  0  0  0
 17 20  1  0  0  0  0
 20 21  1  0  0  0  0
 20 22  1  0  0  0  0
 20 23  1  0  0  0  0
M  END
> <VM2 Rank>
6

> <Conf_Id>
229

> <Probability>
4.33

> <Sum Probability>
41.29

> <Delta G>
0.606

> <G>
38.523

> <E>
10.892

> <-TS>
27.630

> <U+W>
-7.887

> <U>
47.264

> <W>
-55.151

> <W(PB)>
-57.313

> <W(SA)>
2.162

> <Valence>
2.234

> <Coulomb>
44.451

> <VdW>
0.580

> <VdW6>
-5.234

> <VdW12>
5.814

> <Bond>
0.148

> <Angle>
0.630

> <Pdih>
1.456

> <Idih>
0.000

> <Tether>
0.000

$$$$
VeraChem MOL file


 23 22  0  0  0  0  0  0  0  0999 V2000     
   19.8213   18.8660   26.3341 N   0  3  0  0  0  0  0  0  0  0  0  0
   20.3998   18.0234   26.4132 H   0  0  0  0  0  0  0  0  0  0  0  0
   18.8543   18.5872   26.5292 H   0  0  0  0  0  0  0  0  0  0  0  0
   20.1081   19.4962   27.0908 H   0  0  0  0  0  0  0  0  0  0  0  0
   19.9580   19.5203   24.9744 C   0  0  0  0  0  0  0  0  0  0  0  0
   21.0025   19.8171   24.8461 H   0  0  0  0  0  0  0  0  0  0  0  0
   19.3413   20.4232   24.9708 H   0  0  0  0  0  0  0  0  0  0  0  0
   19.5351   18.5995   23.8160 C   0  0  0  0  0  0  0  0  0  0  0  0
   20.1461   17.6872   23.8330 H   0  0  0  0  0  0  0  0  0  0  0  0
   18.4908   18.2909   23.9581 H   0  0  0  0  0  0  0  0  0  0  0  0
   19.6892   19.3029   22.4493 C   0  0  0  0  0  0  0  0  0  0  0  0
   20.7339   19.6165   22.3232 H   0  0  0  0  0  0  0  0  0  0  0  0
   19.0779   20.2159   22.4364 H   0  0  0  0  0  0  0  0  0  0  0  0
   19.2693   18.3823   21.2780 C   0  0  0  0  0  0  0  0  0  0  0  0
   19.9129   17.4921   21.2568 H   0  0  0  0  0  0  0  0  0  0  0  0
   18.2470   18.0202   21.4547 H   0  0  0  0  0  0  0  0  0  0  0  0
   19.3103   19.0822   19.8979 C   0  0  0  0  0  0  0  0  0  0  0  0
   18.6509   19.9613   19.9071 H   0  0  0  0  0  0  0  0  0  0  0  0
   18.8987   18.3975   19.1431 H   0  0  0  0  0  0  0  0  0  0  0  0
   20.7328   19.5038   19.4644 C   0  0  0  0  0  0  0  0  0  0  0  0
   21.4192   18.6472   19.4754 H   0  0  0  0  0  0  0  0  0  0  0  0
   21.1413   20.2808   20.1222 H   0  0  0  0  0  0  0  0  0  0  0  0
   20.7190   19.9094   18.4445 H   0  0  0  0  0  0  0  0  0  0  0  0
  1  2  1  0  0  0  0
  1  3  1  0  0  0  0
  1  4  1  0  0  0  0
  1  5  1  0  0  0  0
  5  6  1  0  0  0  0
  5  7  1  0  0  0  0
  5  8  1  0  0  0  0
  8  9  1  0  0  0  0
  8 10  1  0  0  0  0
  8 11  1  0  0  0  0
 11 12  1  0  0  0  0
 11 13  1  0  0  0  0
 11 14  1  0  0  0  0
 14 15  1  0  0  0  0
 14 16  1  0  0  0  0
 14 17  1  0  0  0  0
 17 18  1  0  0  0  0
 17 19  1  0  0  0  0
 17 20  1  0  0  0  0
 20 21  1  0  0  0  0
 20 22  1  0  0  0  0
 20 23  1  0  0  0  0
M  END
> <VM2 Rank>
7

> <Conf_Id>
714

> <Probability>
4.10

> <Sum Probability>
45.39

> <Delta G>
0.639

> <G>
38.555

> <E>
10.925

> <-TS>
27.630

> <U+W>
-7.854

> <U>
47.264

> <W>
-55.118

> <W(PB)>
-57.284

> <W(SA)>
2.165

> <Valence>
2.234

> <Coulomb>
44.451

> <VdW>
0.580

> <VdW6>
-5.234

> <VdW12>
5.814

> <Bond>
0.148

> <Angle>
0.630

> <Pdih>
1.457

> <Idih>
0.000

> <Tether>
0.000

$$$$
VeraChem MOL file


 23 22  0  0  0  0  0  0  0  0999 V2000     
   19.3992   18.2118   26.0667 N   0  3  0  0  0  0  0  0  0  0  0  0
   19.1879   18.5587   27.0085 H   0  0  0  0  0  0  0  0  0  0  0  0
   20.2615   17.6620   26.1385 H   0  0  0  0  0  0  0  0  0  0  0  0
   18.6476   17.5625   25.8129 H   0  0  0  0  0  0  0  0  0  0  0  0
   19.5314   19.3429   25.0670 C   0  0  0  0  0  0  0  0  0  0  0  0
   20.3260   20.0088   25.4143 H   0  0  0  0  0  0  0  0  0  0  0  0
   18.5916   19.9017   25.0635 H   0  0  0  0  0  0  0  0  0  0  0  0
   19.8496   18.8557   23.6422 C   0  0  0  0  0  0  0  0  0  0  0  0
   20.7856   18.2817   23.6538 H   0  0  0  0  0  0  0  0  0  0  0  0
   19.0554   18.1743   23.3124 H   0  0  0  0  0  0  0  0  0  0  0  0
   19.9779   20.0417   22.6573 C   0  0  0  0  0  0  0  0  0  0  0  0
   20.7195   20.7517   23.0492 H   0  0  0  0  0  0  0  0  0  0  0  0
   19.0253   20.5873   22.6082 H   0  0  0  0  0  0  0  0  0  0  0  0
   20.4085   19.6197   21.2308 C   0  0  0  0  0  0  0  0  0  0  0  0
   20.5872   20.5277   20.6384 H   0  0  0  0  0  0  0  0  0  0  0  0
   21.3695   19.0890   21.2778 H   0  0  0  0  0  0  0  0  0  0  0  0
   19.3632   18.7422   20.5020 C   0  0  0  0  0  0  0  0  0  0  0  0
   18.3886   19.2499   20.5004 H   0  0  0  0  0  0  0  0  0  0  0  0
   19.2269   17.7922   21.0354 H   0  0  0  0  0  0  0  0  0  0  0  0
   19.7861   18.4430   19.0479 C   0  0  0  0  0  0  0  0  0  0  0  0
   19.0358   17.8178   18.5468 H   0  0  0  0  0  0  0  0  0  0  0  0
   20.7445   17.9085   19.0178 H   0  0  0  0  0  0  0  0  0  0  0  0
   19.8930   19.3695   18.4688 H   0  0  0  0  0  0  0  0  0  0  0  0
  1  2  1  0  0  0  0
  1  3  1  0  0  0  0
  1  4  1  0  0  0  0
  1  5  1  0  0  0  0
  5  6  1  0  0  0  0
  5  7  1  0  0  0  0
  5  8  1  0  0  0  0
  8  9  1  0  0  0  0
  8 10  1  0  0  0  0
  8 11  1  0  0  0  0
 11 12  1  0  0  0  0
 11 13  1  0  0  0  0
 11 14  1  0  0  0  0
 14 15  1  0  0  0  0
 14 16  1  0  0  0  0
 14 17  1  0  0  0  0
 17 18  1  0  0  0  0
 17 19  1  0  0  0  0
 17 20  1  0  0  0  0
 20 21  1  0  0  0  0
 20 22  1  0  0  0  0
 20 23  1  0  0  0  0
M  END
> <VM2 Rank>
8

> <Conf_Id>
679

> <Probability>
3.53

> <Sum Probability>
48.92

> <Delta G>
0.728

> <G>
38.644

> <E>
11.025

> <-TS>
27.619

> <U+W>
-7.754

> <U>
47.562

> <W>
-55.316

> <W(PB)>
-57.472

> <W(SA)>
2.156

> <Valence>
2.273

> <Coulomb>
44.723

> <VdW>
0.566

> <VdW6>
-5.266

> <VdW12>
5.832

> <Bond>
0.151

> <Angle>
0.657

> <Pdih>
1.466

> <Idih>
0.000

> <Tether>
0.000

$$$$
