@<TRIPOS>MOLECULE
CD_guest-s12_fast_vm2_single.mol2 : feprocess host+ligand conformer 1
         152         157           2
SMALL
USER_CHARGES
 
@<TRIPOS>ATOM
       1    C1      16.297222   15.297174   20.736435 C.3        1 MOL1         0.2972
       2    H1      15.299068   14.984891   20.405418 H          1 MOL1         0.0751
       3    O1      16.372369   16.721076   20.946178 O.3        1 MOL1        -0.3740
       4    C2      16.664087   14.595918   22.071570 C.3        1 MOL1         0.1003
       5    H2      16.641643   13.513996   21.886605 H          1 MOL1         0.0783
       6    O2      15.716728   14.907867   23.104810 O.3        1 MOL1        -0.5519
       7    H3      15.438525   15.850756   22.984015 H          1 MOL1         0.3769
       8    C3      18.100007   14.966419   22.517805 C.3        1 MOL1         0.1053
       9    H4      18.129282   16.040971   22.744757 H          1 MOL1         0.0783
      10    O3      18.434648   14.212569   23.688938 O.3        1 MOL1        -0.5519
      11    H5      17.622806   14.242954   24.244655 H          1 MOL1         0.3769
      12    C4      19.098517   14.679575   21.366177 C.3        1 MOL1         0.1018
      13    H6      19.158364   13.594354   21.209774 H          1 MOL1         0.0783
      14    C5      18.644627   15.349650   20.042935 C.3        1 MOL1         0.1043
      15    H7      18.672002   16.437825   20.177578 H          1 MOL1         0.0783
      16    O4      17.287441   14.938969   19.746177 O.3        1 MOL1        -0.3740
      17    C6      19.550777   15.015087   18.830306 C.3        1 MOL1         0.0138
      18    H8      20.427511   15.674102   18.859979 H          1 MOL1         0.0794
      19    H9      19.003961   15.248423   17.907039 H          1 MOL1         0.0794
      20    O5      19.985851   13.649962   18.817177 O.3        1 MOL1        -0.5486
      21    H10     20.599731   13.530644   19.575350 H          1 MOL1         0.3769
      22    C7      14.566254   20.363140   20.479979 C.3        1 MOL1         0.2972
      23    H11     13.950404   21.247282   20.270749 H          1 MOL1         0.0751
      24    O6      15.932026   20.731044   20.783621 O.3        1 MOL1        -0.3740
      25    C8      13.959632   19.510229   21.625831 C.3        1 MOL1         0.1003
      26    H12     13.005486   19.111575   21.256794 H          1 MOL1         0.0783
      27    O7      13.702087   20.280779   22.807938 O.3        1 MOL1        -0.5519
      28    H13     14.583932   20.536293   23.177314 H          1 MOL1         0.3769
      29    C9      14.885579   18.309897   21.933943 C.3        1 MOL1         0.1053
      30    H14     15.837352   18.697299   22.320887 H          1 MOL1         0.0783
      31    O8      14.273182   17.471675   22.917684 O.3        1 MOL1        -0.5519
      32    H15     13.918112   18.087618   23.596960 H          1 MOL1         0.3769
      33    C10     15.184560   17.485161   20.656268 C.3        1 MOL1         0.1018
      34    H16     14.316015   16.846313   20.451886 H          1 MOL1         0.0783
      35    C11     15.498006   18.363536   19.409023 C.3        1 MOL1         0.1043
      36    H17     16.519089   18.742870   19.515195 H          1 MOL1         0.0783
      37    O9      14.597207   19.497504   19.325226 O.3        1 MOL1        -0.3740
      38    C12     15.445124   17.588411   18.069781 C.3        1 MOL1         0.0138
      39    H18     16.281182   16.876588   18.038474 H          1 MOL1         0.0794
      40    H19     15.599398   18.304246   17.251502 H          1 MOL1         0.0794
      41    O10     14.205105   16.895295   17.881671 O.3        1 MOL1        -0.5486
      42    H20     14.254492   16.047378   18.370463 H          1 MOL1         0.3769
      43    C13     18.473445   23.595689   22.322886 C.3        1 MOL1         0.2972
      44    H21     18.936990   24.474370   22.789300 H          1 MOL1         0.0751
      45    O11     19.447752   22.783567   21.636617 O.3        1 MOL1        -0.3740
      46    C14     17.769144   22.731990   23.397706 C.3        1 MOL1         0.1003
      47    H22     17.011255   23.365110   23.877300 H          1 MOL1         0.0783
      48    O12     18.695977   22.262085   24.391507 O.3        1 MOL1        -0.5519
      49    H23     19.495305   22.840305   24.338907 H          1 MOL1         0.3769
      50    C15     17.056331   21.524427   22.753579 C.3        1 MOL1         0.1053
      51    H24     17.827071   20.858229   22.358442 H          1 MOL1         0.0783
      52    O13     16.318272   20.845784   23.771543 O.3        1 MOL1        -0.5519
      53    H25     16.932369   20.820988   24.540460 H          1 MOL1         0.3769
      54    C16     16.148274   21.927699   21.563164 C.3        1 MOL1         0.1018
      55    H26     15.211553   22.349286   21.950667 H          1 MOL1         0.0783
      56    C17     16.838592   22.946683   20.611586 C.3        1 MOL1         0.1043
      57    H27     17.605475   22.409107   20.039463 H          1 MOL1         0.0783
      58    O14     17.476296   24.008752   21.365102 O.3        1 MOL1        -0.3740
      59    C18     15.868791   23.582177   19.586974 C.3        1 MOL1         0.0138
      60    H28     15.578773   22.812438   18.858996 H          1 MOL1         0.0794
      61    H29     16.404877   24.366946   19.036552 H          1 MOL1         0.0794
      62    O15     14.698497   24.122624   20.212941 O.3        1 MOL1        -0.5486
      63    H30     14.169437   24.572532   19.518388 H          1 MOL1         0.3769
      64    C19     23.607766   22.661751   21.229552 C.3        1 MOL1         0.2972
      65    H31     24.657086   22.932954   21.058366 H          1 MOL1         0.0751
      66    O16     23.437028   21.238551   21.373808 O.3        1 MOL1        -0.3740
      67    C20     23.097137   23.330589   22.529726 C.3        1 MOL1         0.1003
      68    H32     23.199714   24.416070   22.401241 H          1 MOL1         0.0783
      69    O17     23.880798   22.915687   23.660242 O.3        1 MOL1        -0.5519
      70    H33     24.215039   22.003550   23.469176 H          1 MOL1         0.3769
      71    C21     21.599369   23.020629   22.767093 C.3        1 MOL1         0.1053
      72    H34     21.496821   21.946329   22.972763 H          1 MOL1         0.0783
      73    O18     21.152694   23.777687   23.896966 O.3        1 MOL1        -0.5519
      74    H35     21.885904   23.705271   24.550152 H          1 MOL1         0.3769
      75    C22     20.762465   23.358205   21.503388 C.3        1 MOL1         0.1018
      76    H36     20.712288   24.448513   21.385875 H          1 MOL1         0.0783
      77    C23     21.384080   22.741054   20.222284 C.3        1 MOL1         0.1043
      78    H37     21.303238   21.650636   20.297316 H          1 MOL1         0.0783
      79    O19     22.782853   23.105928   20.131267 O.3        1 MOL1        -0.3740
      80    C24     20.666896   23.161141   18.915160 C.3        1 MOL1         0.0138
      81    H38     19.725626   22.602194   18.840140 H          1 MOL1         0.0794
      82    H39     21.289760   22.863134   18.061396 H          1 MOL1         0.0794
      83    O20     20.392289   24.565550   18.859141 O.3        1 MOL1        -0.5486
      84    H40     19.674625   24.751127   19.502821 H          1 MOL1         0.3769
      85    C25     25.212076   17.564150   20.748854 C.3        1 MOL1         0.2972
      86    H41     25.842774   16.704947   20.486943 H          1 MOL1         0.0751
      87    O21     23.871943   17.152552   21.090162 O.3        1 MOL1        -0.3740
      88    C26     25.832253   18.394511   21.906335 C.3        1 MOL1         0.1003
      89    H42     26.776884   18.810085   21.531747 H          1 MOL1         0.0783
      90    O22     26.112348   17.595030   23.064339 O.3        1 MOL1        -0.5519
      91    H43     25.240306   17.302609   23.429979 H          1 MOL1         0.3769
      92    C27     24.903653   19.578872   22.267115 C.3        1 MOL1         0.1053
      93    H44     23.965943   19.171771   22.668103 H          1 MOL1         0.0783
      94    O23     25.529411   20.405535   23.253293 O.3        1 MOL1        -0.5519
      95    H45     25.910896   19.781420   23.910258 H          1 MOL1         0.3769
      96    C28     24.568076   20.424351   21.013949 C.3        1 MOL1         0.1018
      97    H46     25.451609   21.023811   20.759501 H          1 MOL1         0.0783
      98    C29     24.158270   19.557914   19.789464 C.3        1 MOL1         0.1043
      99    H47     23.159631   19.147843   19.982774 H          1 MOL1         0.0783
     100    O24     25.094932   18.461446   19.621833 O.3        1 MOL1        -0.3740
     101    C30     24.064696   20.344072   18.458054 C.3        1 MOL1         0.0138
     102    H48     23.142777   20.939938   18.464820 H          1 MOL1         0.0794
     103    H49     23.975756   19.622194   17.635341 H          1 MOL1         0.0794
     104    O25     25.189462   21.202439   18.237354 O.3        1 MOL1        -0.5486
     105    H50     24.988802   22.063857   18.662395 H          1 MOL1         0.3769
     106    C31     21.264663   14.337434   22.414180 C.3        1 MOL1         0.2972
     107    H51     20.720790   13.475662   22.821689 H          1 MOL1         0.0751
     108    O26     20.384987   15.230210   21.701527 O.3        1 MOL1        -0.3740
     109    C32     21.938426   15.123103   23.563091 C.3        1 MOL1         0.1003
     110    H52     22.605757   14.427450   24.088485 H          1 MOL1         0.0783
     111    O27     20.953800   15.640173   24.476885 O.3        1 MOL1        -0.5519
     112    H53     20.154746   15.062806   24.393790 H          1 MOL1         0.3769
     113    C33     22.778540   16.296681   23.018218 C.3        1 MOL1         0.1053
     114    H54     22.074999   17.045898   22.653155 H          1 MOL1         0.0783
     115    O28     23.536920   16.860763   24.091361 O.3        1 MOL1        -0.5519
     116    H55     22.951391   16.796863   24.879029 H          1 MOL1         0.3769
     117    C34     23.688932   15.922696   21.819539 C.3        1 MOL1         0.1018
     118    H56     24.634017   15.507712   22.193344 H          1 MOL1         0.0783
     119    C35     23.020016   14.938730   20.816320 C.3        1 MOL1         0.1043
     120    H57     22.311161   15.513732   20.207287 H          1 MOL1         0.0783
     121    O29     22.293736   13.893526   21.507655 O.3        1 MOL1        -0.3740
     122    C36     24.022614   14.281639   19.838258 C.3        1 MOL1         0.0138
     123    H58     24.388067   15.051468   19.145281 H          1 MOL1         0.0794
     124    H59     23.488459   13.531292   19.239942 H          1 MOL1         0.0794
     125    O30     25.128465   13.678985   20.521509 O.3        1 MOL1        -0.5486
     126    H60     25.680388   13.220985   19.850329 H          1 MOL1         0.3769
     127    N1      20.489925   18.593028   24.184047 N.4        1 MOL1        -0.4857
     128    H1      21.467488   18.918621   24.144170 H          1 MOL1         0.3650
     129    H2      20.534934   17.554613   24.148584 H          1 MOL1         0.3650
     130    C1      19.698840   19.147286   23.016371 C.3        1 MOL1         0.0209
     131    H3      19.618829   20.228286   23.160802 H          1 MOL1         0.0967
     132    H4      18.693901   18.719635   23.064126 H          1 MOL1         0.0967
     133    C2      20.320358   18.865226   21.637029 C.3        1 MOL1        -0.1378
     134    H5      21.308815   19.339581   21.577458 H          1 MOL1         0.0993
     135    H6      20.464525   17.787303   21.516118 H          1 MOL1         0.0993
     136    C3      19.420258   19.358382   20.486546 C.3        1 MOL1        -0.1338
     137    H7      19.211318   20.428125   20.603264 H          1 MOL1         0.0993
     138    H8      18.454652   18.840831   20.546243 H          1 MOL1         0.0993
     139    C4      20.070972   19.111147   19.107692 C.3        1 MOL1        -0.1338
     140    H9      21.001437   19.688058   19.035758 H          1 MOL1         0.0993
     141    H10     20.350760   18.054021   19.011956 H          1 MOL1         0.0993
     142    C5      19.134429   19.500555   17.944205 C.3        1 MOL1        -0.1313
     143    H11     18.787473   20.535308   18.069087 H          1 MOL1         0.0993
     144    H12     18.240697   18.863773   17.959872 H          1 MOL1         0.0993
     145    C6      19.835933   19.355396   16.577771 C.3        1 MOL1        -0.2328
     146    H13     20.715232   20.009382   16.512444 H          1 MOL1         0.1004
     147    H14     19.154054   19.627165   15.761515 H          1 MOL1         0.1004
     148    H15     20.165441   18.321655   16.410320 H          1 MOL1         0.1004
     149    C7      19.838536   19.042095   25.482916 C.3        1 MOL1        -0.0781
     150    H16     18.820132   18.650254   25.525781 H          1 MOL1         0.0978
     151    H17     20.417946   18.658042   26.325204 H          1 MOL1         0.0978
     152    H18     19.815680   20.134264   25.513563 H          1 MOL1         0.0978
@<TRIPOS>BOND
    1     1     2    1
    2     1     3    1
    3     1     4    1
    4     4     5    1
    5     4     6    1
    6     6     7    1
    7     4     8    1
    8     8     9    1
    9     8    10    1
   10    10    11    1
   11     8    12    1
   12    12    13    1
   13    12    14    1
   14    14    15    1
   15     1    16    1
   16    14    16    1
   17    14    17    1
   18    17    18    1
   19    17    19    1
   20    17    20    1
   21    20    21    1
   22    22    23    1
   23    22    24    1
   24    22    25    1
   25    25    26    1
   26    25    27    1
   27    27    28    1
   28    25    29    1
   29    29    30    1
   30    29    31    1
   31    31    32    1
   32     3    33    1
   33    29    33    1
   34    33    34    1
   35    33    35    1
   36    35    36    1
   37    22    37    1
   38    35    37    1
   39    35    38    1
   40    38    39    1
   41    38    40    1
   42    38    41    1
   43    41    42    1
   44    43    44    1
   45    43    45    1
   46    43    46    1
   47    46    47    1
   48    46    48    1
   49    48    49    1
   50    46    50    1
   51    50    51    1
   52    50    52    1
   53    52    53    1
   54    24    54    1
   55    50    54    1
   56    54    55    1
   57    54    56    1
   58    56    57    1
   59    43    58    1
   60    56    58    1
   61    56    59    1
   62    59    60    1
   63    59    61    1
   64    59    62    1
   65    62    63    1
   66    64    65    1
   67    64    66    1
   68    64    67    1
   69    67    68    1
   70    67    69    1
   71    69    70    1
   72    67    71    1
   73    71    72    1
   74    71    73    1
   75    73    74    1
   76    45    75    1
   77    71    75    1
   78    75    76    1
   79    75    77    1
   80    77    78    1
   81    64    79    1
   82    77    79    1
   83    77    80    1
   84    80    81    1
   85    80    82    1
   86    80    83    1
   87    83    84    1
   88    85    86    1
   89    85    87    1
   90    85    88    1
   91    88    89    1
   92    88    90    1
   93    90    91    1
   94    88    92    1
   95    92    93    1
   96    92    94    1
   97    94    95    1
   98    66    96    1
   99    92    96    1
  100    96    97    1
  101    96    98    1
  102    98    99    1
  103    85   100    1
  104    98   100    1
  105    98   101    1
  106   101   102    1
  107   101   103    1
  108   101   104    1
  109   104   105    1
  110   106   107    1
  111    12   108    1
  112   106   108    1
  113   106   109    1
  114   109   110    1
  115   109   111    1
  116   111   112    1
  117   109   113    1
  118   113   114    1
  119   113   115    1
  120   115   116    1
  121    87   117    1
  122   113   117    1
  123   117   118    1
  124   117   119    1
  125   119   120    1
  126   106   121    1
  127   119   121    1
  128   119   122    1
  129   122   123    1
  130   122   124    1
  131   122   125    1
  132   125   126    1
  133   127   128    1
  134   127   129    1
  135   127   130    1
  136   130   131    1
  137   130   132    1
  138   130   133    1
  139   133   134    1
  140   133   135    1
  141   133   136    1
  142   136   137    1
  143   136   138    1
  144   136   139    1
  145   139   140    1
  146   139   141    1
  147   139   142    1
  148   142   143    1
  149   142   144    1
  150   142   145    1
  151   145   146    1
  152   145   147    1
  153   145   148    1
  154   127   149    1
  155   149   150    1
  156   149   151    1
  157   149   152    1
@<TRIPOS>SUBSTRUCTURE
       1 MOL1            1 RESIDUE      1      MOL     
       2 MOL1          152 RESIDUE      1      MOL     
@<SCITEGIC>MOL_PROPERTY
feprocess Rank
SciTegic.value.IntegerValue
1

@<SCITEGIC>MOL_PROPERTY
Conf_Id
SciTegic.value.IntegerValue
1

@<SCITEGIC>MOL_PROPERTY
Probability
SciTegic.value.DoubleValue
100.00

@<SCITEGIC>MOL_PROPERTY
G
SciTegic.value.DoubleValue
612.682

@<SCITEGIC>MOL_PROPERTY
E
SciTegic.value.DoubleValue
411.127

@<SCITEGIC>MOL_PROPERTY
-TS
SciTegic.value.DoubleValue
201.554

@<SCITEGIC>MOL_PROPERTY
U+W
SciTegic.value.DoubleValue
276.991

@<SCITEGIC>MOL_PROPERTY
U
SciTegic.value.DoubleValue
355.305

@<SCITEGIC>MOL_PROPERTY
W
SciTegic.value.DoubleValue
-78.315

@<SCITEGIC>MOL_PROPERTY
W(PB)
SciTegic.value.DoubleValue
-84.435

@<SCITEGIC>MOL_PROPERTY
W(SA)
SciTegic.value.DoubleValue
6.120

@<SCITEGIC>MOL_PROPERTY
Valence
SciTegic.value.DoubleValue
148.678

@<SCITEGIC>MOL_PROPERTY
Coulomb
SciTegic.value.DoubleValue
233.533

@<SCITEGIC>MOL_PROPERTY
VdW
SciTegic.value.DoubleValue
-26.907

@<SCITEGIC>MOL_PROPERTY
VdW6
SciTegic.value.DoubleValue
-181.116

@<SCITEGIC>MOL_PROPERTY
VdW12
SciTegic.value.DoubleValue
154.210

@<SCITEGIC>MOL_PROPERTY
Bond
SciTegic.value.DoubleValue
4.618

@<SCITEGIC>MOL_PROPERTY
Angle
SciTegic.value.DoubleValue
12.939

@<SCITEGIC>MOL_PROPERTY
Pdih
SciTegic.value.DoubleValue
131.121

@<SCITEGIC>MOL_PROPERTY
Idih
SciTegic.value.DoubleValue
0.000

@<SCITEGIC>MOL_PROPERTY
Tether
SciTegic.value.DoubleValue
0.000

