@<TRIPOS>MOLECULE
guest-s15_vm2.mol2 : vm2 ligand conformer 1
          29          28           1
SMALL
USER_CHARGES
 
@<TRIPOS>ATOM
       1    C1      19.530342   19.931302   18.743974 C.3        1 MOL1        -0.2426
       2    H1      18.590016   20.491945   18.825942 H          1 MOL1         0.0959
       3    H2      20.357872   20.652449   18.724079 H          1 MOL1         0.0959
       4    H3      19.523263   19.399769   17.783518 H          1 MOL1         0.0959
       5    C2      19.687965   18.938495   19.915018 C.3        1 MOL1        -0.1410
       6    H4      20.619561   18.369452   19.787658 H          1 MOL1         0.0948
       7    H5      18.865328   18.210156   19.888759 H          1 MOL1         0.0948
       8    C3      19.700961   19.661530   21.279935 C.3        1 MOL1        -0.1435
       9    H6      20.523399   20.389944   21.300638 H          1 MOL1         0.0948
      10    H7      18.768982   20.230761   21.401553 H          1 MOL1         0.0948
      11    C4      19.858627   18.670453   22.455076 C.3        1 MOL1        -0.1435
      12    H8      20.790228   18.100996   22.331370 H          1 MOL1         0.0948
      13    H9      19.035677   17.942578   22.433828 H          1 MOL1         0.0948
      14    C5      19.872360   19.394229   23.820407 C.3        1 MOL1        -0.1435
      15    H10     20.697876   20.119316   23.842159 H          1 MOL1         0.0948
      16    H11     18.941631   19.965891   23.933616 H          1 MOL1         0.0948
      17    C6      20.028952   18.399050   24.995769 C.3        1 MOL1        -0.1500
      18    H12     20.935575   17.800370   24.835383 H          1 MOL1         0.0948
      19    H13     19.185711   17.695550   25.001813 H          1 MOL1         0.0948
      20    C7      20.131366   19.098931   26.368225 C.3        1 MOL1         0.1162
      21    H14     20.961877   19.810538   26.329268 H          1 MOL1         0.0910
      22    C8      20.427947   18.070852   27.471583 C.3        1 MOL1        -0.2491
      23    H15     19.620660   17.332245   27.553405 H          1 MOL1         0.0959
      24    H16     21.362143   17.534358   27.263703 H          1 MOL1         0.0959
      25    H17     20.538209   18.566018   28.444242 H          1 MOL1         0.0959
      26    N1      18.897479   19.891158   26.704012 N.4        1 MOL1        -0.5987
      27    H18     18.070955   19.289771   26.756376 H          1 MOL1         0.3605
      28    H19     18.712048   20.610398   25.999741 H          1 MOL1         0.3605
      29    H20     18.990849   20.363884   27.607607 H          1 MOL1         0.3605
@<TRIPOS>BOND
    1     1     2    1
    2     1     3    1
    3     1     4    1
    4     1     5    1
    5     5     6    1
    6     5     7    1
    7     5     8    1
    8     8     9    1
    9     8    10    1
   10     8    11    1
   11    11    12    1
   12    11    13    1
   13    11    14    1
   14    14    15    1
   15    14    16    1
   16    14    17    1
   17    17    18    1
   18    17    19    1
   19    17    20    1
   20    20    21    1
   21    20    22    1
   22    22    23    1
   23    22    24    1
   24    22    25    1
   25    20    26    1
   26    26    27    1
   27    26    28    1
   28    26    29    1
@<TRIPOS>SUBSTRUCTURE
       1 MOL1            1 RESIDUE      1      MOL     
@<SCITEGIC>MOL_PROPERTY
VM2 Rank
SciTegic.value.IntegerValue
1

@<SCITEGIC>MOL_PROPERTY
Conf_Id
SciTegic.value.IntegerValue
718

@<SCITEGIC>MOL_PROPERTY
Probability
SciTegic.value.DoubleValue
10.36

@<SCITEGIC>MOL_PROPERTY
Sum Probability
SciTegic.value.DoubleValue
10.36

@<SCITEGIC>MOL_PROPERTY
Delta G
SciTegic.value.DoubleValue
0.000

@<SCITEGIC>MOL_PROPERTY
G
SciTegic.value.DoubleValue
33.702

@<SCITEGIC>MOL_PROPERTY
E
SciTegic.value.DoubleValue
-3.682

@<SCITEGIC>MOL_PROPERTY
-TS
SciTegic.value.DoubleValue
37.384

@<SCITEGIC>MOL_PROPERTY
U+W
SciTegic.value.DoubleValue
-27.827

@<SCITEGIC>MOL_PROPERTY
U
SciTegic.value.DoubleValue
23.963

@<SCITEGIC>MOL_PROPERTY
W
SciTegic.value.DoubleValue
-51.787

@<SCITEGIC>MOL_PROPERTY
W(PB)
SciTegic.value.DoubleValue
-54.343

@<SCITEGIC>MOL_PROPERTY
W(SA)
SciTegic.value.DoubleValue
2.556

@<SCITEGIC>MOL_PROPERTY
Valence
SciTegic.value.DoubleValue
3.166

@<SCITEGIC>MOL_PROPERTY
Coulomb
SciTegic.value.DoubleValue
19.734

@<SCITEGIC>MOL_PROPERTY
VdW
SciTegic.value.DoubleValue
1.063

@<SCITEGIC>MOL_PROPERTY
VdW6
SciTegic.value.DoubleValue
-7.939

@<SCITEGIC>MOL_PROPERTY
VdW12
SciTegic.value.DoubleValue
9.001

@<SCITEGIC>MOL_PROPERTY
Bond
SciTegic.value.DoubleValue
0.188

@<SCITEGIC>MOL_PROPERTY
Angle
SciTegic.value.DoubleValue
0.880

@<SCITEGIC>MOL_PROPERTY
Pdih
SciTegic.value.DoubleValue
2.098

@<SCITEGIC>MOL_PROPERTY
Idih
SciTegic.value.DoubleValue
0.000

@<SCITEGIC>MOL_PROPERTY
Tether
SciTegic.value.DoubleValue
0.000

@<TRIPOS>MOLECULE
guest-s15_vm2.mol2 : vm2 ligand conformer 2
          29          28           1
SMALL
USER_CHARGES
 
@<TRIPOS>ATOM
       1    C1      19.030745   19.352322   18.849831 C.3        1 MOL1        -0.2426
       2    H1      18.500224   18.391455   18.826745 H          1 MOL1         0.0959
       3    H2      18.285840   20.151839   18.955378 H          1 MOL1         0.0959
       4    H3      19.531820   19.484057   17.882039 H          1 MOL1         0.0959
       5    C2      20.054925   19.392732   20.003642 C.3        1 MOL1        -0.1410
       6    H4      20.592704   20.350934   19.980412 H          1 MOL1         0.0948
       7    H5      20.805400   18.604112   19.852770 H          1 MOL1         0.0948
       8    C3      19.375072   19.209499   21.378466 C.3        1 MOL1        -0.1435
       9    H6      18.624421   19.998673   21.523788 H          1 MOL1         0.0948
      10    H7      18.836879   18.251666   21.395988 H          1 MOL1         0.0948
      11    C4      20.397701   19.249152   22.536393 C.3        1 MOL1        -0.1435
      12    H8      20.935626   20.207132   22.517345 H          1 MOL1         0.0948
      13    H9      21.148108   18.459942   22.389779 H          1 MOL1         0.0948
      14    C5      19.717334   19.065641   23.911763 C.3        1 MOL1        -0.1435
      15    H10     18.968059   19.856040   24.051164 H          1 MOL1         0.0948
      16    H11     19.179004   18.108785   23.919110 H          1 MOL1         0.0948
      17    C6      20.749034   19.103042   25.069160 C.3        1 MOL1        -0.1500
      18    H12     21.313203   20.043597   25.018857 H          1 MOL1         0.0948
      19    H13     21.485343   18.301277   24.924940 H          1 MOL1         0.0948
      20    C7      20.143363   18.972226   26.486628 C.3        1 MOL1         0.1162
      21    H14     20.969319   19.044648   27.200999 H          1 MOL1         0.0910
      22    C8      19.461153   17.609913   26.701202 C.3        1 MOL1        -0.2491
      23    H15     20.145158   16.788233   26.455116 H          1 MOL1         0.0959
      24    H16     19.163149   17.491518   27.750192 H          1 MOL1         0.0959
      25    H17     18.561073   17.505045   26.083897 H          1 MOL1         0.0959
      26    N1      19.206672   20.101473   26.816915 N.4        1 MOL1        -0.5987
      27    H18     19.666562   21.011283   26.719590 H          1 MOL1         0.3605
      28    H19     18.863254   20.033302   27.779249 H          1 MOL1         0.3605
      29    H20     18.391372   20.100089   26.198997 H          1 MOL1         0.3605
@<TRIPOS>BOND
    1     1     2    1
    2     1     3    1
    3     1     4    1
    4     1     5    1
    5     5     6    1
    6     5     7    1
    7     5     8    1
    8     8     9    1
    9     8    10    1
   10     8    11    1
   11    11    12    1
   12    11    13    1
   13    11    14    1
   14    14    15    1
   15    14    16    1
   16    14    17    1
   17    17    18    1
   18    17    19    1
   19    17    20    1
   20    20    21    1
   21    20    22    1
   22    22    23    1
   23    22    24    1
   24    22    25    1
   25    20    26    1
   26    26    27    1
   27    26    28    1
   28    26    29    1
@<TRIPOS>SUBSTRUCTURE
       1 MOL1            1 RESIDUE      1      MOL     
@<SCITEGIC>MOL_PROPERTY
VM2 Rank
SciTegic.value.IntegerValue
2

@<SCITEGIC>MOL_PROPERTY
Conf_Id
SciTegic.value.IntegerValue
441

@<SCITEGIC>MOL_PROPERTY
Probability
SciTegic.value.DoubleValue
5.08

@<SCITEGIC>MOL_PROPERTY
Sum Probability
SciTegic.value.DoubleValue
15.44

@<SCITEGIC>MOL_PROPERTY
Delta G
SciTegic.value.DoubleValue
0.425

@<SCITEGIC>MOL_PROPERTY
G
SciTegic.value.DoubleValue
34.127

@<SCITEGIC>MOL_PROPERTY
E
SciTegic.value.DoubleValue
-3.403

@<SCITEGIC>MOL_PROPERTY
-TS
SciTegic.value.DoubleValue
37.530

@<SCITEGIC>MOL_PROPERTY
U+W
SciTegic.value.DoubleValue
-27.548

@<SCITEGIC>MOL_PROPERTY
U
SciTegic.value.DoubleValue
24.513

@<SCITEGIC>MOL_PROPERTY
W
SciTegic.value.DoubleValue
-52.061

@<SCITEGIC>MOL_PROPERTY
W(PB)
SciTegic.value.DoubleValue
-54.558

@<SCITEGIC>MOL_PROPERTY
W(SA)
SciTegic.value.DoubleValue
2.497

@<SCITEGIC>MOL_PROPERTY
Valence
SciTegic.value.DoubleValue
3.677

@<SCITEGIC>MOL_PROPERTY
Coulomb
SciTegic.value.DoubleValue
19.662

@<SCITEGIC>MOL_PROPERTY
VdW
SciTegic.value.DoubleValue
1.174

@<SCITEGIC>MOL_PROPERTY
VdW6
SciTegic.value.DoubleValue
-8.569

@<SCITEGIC>MOL_PROPERTY
VdW12
SciTegic.value.DoubleValue
9.743

@<SCITEGIC>MOL_PROPERTY
Bond
SciTegic.value.DoubleValue
0.224

@<SCITEGIC>MOL_PROPERTY
Angle
SciTegic.value.DoubleValue
1.211

@<SCITEGIC>MOL_PROPERTY
Pdih
SciTegic.value.DoubleValue
2.243

@<SCITEGIC>MOL_PROPERTY
Idih
SciTegic.value.DoubleValue
0.000

@<SCITEGIC>MOL_PROPERTY
Tether
SciTegic.value.DoubleValue
0.000

@<TRIPOS>MOLECULE
guest-s15_vm2.mol2 : vm2 ligand conformer 3
          29          28           1
SMALL
USER_CHARGES
 
@<TRIPOS>ATOM
       1    C1      20.203070   19.467356   18.690427 C.3        1 MOL1        -0.2426
       2    H1      20.598482   20.491420   18.704454 H          1 MOL1         0.0959
       3    H2      21.052468   18.773381   18.643790 H          1 MOL1         0.0959
       4    H3      19.616860   19.344932   17.770415 H          1 MOL1         0.0959
       5    C2      19.330229   19.192832   19.933263 C.3        1 MOL1        -0.1410
       6    H4      18.922132   18.174065   19.874357 H          1 MOL1         0.0948
       7    H5      18.471591   19.878862   19.934499 H          1 MOL1         0.0948
       8    C3      20.132032   19.358508   21.243071 C.3        1 MOL1        -0.1435
       9    H6      20.990449   18.672594   21.236051 H          1 MOL1         0.0948
      10    H7      20.539752   20.377494   21.296443 H          1 MOL1         0.0948
      11    C4      19.261267   19.084323   22.489944 C.3        1 MOL1        -0.1435
      12    H8      18.854156   18.065078   22.436047 H          1 MOL1         0.0948
      13    H9      18.402642   19.770033   22.494731 H          1 MOL1         0.0948
      14    C5      20.063805   19.250710   23.800215 C.3        1 MOL1        -0.1435
      15    H10     20.923341   18.567948   23.781340 H          1 MOL1         0.0948
      16    H11     20.466540   20.271579   23.856290 H          1 MOL1         0.0948
      17    C6      19.190221   18.970837   25.047753 C.3        1 MOL1        -0.1500
      18    H12     18.839183   17.930487   25.028354 H          1 MOL1         0.0948
      19    H13     18.293735   19.602734   24.995313 H          1 MOL1         0.0948
      20    C7      19.908585   19.252367   26.387207 C.3        1 MOL1         0.1162
      21    H14     20.285048   20.279713   26.365539 H          1 MOL1         0.0910
      22    C8      21.097243   18.302424   26.619543 C.3        1 MOL1        -0.2491
      23    H15     20.778951   17.252997   26.586204 H          1 MOL1         0.0959
      24    H16     21.878710   18.449158   25.865125 H          1 MOL1         0.0959
      25    H17     21.554232   18.488159   27.599350 H          1 MOL1         0.0959
      26    N1      18.949548   19.176643   27.542577 N.4        1 MOL1        -0.5987
      27    H18     19.412328   19.401267   28.428080 H          1 MOL1         0.3605
      28    H19     18.549879   18.238934   27.636093 H          1 MOL1         0.3605
      29    H20     18.171508   19.833177   27.430624 H          1 MOL1         0.3605
@<TRIPOS>BOND
    1     1     2    1
    2     1     3    1
    3     1     4    1
    4     1     5    1
    5     5     6    1
    6     5     7    1
    7     5     8    1
    8     8     9    1
    9     8    10    1
   10     8    11    1
   11    11    12    1
   12    11    13    1
   13    11    14    1
   14    14    15    1
   15    14    16    1
   16    14    17    1
   17    17    18    1
   18    17    19    1
   19    17    20    1
   20    20    21    1
   21    20    22    1
   22    22    23    1
   23    22    24    1
   24    22    25    1
   25    20    26    1
   26    26    27    1
   27    26    28    1
   28    26    29    1
@<TRIPOS>SUBSTRUCTURE
       1 MOL1            1 RESIDUE      1      MOL     
@<SCITEGIC>MOL_PROPERTY
VM2 Rank
SciTegic.value.IntegerValue
3

@<SCITEGIC>MOL_PROPERTY
Conf_Id
SciTegic.value.IntegerValue
58

@<SCITEGIC>MOL_PROPERTY
Probability
SciTegic.value.DoubleValue
5.06

@<SCITEGIC>MOL_PROPERTY
Sum Probability
SciTegic.value.DoubleValue
20.50

@<SCITEGIC>MOL_PROPERTY
Delta G
SciTegic.value.DoubleValue
0.427

@<SCITEGIC>MOL_PROPERTY
G
SciTegic.value.DoubleValue
34.129

@<SCITEGIC>MOL_PROPERTY
E
SciTegic.value.DoubleValue
-3.270

@<SCITEGIC>MOL_PROPERTY
-TS
SciTegic.value.DoubleValue
37.399

@<SCITEGIC>MOL_PROPERTY
U+W
SciTegic.value.DoubleValue
-27.414

@<SCITEGIC>MOL_PROPERTY
U
SciTegic.value.DoubleValue
24.279

@<SCITEGIC>MOL_PROPERTY
W
SciTegic.value.DoubleValue
-51.694

@<SCITEGIC>MOL_PROPERTY
W(PB)
SciTegic.value.DoubleValue
-54.271

@<SCITEGIC>MOL_PROPERTY
W(SA)
SciTegic.value.DoubleValue
2.577

@<SCITEGIC>MOL_PROPERTY
Valence
SciTegic.value.DoubleValue
3.709

@<SCITEGIC>MOL_PROPERTY
Coulomb
SciTegic.value.DoubleValue
19.380

@<SCITEGIC>MOL_PROPERTY
VdW
SciTegic.value.DoubleValue
1.191

@<SCITEGIC>MOL_PROPERTY
VdW6
SciTegic.value.DoubleValue
-8.093

@<SCITEGIC>MOL_PROPERTY
VdW12
SciTegic.value.DoubleValue
9.284

@<SCITEGIC>MOL_PROPERTY
Bond
SciTegic.value.DoubleValue
0.200

@<SCITEGIC>MOL_PROPERTY
Angle
SciTegic.value.DoubleValue
1.161

@<SCITEGIC>MOL_PROPERTY
Pdih
SciTegic.value.DoubleValue
2.348

@<SCITEGIC>MOL_PROPERTY
Idih
SciTegic.value.DoubleValue
0.000

@<SCITEGIC>MOL_PROPERTY
Tether
SciTegic.value.DoubleValue
0.000

@<TRIPOS>MOLECULE
guest-s15_vm2.mol2 : vm2 ligand conformer 4
          29          28           1
SMALL
USER_CHARGES
 
@<TRIPOS>ATOM
       1    C1      18.828658   18.794362   19.403800 C.3        1 MOL1        -0.2426
       2    H1      18.881462   18.512046   18.344345 H          1 MOL1         0.0959
       3    H2      18.682913   17.874282   19.983173 H          1 MOL1         0.0959
       4    H3      17.943830   19.429997   19.538248 H          1 MOL1         0.0959
       5    C2      20.115636   19.536103   19.830450 C.3        1 MOL1        -0.1410
       6    H4      20.282425   20.378595   19.144775 H          1 MOL1         0.0948
       7    H5      20.981828   18.869658   19.715155 H          1 MOL1         0.0948
       8    C3      20.061531   20.078275   21.279078 C.3        1 MOL1        -0.1435
       9    H6      20.961686   20.682121   21.459044 H          1 MOL1         0.0948
      10    H7      19.206019   20.759711   21.383799 H          1 MOL1         0.0948
      11    C4      19.977084   18.965421   22.351028 C.3        1 MOL1        -0.1435
      12    H8      20.804800   18.256901   22.209359 H          1 MOL1         0.0948
      13    H9      19.045622   18.397493   22.227483 H          1 MOL1         0.0948
      14    C5      20.030790   19.543754   23.783157 C.3        1 MOL1        -0.1435
      15    H10     20.965724   20.105607   23.916846 H          1 MOL1         0.0948
      16    H11     19.206955   20.258102   23.913040 H          1 MOL1         0.0948
      17    C6      19.940839   18.430587   24.855156 C.3        1 MOL1        -0.1500
      18    H12     20.738928   17.698255   24.673925 H          1 MOL1         0.0948
      19    H13     18.990284   17.890550   24.751211 H          1 MOL1         0.0948
      20    C7      20.077480   18.969039   26.295747 C.3        1 MOL1         0.1162
      21    H14     21.019064   19.522167   26.367323 H          1 MOL1         0.0910
      22    C8      20.123615   17.805583   27.299011 C.3        1 MOL1        -0.2491
      23    H15     20.962326   17.133538   27.078375 H          1 MOL1         0.0959
      24    H16     20.257331   18.179655   28.321555 H          1 MOL1         0.0959
      25    H17     19.197565   17.217848   27.268220 H          1 MOL1         0.0959
      26    N1      18.980367   19.932877   26.656574 N.4        1 MOL1        -0.5987
      27    H18     18.060903   19.485714   26.609999 H          1 MOL1         0.3605
      28    H19     18.965548   20.736408   26.022693 H          1 MOL1         0.3605
      29    H20     19.097975   20.294649   27.607341 H          1 MOL1         0.3605
@<TRIPOS>BOND
    1     1     2    1
    2     1     3    1
    3     1     4    1
    4     1     5    1
    5     5     6    1
    6     5     7    1
    7     5     8    1
    8     8     9    1
    9     8    10    1
   10     8    11    1
   11    11    12    1
   12    11    13    1
   13    11    14    1
   14    14    15    1
   15    14    16    1
   16    14    17    1
   17    17    18    1
   18    17    19    1
   19    17    20    1
   20    20    21    1
   21    20    22    1
   22    22    23    1
   23    22    24    1
   24    22    25    1
   25    20    26    1
   26    26    27    1
   27    26    28    1
   28    26    29    1
@<TRIPOS>SUBSTRUCTURE
       1 MOL1            1 RESIDUE      1      MOL     
@<SCITEGIC>MOL_PROPERTY
VM2 Rank
SciTegic.value.IntegerValue
4

@<SCITEGIC>MOL_PROPERTY
Conf_Id
SciTegic.value.IntegerValue
1220

@<SCITEGIC>MOL_PROPERTY
Probability
SciTegic.value.DoubleValue
3.90

@<SCITEGIC>MOL_PROPERTY
Sum Probability
SciTegic.value.DoubleValue
24.40

@<SCITEGIC>MOL_PROPERTY
Delta G
SciTegic.value.DoubleValue
0.582

@<SCITEGIC>MOL_PROPERTY
G
SciTegic.value.DoubleValue
34.284

@<SCITEGIC>MOL_PROPERTY
E
SciTegic.value.DoubleValue
-3.211

@<SCITEGIC>MOL_PROPERTY
-TS
SciTegic.value.DoubleValue
37.495

@<SCITEGIC>MOL_PROPERTY
U+W
SciTegic.value.DoubleValue
-27.356

@<SCITEGIC>MOL_PROPERTY
U
SciTegic.value.DoubleValue
24.589

@<SCITEGIC>MOL_PROPERTY
W
SciTegic.value.DoubleValue
-51.945

@<SCITEGIC>MOL_PROPERTY
W(PB)
SciTegic.value.DoubleValue
-54.480

@<SCITEGIC>MOL_PROPERTY
W(SA)
SciTegic.value.DoubleValue
2.535

@<SCITEGIC>MOL_PROPERTY
Valence
SciTegic.value.DoubleValue
3.670

@<SCITEGIC>MOL_PROPERTY
Coulomb
SciTegic.value.DoubleValue
19.723

@<SCITEGIC>MOL_PROPERTY
VdW
SciTegic.value.DoubleValue
1.196

@<SCITEGIC>MOL_PROPERTY
VdW6
SciTegic.value.DoubleValue
-8.561

@<SCITEGIC>MOL_PROPERTY
VdW12
SciTegic.value.DoubleValue
9.757

@<SCITEGIC>MOL_PROPERTY
Bond
SciTegic.value.DoubleValue
0.223

@<SCITEGIC>MOL_PROPERTY
Angle
SciTegic.value.DoubleValue
1.119

@<SCITEGIC>MOL_PROPERTY
Pdih
SciTegic.value.DoubleValue
2.329

@<SCITEGIC>MOL_PROPERTY
Idih
SciTegic.value.DoubleValue
0.000

@<SCITEGIC>MOL_PROPERTY
Tether
SciTegic.value.DoubleValue
0.000

@<TRIPOS>MOLECULE
guest-s15_vm2.mol2 : vm2 ligand conformer 5
          29          28           1
SMALL
USER_CHARGES
 
@<TRIPOS>ATOM
       1    C1      20.485748   18.897345   19.301264 C.3        1 MOL1        -0.2426
       2    H1      20.354210   18.590460   18.255581 H          1 MOL1         0.0959
       3    H2      21.278297   19.656288   19.331330 H          1 MOL1         0.0959
       4    H3      20.828702   18.018943   19.861842 H          1 MOL1         0.0959
       5    C2      19.161684   19.453757   19.872047 C.3        1 MOL1        -0.1410
       6    H4      18.394182   18.667308   19.859104 H          1 MOL1         0.0948
       7    H5      18.797129   20.250170   19.208279 H          1 MOL1         0.0948
       8    C3      19.301000   20.025610   21.303480 C.3        1 MOL1        -0.1435
       9    H6      20.054791   20.824999   21.307299 H          1 MOL1         0.0948
      10    H7      18.349064   20.496910   21.584496 H          1 MOL1         0.0948
      11    C4      19.667701   18.957208   22.361181 C.3        1 MOL1        -0.1435
      12    H8      20.651008   18.526466   22.131102 H          1 MOL1         0.0948
      13    H9      18.940464   18.134673   22.318978 H          1 MOL1         0.0948
      14    C5      19.695029   19.549207   23.788480 C.3        1 MOL1        -0.1435
      15    H10     20.422608   20.371796   23.829373 H          1 MOL1         0.0948
      16    H11     18.711594   19.980332   24.018254 H          1 MOL1         0.0948
      17    C6      20.064451   18.480615   24.845878 C.3        1 MOL1        -0.1500
      18    H12     21.024106   18.024118   24.568803 H          1 MOL1         0.0948
      19    H13     19.319036   17.674242   24.835244 H          1 MOL1         0.0948
      20    C7      20.182708   19.059997   26.272150 C.3        1 MOL1         0.1162
      21    H14     20.911982   19.875712   26.251649 H          1 MOL1         0.0910
      22    C8      20.689230   17.983989   27.245775 C.3        1 MOL1        -0.2491
      23    H15     19.989583   17.140791   27.304607 H          1 MOL1         0.0959
      24    H16     21.664735   17.596874   26.925941 H          1 MOL1         0.0959
      25    H17     20.810396   18.398734   28.254097 H          1 MOL1         0.0959
      26    N1      18.888449   19.648271   26.763745 N.4        1 MOL1        -0.5987
      27    H18     18.150335   18.940640   26.808332 H          1 MOL1         0.3605
      28    H19     18.561067   20.397734   26.148267 H          1 MOL1         0.3605
      29    H20     18.990459   20.045000   27.702289 H          1 MOL1         0.3605
@<TRIPOS>BOND
    1     1     2    1
    2     1     3    1
    3     1     4    1
    4     1     5    1
    5     5     6    1
    6     5     7    1
    7     5     8    1
    8     8     9    1
    9     8    10    1
   10     8    11    1
   11    11    12    1
   12    11    13    1
   13    11    14    1
   14    14    15    1
   15    14    16    1
   16    14    17    1
   17    17    18    1
   18    17    19    1
   19    17    20    1
   20    20    21    1
   21    20    22    1
   22    22    23    1
   23    22    24    1
   24    22    25    1
   25    20    26    1
   26    26    27    1
   27    26    28    1
   28    26    29    1
@<TRIPOS>SUBSTRUCTURE
       1 MOL1            1 RESIDUE      1      MOL     
@<SCITEGIC>MOL_PROPERTY
VM2 Rank
SciTegic.value.IntegerValue
5

@<SCITEGIC>MOL_PROPERTY
Conf_Id
SciTegic.value.IntegerValue
1303

@<SCITEGIC>MOL_PROPERTY
Probability
SciTegic.value.DoubleValue
3.79

@<SCITEGIC>MOL_PROPERTY
Sum Probability
SciTegic.value.DoubleValue
28.19

@<SCITEGIC>MOL_PROPERTY
Delta G
SciTegic.value.DoubleValue
0.600

@<SCITEGIC>MOL_PROPERTY
G
SciTegic.value.DoubleValue
34.302

@<SCITEGIC>MOL_PROPERTY
E
SciTegic.value.DoubleValue
-3.193

@<SCITEGIC>MOL_PROPERTY
-TS
SciTegic.value.DoubleValue
37.495

@<SCITEGIC>MOL_PROPERTY
U+W
SciTegic.value.DoubleValue
-27.338

@<SCITEGIC>MOL_PROPERTY
U
SciTegic.value.DoubleValue
24.574

@<SCITEGIC>MOL_PROPERTY
W
SciTegic.value.DoubleValue
-51.911

@<SCITEGIC>MOL_PROPERTY
W(PB)
SciTegic.value.DoubleValue
-54.448

@<SCITEGIC>MOL_PROPERTY
W(SA)
SciTegic.value.DoubleValue
2.537

@<SCITEGIC>MOL_PROPERTY
Valence
SciTegic.value.DoubleValue
3.669

@<SCITEGIC>MOL_PROPERTY
Coulomb
SciTegic.value.DoubleValue
19.705

@<SCITEGIC>MOL_PROPERTY
VdW
SciTegic.value.DoubleValue
1.200

@<SCITEGIC>MOL_PROPERTY
VdW6
SciTegic.value.DoubleValue
-8.560

@<SCITEGIC>MOL_PROPERTY
VdW12
SciTegic.value.DoubleValue
9.760

@<SCITEGIC>MOL_PROPERTY
Bond
SciTegic.value.DoubleValue
0.223

@<SCITEGIC>MOL_PROPERTY
Angle
SciTegic.value.DoubleValue
1.119

@<SCITEGIC>MOL_PROPERTY
Pdih
SciTegic.value.DoubleValue
2.327

@<SCITEGIC>MOL_PROPERTY
Idih
SciTegic.value.DoubleValue
0.000

@<SCITEGIC>MOL_PROPERTY
Tether
SciTegic.value.DoubleValue
0.000

@<TRIPOS>MOLECULE
guest-s15_vm2.mol2 : vm2 ligand conformer 6
          29          28           1
SMALL
USER_CHARGES
 
@<TRIPOS>ATOM
       1    C1      20.674760   18.986862   19.135397 C.3        1 MOL1        -0.2426
       2    H1      21.274837   18.112973   19.420816 H          1 MOL1         0.0959
       3    H2      20.335277   18.839590   18.101905 H          1 MOL1         0.0959
       4    H3      21.326596   19.870056   19.153490 H          1 MOL1         0.0959
       5    C2      19.470685   19.166820   20.083965 C.3        1 MOL1        -0.1410
       6    H4      18.820482   18.283067   20.019727 H          1 MOL1         0.0948
       7    H5      18.871335   20.026347   19.752498 H          1 MOL1         0.0948
       8    C3      19.921146   19.377081   21.546515 C.3        1 MOL1        -0.1435
       9    H6      20.526338   18.516809   21.860366 H          1 MOL1         0.0948
      10    H7      20.568548   20.262823   21.605853 H          1 MOL1         0.0948
      11    C4      18.713913   19.552971   22.498966 C.3        1 MOL1        -0.1435
      12    H8      18.096063   18.644449   22.486656 H          1 MOL1         0.0948
      13    H9      18.076652   20.363822   22.119731 H          1 MOL1         0.0948
      14    C5      19.114782   19.888384   23.956734 C.3        1 MOL1        -0.1435
      15    H10     19.730276   20.798611   23.968122 H          1 MOL1         0.0948
      16    H11     18.199127   20.127486   24.513237 H          1 MOL1         0.0948
      17    C6      19.869851   18.738119   24.671498 C.3        1 MOL1        -0.1500
      18    H12     20.796788   18.519272   24.127313 H          1 MOL1         0.0948
      19    H13     19.264542   17.822368   24.643782 H          1 MOL1         0.0948
      20    C7      20.234182   19.074901   26.133915 C.3        1 MOL1         0.1162
      21    H14     20.804768   20.008741   26.138952 H          1 MOL1         0.0910
      22    C8      21.115728   17.967589   26.733394 C.3        1 MOL1        -0.2491
      23    H15     20.587574   17.005988   26.751650 H          1 MOL1         0.0959
      24    H16     22.035269   17.841323   26.148362 H          1 MOL1         0.0959
      25    H17     21.407340   18.217062   27.761080 H          1 MOL1         0.0959
      26    N1      19.020951   19.303271   26.993615 N.4        1 MOL1        -0.5987
      27    H18     19.282941   19.542177   27.954306 H          1 MOL1         0.3605
      28    H19     18.430877   18.468041   27.035289 H          1 MOL1         0.3605
      29    H20     18.446158   20.069775   26.633526 H          1 MOL1         0.3605
@<TRIPOS>BOND
    1     1     2    1
    2     1     3    1
    3     1     4    1
    4     1     5    1
    5     5     6    1
    6     5     7    1
    7     5     8    1
    8     8     9    1
    9     8    10    1
   10     8    11    1
   11    11    12    1
   12    11    13    1
   13    11    14    1
   14    14    15    1
   15    14    16    1
   16    14    17    1
   17    17    18    1
   18    17    19    1
   19    17    20    1
   20    20    21    1
   21    20    22    1
   22    22    23    1
   23    22    24    1
   24    22    25    1
   25    20    26    1
   26    26    27    1
   27    26    28    1
   28    26    29    1
@<TRIPOS>SUBSTRUCTURE
       1 MOL1            1 RESIDUE      1      MOL     
@<SCITEGIC>MOL_PROPERTY
VM2 Rank
SciTegic.value.IntegerValue
6

@<SCITEGIC>MOL_PROPERTY
Conf_Id
SciTegic.value.IntegerValue
1308

@<SCITEGIC>MOL_PROPERTY
Probability
SciTegic.value.DoubleValue
3.48

@<SCITEGIC>MOL_PROPERTY
Sum Probability
SciTegic.value.DoubleValue
31.67

@<SCITEGIC>MOL_PROPERTY
Delta G
SciTegic.value.DoubleValue
0.650

@<SCITEGIC>MOL_PROPERTY
G
SciTegic.value.DoubleValue
34.352

@<SCITEGIC>MOL_PROPERTY
E
SciTegic.value.DoubleValue
-3.103

@<SCITEGIC>MOL_PROPERTY
-TS
SciTegic.value.DoubleValue
37.455

@<SCITEGIC>MOL_PROPERTY
U+W
SciTegic.value.DoubleValue
-27.248

@<SCITEGIC>MOL_PROPERTY
U
SciTegic.value.DoubleValue
24.710

@<SCITEGIC>MOL_PROPERTY
W
SciTegic.value.DoubleValue
-51.958

@<SCITEGIC>MOL_PROPERTY
W(PB)
SciTegic.value.DoubleValue
-54.513

@<SCITEGIC>MOL_PROPERTY
W(SA)
SciTegic.value.DoubleValue
2.555

@<SCITEGIC>MOL_PROPERTY
Valence
SciTegic.value.DoubleValue
3.735

@<SCITEGIC>MOL_PROPERTY
Coulomb
SciTegic.value.DoubleValue
19.760

@<SCITEGIC>MOL_PROPERTY
VdW
SciTegic.value.DoubleValue
1.216

@<SCITEGIC>MOL_PROPERTY
VdW6
SciTegic.value.DoubleValue
-8.624

@<SCITEGIC>MOL_PROPERTY
VdW12
SciTegic.value.DoubleValue
9.840

@<SCITEGIC>MOL_PROPERTY
Bond
SciTegic.value.DoubleValue
0.236

@<SCITEGIC>MOL_PROPERTY
Angle
SciTegic.value.DoubleValue
1.168

@<SCITEGIC>MOL_PROPERTY
Pdih
SciTegic.value.DoubleValue
2.330

@<SCITEGIC>MOL_PROPERTY
Idih
SciTegic.value.DoubleValue
0.000

@<SCITEGIC>MOL_PROPERTY
Tether
SciTegic.value.DoubleValue
0.000

@<TRIPOS>MOLECULE
guest-s15_vm2.mol2 : vm2 ligand conformer 7
          29          28           1
SMALL
USER_CHARGES
 
@<TRIPOS>ATOM
       1    C1      19.704427   20.025521   19.021297 C.3        1 MOL1        -0.2426
       2    H1      20.460998   20.391662   18.315189 H          1 MOL1         0.0959
       3    H2      19.242280   19.129955   18.585825 H          1 MOL1         0.0959
       4    H3      18.930203   20.798034   19.116436 H          1 MOL1         0.0959
       5    C2      20.343949   19.709799   20.389929 C.3        1 MOL1        -0.1410
       6    H4      20.826704   20.615011   20.784171 H          1 MOL1         0.0948
       7    H5      21.136292   18.959716   20.257762 H          1 MOL1         0.0948
       8    C3      19.299489   19.191991   21.403313 C.3        1 MOL1        -0.1435
       9    H6      18.508560   19.944070   21.530526 H          1 MOL1         0.0948
      10    H7      18.817979   18.288921   21.003277 H          1 MOL1         0.0948
      11    C4      19.936345   18.874276   22.774880 C.3        1 MOL1        -0.1435
      12    H8      20.422371   19.778969   23.163522 H          1 MOL1         0.0948
      13    H9      20.724287   18.119284   22.646234 H          1 MOL1         0.0948
      14    C5      18.887161   18.357778   23.788364 C.3        1 MOL1        -0.1435
      15    H10     18.109126   19.118042   23.938859 H          1 MOL1         0.0948
      16    H11     18.377285   17.482557   23.362487 H          1 MOL1         0.0948
      17    C6      19.503271   17.951438   25.151597 C.3        1 MOL1        -0.1500
      18    H12     20.203708   17.121424   24.988996 H          1 MOL1         0.0948
      19    H13     18.708965   17.559328   25.800599 H          1 MOL1         0.0948
      20    C7      20.240690   19.096478   25.881414 C.3        1 MOL1         0.1162
      21    H14     21.040790   19.461559   25.230811 H          1 MOL1         0.0910
      22    C8      20.878560   18.579451   27.180470 C.3        1 MOL1        -0.2491
      23    H15     21.436787   19.378553   27.683666 H          1 MOL1         0.0959
      24    H16     20.116605   18.204789   27.875431 H          1 MOL1         0.0959
      25    H17     21.581276   17.763238   26.971346 H          1 MOL1         0.0959
      26    N1      19.342109   20.269269   26.162737 N.4        1 MOL1        -0.5987
      27    H18     18.565575   20.005123   26.774875 H          1 MOL1         0.3605
      28    H19     18.940969   20.644775   25.299016 H          1 MOL1         0.3605
      29    H20     19.851020   21.029670   26.622517 H          1 MOL1         0.3605
@<TRIPOS>BOND
    1     1     2    1
    2     1     3    1
    3     1     4    1
    4     1     5    1
    5     5     6    1
    6     5     7    1
    7     5     8    1
    8     8     9    1
    9     8    10    1
   10     8    11    1
   11    11    12    1
   12    11    13    1
   13    11    14    1
   14    14    15    1
   15    14    16    1
   16    14    17    1
   17    17    18    1
   18    17    19    1
   19    17    20    1
   20    20    21    1
   21    20    22    1
   22    22    23    1
   23    22    24    1
   24    22    25    1
   25    20    26    1
   26    26    27    1
   27    26    28    1
   28    26    29    1
@<TRIPOS>SUBSTRUCTURE
       1 MOL1            1 RESIDUE      1      MOL     
@<SCITEGIC>MOL_PROPERTY
VM2 Rank
SciTegic.value.IntegerValue
7

@<SCITEGIC>MOL_PROPERTY
Conf_Id
SciTegic.value.IntegerValue
694

@<SCITEGIC>MOL_PROPERTY
Probability
SciTegic.value.DoubleValue
3.42

@<SCITEGIC>MOL_PROPERTY
Sum Probability
SciTegic.value.DoubleValue
35.08

@<SCITEGIC>MOL_PROPERTY
Delta G
SciTegic.value.DoubleValue
0.661

@<SCITEGIC>MOL_PROPERTY
G
SciTegic.value.DoubleValue
34.363

@<SCITEGIC>MOL_PROPERTY
E
SciTegic.value.DoubleValue
-3.215

@<SCITEGIC>MOL_PROPERTY
-TS
SciTegic.value.DoubleValue
37.578

@<SCITEGIC>MOL_PROPERTY
U+W
SciTegic.value.DoubleValue
-27.360

@<SCITEGIC>MOL_PROPERTY
U
SciTegic.value.DoubleValue
24.672

@<SCITEGIC>MOL_PROPERTY
W
SciTegic.value.DoubleValue
-52.032

@<SCITEGIC>MOL_PROPERTY
W(PB)
SciTegic.value.DoubleValue
-54.582

@<SCITEGIC>MOL_PROPERTY
W(SA)
SciTegic.value.DoubleValue
2.550

@<SCITEGIC>MOL_PROPERTY
Valence
SciTegic.value.DoubleValue
3.465

@<SCITEGIC>MOL_PROPERTY
Coulomb
SciTegic.value.DoubleValue
20.280

@<SCITEGIC>MOL_PROPERTY
VdW
SciTegic.value.DoubleValue
0.927

@<SCITEGIC>MOL_PROPERTY
VdW6
SciTegic.value.DoubleValue
-8.843

@<SCITEGIC>MOL_PROPERTY
VdW12
SciTegic.value.DoubleValue
9.770

@<SCITEGIC>MOL_PROPERTY
Bond
SciTegic.value.DoubleValue
0.217

@<SCITEGIC>MOL_PROPERTY
Angle
SciTegic.value.DoubleValue
1.094

@<SCITEGIC>MOL_PROPERTY
Pdih
SciTegic.value.DoubleValue
2.153

@<SCITEGIC>MOL_PROPERTY
Idih
SciTegic.value.DoubleValue
0.000

@<SCITEGIC>MOL_PROPERTY
Tether
SciTegic.value.DoubleValue
0.000

@<TRIPOS>MOLECULE
guest-s15_vm2.mol2 : vm2 ligand conformer 8
          29          28           1
SMALL
USER_CHARGES
 
@<TRIPOS>ATOM
       1    C1      18.621454   18.917277   19.291889 C.3        1 MOL1        -0.2426
       2    H1      18.857146   18.831717   18.223164 H          1 MOL1         0.0959
       3    H2      18.166307   17.971408   19.613462 H          1 MOL1         0.0959
       4    H3      17.874942   19.713561   19.409780 H          1 MOL1         0.0959
       5    C2      19.894772   19.225762   20.107632 C.3        1 MOL1        -0.1410
       6    H4      20.345707   20.158221   19.740143 H          1 MOL1         0.0948
       7    H5      20.634569   18.429633   19.943984 H          1 MOL1         0.0948
       8    C3      19.590521   19.352172   21.616773 C.3        1 MOL1        -0.1435
       9    H6      18.852232   20.150256   21.775430 H          1 MOL1         0.0948
      10    H7      19.132706   18.418515   21.968762 H          1 MOL1         0.0948
      11    C4      20.867380   19.657449   22.436141 C.3        1 MOL1        -0.1435
      12    H8      21.352837   20.552025   22.022088 H          1 MOL1         0.0948
      13    H9      21.587053   18.835186   22.321065 H          1 MOL1         0.0948
      14    C5      20.592898   19.900477   23.940441 C.3        1 MOL1        -0.1435
      15    H10     21.531435   20.213007   24.419062 H          1 MOL1         0.0948
      16    H11     19.894345   20.740972   24.048058 H          1 MOL1         0.0948
      17    C6      20.043707   18.651567   24.676247 C.3        1 MOL1        -0.1500
      18    H12     20.700245   17.797065   24.464853 H          1 MOL1         0.0948
      19    H13     19.050720   18.390008   24.289372 H          1 MOL1         0.0948
      20    C7      19.958374   18.847572   26.205193 C.3        1 MOL1         0.1162
      21    H14     20.952029   19.123215   26.571668 H          1 MOL1         0.0910
      22    C8      19.537610   17.537423   26.889833 C.3        1 MOL1        -0.2491
      23    H15     18.542113   17.217498   26.557312 H          1 MOL1         0.0959
      24    H16     20.248523   16.733184   26.662762 H          1 MOL1         0.0959
      25    H17     19.511031   17.659988   27.979637 H          1 MOL1         0.0959
      26    N1      19.029284   19.966302   26.589852 N.4        1 MOL1        -0.5987
      27    H18     18.072404   19.780298   26.277998 H          1 MOL1         0.3605
      28    H19     19.322492   20.854558   26.174211 H          1 MOL1         0.3605
      29    H20     19.001462   20.097171   27.605111 H          1 MOL1         0.3605
@<TRIPOS>BOND
    1     1     2    1
    2     1     3    1
    3     1     4    1
    4     1     5    1
    5     5     6    1
    6     5     7    1
    7     5     8    1
    8     8     9    1
    9     8    10    1
   10     8    11    1
   11    11    12    1
   12    11    13    1
   13    11    14    1
   14    14    15    1
   15    14    16    1
   16    14    17    1
   17    17    18    1
   18    17    19    1
   19    17    20    1
   20    20    21    1
   21    20    22    1
   22    22    23    1
   23    22    24    1
   24    22    25    1
   25    20    26    1
   26    26    27    1
   27    26    28    1
   28    26    29    1
@<TRIPOS>SUBSTRUCTURE
       1 MOL1            1 RESIDUE      1      MOL     
@<SCITEGIC>MOL_PROPERTY
VM2 Rank
SciTegic.value.IntegerValue
8

@<SCITEGIC>MOL_PROPERTY
Conf_Id
SciTegic.value.IntegerValue
985

@<SCITEGIC>MOL_PROPERTY
Probability
SciTegic.value.DoubleValue
3.41

@<SCITEGIC>MOL_PROPERTY
Sum Probability
SciTegic.value.DoubleValue
38.49

@<SCITEGIC>MOL_PROPERTY
Delta G
SciTegic.value.DoubleValue
0.663

@<SCITEGIC>MOL_PROPERTY
G
SciTegic.value.DoubleValue
34.365

@<SCITEGIC>MOL_PROPERTY
E
SciTegic.value.DoubleValue
-3.137

@<SCITEGIC>MOL_PROPERTY
-TS
SciTegic.value.DoubleValue
37.502

@<SCITEGIC>MOL_PROPERTY
U+W
SciTegic.value.DoubleValue
-27.282

@<SCITEGIC>MOL_PROPERTY
U
SciTegic.value.DoubleValue
24.741

@<SCITEGIC>MOL_PROPERTY
W
SciTegic.value.DoubleValue
-52.023

@<SCITEGIC>MOL_PROPERTY
W(PB)
SciTegic.value.DoubleValue
-54.548

@<SCITEGIC>MOL_PROPERTY
W(SA)
SciTegic.value.DoubleValue
2.525

@<SCITEGIC>MOL_PROPERTY
Valence
SciTegic.value.DoubleValue
3.693

@<SCITEGIC>MOL_PROPERTY
Coulomb
SciTegic.value.DoubleValue
19.919

@<SCITEGIC>MOL_PROPERTY
VdW
SciTegic.value.DoubleValue
1.129

@<SCITEGIC>MOL_PROPERTY
VdW6
SciTegic.value.DoubleValue
-8.666

@<SCITEGIC>MOL_PROPERTY
VdW12
SciTegic.value.DoubleValue
9.794

@<SCITEGIC>MOL_PROPERTY
Bond
SciTegic.value.DoubleValue
0.229

@<SCITEGIC>MOL_PROPERTY
Angle
SciTegic.value.DoubleValue
1.104

@<SCITEGIC>MOL_PROPERTY
Pdih
SciTegic.value.DoubleValue
2.361

@<SCITEGIC>MOL_PROPERTY
Idih
SciTegic.value.DoubleValue
0.000

@<SCITEGIC>MOL_PROPERTY
Tether
SciTegic.value.DoubleValue
0.000

@<TRIPOS>MOLECULE
guest-s15_vm2.mol2 : vm2 ligand conformer 9
          29          28           1
SMALL
USER_CHARGES
 
@<TRIPOS>ATOM
       1    C1      19.169566   20.265938   19.241609 C.3        1 MOL1        -0.2426
       2    H1      19.958173   21.028902   19.206452 H          1 MOL1         0.0959
       3    H2      19.390292   19.510343   18.476368 H          1 MOL1         0.0959
       4    H3      18.220834   20.749016   18.974058 H          1 MOL1         0.0959
       5    C2      19.079172   19.626628   20.643437 C.3        1 MOL1        -0.1410
       6    H4      18.263975   18.889756   20.655714 H          1 MOL1         0.0948
       7    H5      18.817236   20.404485   21.372706 H          1 MOL1         0.0948
       8    C3      20.407637   18.942907   21.044441 C.3        1 MOL1        -0.1435
       9    H6      20.691586   18.228193   20.259666 H          1 MOL1         0.0948
      10    H7      21.211602   19.690695   21.085401 H          1 MOL1         0.0948
      11    C4      20.333688   18.185518   22.393005 C.3        1 MOL1        -0.1435
      12    H8      21.274615   17.635796   22.533625 H          1 MOL1         0.0948
      13    H9      19.538470   17.428699   22.346426 H          1 MOL1         0.0948
      14    C5      20.103286   19.111517   23.611481 C.3        1 MOL1        -0.1435
      15    H10     20.871100   19.897503   23.624462 H          1 MOL1         0.0948
      16    H11     19.132213   19.612321   23.513887 H          1 MOL1         0.0948
      17    C6      20.148987   18.324492   24.943869 C.3        1 MOL1        -0.1500
      18    H12     21.105555   17.788763   25.007380 H          1 MOL1         0.0948
      19    H13     19.360539   17.560095   24.950767 H          1 MOL1         0.0948
      20    C7      20.004458   19.231353   26.185203 C.3        1 MOL1         0.1162
      21    H14     20.783838   19.998407   26.142248 H          1 MOL1         0.0910
      22    C8      20.203217   18.412840   27.470836 C.3        1 MOL1        -0.2491
      23    H15     19.442403   17.627607   27.563145 H          1 MOL1         0.0959
      24    H16     21.190636   17.934634   27.479874 H          1 MOL1         0.0959
      25    H17     20.138020   19.057820   28.355799 H          1 MOL1         0.0959
      26    N1      18.685989   19.954806   26.220119 N.4        1 MOL1        -0.5987
      27    H18     18.559090   20.540796   25.390599 H          1 MOL1         0.3605
      28    H19     18.615750   20.564618   27.039806 H          1 MOL1         0.3605
      29    H20     17.901516   19.298504   26.257988 H          1 MOL1         0.3605
@<TRIPOS>BOND
    1     1     2    1
    2     1     3    1
    3     1     4    1
    4     1     5    1
    5     5     6    1
    6     5     7    1
    7     5     8    1
    8     8     9    1
    9     8    10    1
   10     8    11    1
   11    11    12    1
   12    11    13    1
   13    11    14    1
   14    14    15    1
   15    14    16    1
   16    14    17    1
   17    17    18    1
   18    17    19    1
   19    17    20    1
   20    20    21    1
   21    20    22    1
   22    22    23    1
   23    22    24    1
   24    22    25    1
   25    20    26    1
   26    26    27    1
   27    26    28    1
   28    26    29    1
@<TRIPOS>SUBSTRUCTURE
       1 MOL1            1 RESIDUE      1      MOL     
@<SCITEGIC>MOL_PROPERTY
VM2 Rank
SciTegic.value.IntegerValue
9

@<SCITEGIC>MOL_PROPERTY
Conf_Id
SciTegic.value.IntegerValue
1224

@<SCITEGIC>MOL_PROPERTY
Probability
SciTegic.value.DoubleValue
3.25

@<SCITEGIC>MOL_PROPERTY
Sum Probability
SciTegic.value.DoubleValue
41.74

@<SCITEGIC>MOL_PROPERTY
Delta G
SciTegic.value.DoubleValue
0.691

@<SCITEGIC>MOL_PROPERTY
G
SciTegic.value.DoubleValue
34.394

@<SCITEGIC>MOL_PROPERTY
E
SciTegic.value.DoubleValue
-3.084

@<SCITEGIC>MOL_PROPERTY
-TS
SciTegic.value.DoubleValue
37.478

@<SCITEGIC>MOL_PROPERTY
U+W
SciTegic.value.DoubleValue
-27.229

@<SCITEGIC>MOL_PROPERTY
U
SciTegic.value.DoubleValue
25.011

@<SCITEGIC>MOL_PROPERTY
W
SciTegic.value.DoubleValue
-52.240

@<SCITEGIC>MOL_PROPERTY
W(PB)
SciTegic.value.DoubleValue
-54.751

@<SCITEGIC>MOL_PROPERTY
W(SA)
SciTegic.value.DoubleValue
2.511

@<SCITEGIC>MOL_PROPERTY
Valence
SciTegic.value.DoubleValue
3.709

@<SCITEGIC>MOL_PROPERTY
Coulomb
SciTegic.value.DoubleValue
20.124

@<SCITEGIC>MOL_PROPERTY
VdW
SciTegic.value.DoubleValue
1.178

@<SCITEGIC>MOL_PROPERTY
VdW6
SciTegic.value.DoubleValue
-8.623

@<SCITEGIC>MOL_PROPERTY
VdW12
SciTegic.value.DoubleValue
9.801

@<SCITEGIC>MOL_PROPERTY
Bond
SciTegic.value.DoubleValue
0.228

@<SCITEGIC>MOL_PROPERTY
Angle
SciTegic.value.DoubleValue
1.140

@<SCITEGIC>MOL_PROPERTY
Pdih
SciTegic.value.DoubleValue
2.340

@<SCITEGIC>MOL_PROPERTY
Idih
SciTegic.value.DoubleValue
0.000

@<SCITEGIC>MOL_PROPERTY
Tether
SciTegic.value.DoubleValue
0.000

@<TRIPOS>MOLECULE
guest-s15_vm2.mol2 : vm2 ligand conformer 10
          29          28           1
SMALL
USER_CHARGES
 
@<TRIPOS>ATOM
       1    C1      19.808603   20.325815   19.184559 C.3        1 MOL1        -0.2426
       2    H1      18.877197   20.902702   19.254781 H          1 MOL1         0.0959
       3    H2      20.593742   20.996982   18.812898 H          1 MOL1         0.0959
       4    H3      19.663978   19.531969   18.440161 H          1 MOL1         0.0959
       5    C2      20.200023   19.736271   20.556143 C.3        1 MOL1        -0.1410
       6    H4      20.375479   20.560086   21.260532 H          1 MOL1         0.0948
       7    H5      21.149003   19.190414   20.460479 H          1 MOL1         0.0948
       8    C3      19.105515   18.789475   21.102595 C.3        1 MOL1        -0.1435
       9    H6      18.170986   19.348618   21.248291 H          1 MOL1         0.0948
      10    H7      18.889847   18.020590   20.347868 H          1 MOL1         0.0948
      11    C4      19.499382   18.083117   22.423028 C.3        1 MOL1        -0.1435
      12    H8      20.424585   17.510228   22.271072 H          1 MOL1         0.0948
      13    H9      18.719549   17.349637   22.670495 H          1 MOL1         0.0948
      14    C5      19.674526   19.053632   23.615691 C.3        1 MOL1        -0.1435
      15    H10     20.505652   19.743277   23.417994 H          1 MOL1         0.0948
      16    H11     18.767539   19.663852   23.718931 H          1 MOL1         0.0948
      17    C6      19.953537   18.292756   24.934654 C.3        1 MOL1        -0.1500
      18    H12     20.828770   17.644929   24.791788 H          1 MOL1         0.0948
      19    H13     19.108637   17.631356   25.168487 H          1 MOL1         0.0948
      20    C7      20.221037   19.234736   26.128407 C.3        1 MOL1         0.1162
      21    H14     21.049849   19.898207   25.862853 H          1 MOL1         0.0910
      22    C8      20.630245   18.423559   27.368086 C.3        1 MOL1        -0.2491
      23    H15     20.857213   19.089086   28.210087 H          1 MOL1         0.0959
      24    H16     19.829090   17.740907   27.678060 H          1 MOL1         0.0959
      25    H17     21.528046   17.826668   27.164531 H          1 MOL1         0.0959
      26    N1      19.043132   20.116640   26.440838 N.4        1 MOL1        -0.5987
      27    H18     18.221279   19.563616   26.698271 H          1 MOL1         0.3605
      28    H19     18.786292   20.695753   25.636889 H          1 MOL1         0.3605
      29    H20     19.245098   20.747934   27.221443 H          1 MOL1         0.3605
@<TRIPOS>BOND
    1     1     2    1
    2     1     3    1
    3     1     4    1
    4     1     5    1
    5     5     6    1
    6     5     7    1
    7     5     8    1
    8     8     9    1
    9     8    10    1
   10     8    11    1
   11    11    12    1
   12    11    13    1
   13    11    14    1
   14    14    15    1
   15    14    16    1
   16    14    17    1
   17    17    18    1
   18    17    19    1
   19    17    20    1
   20    20    21    1
   21    20    22    1
   22    22    23    1
   23    22    24    1
   24    22    25    1
   25    20    26    1
   26    26    27    1
   27    26    28    1
   28    26    29    1
@<TRIPOS>SUBSTRUCTURE
       1 MOL1            1 RESIDUE      1      MOL     
@<SCITEGIC>MOL_PROPERTY
VM2 Rank
SciTegic.value.IntegerValue
10

@<SCITEGIC>MOL_PROPERTY
Conf_Id
SciTegic.value.IntegerValue
1577

@<SCITEGIC>MOL_PROPERTY
Probability
SciTegic.value.DoubleValue
3.21

@<SCITEGIC>MOL_PROPERTY
Sum Probability
SciTegic.value.DoubleValue
44.95

@<SCITEGIC>MOL_PROPERTY
Delta G
SciTegic.value.DoubleValue
0.698

@<SCITEGIC>MOL_PROPERTY
G
SciTegic.value.DoubleValue
34.400

@<SCITEGIC>MOL_PROPERTY
E
SciTegic.value.DoubleValue
-3.086

@<SCITEGIC>MOL_PROPERTY
-TS
SciTegic.value.DoubleValue
37.486

@<SCITEGIC>MOL_PROPERTY
U+W
SciTegic.value.DoubleValue
-27.231

@<SCITEGIC>MOL_PROPERTY
U
SciTegic.value.DoubleValue
24.821

@<SCITEGIC>MOL_PROPERTY
W
SciTegic.value.DoubleValue
-52.052

@<SCITEGIC>MOL_PROPERTY
W(PB)
SciTegic.value.DoubleValue
-54.566

@<SCITEGIC>MOL_PROPERTY
W(SA)
SciTegic.value.DoubleValue
2.514

@<SCITEGIC>MOL_PROPERTY
Valence
SciTegic.value.DoubleValue
3.711

@<SCITEGIC>MOL_PROPERTY
Coulomb
SciTegic.value.DoubleValue
19.938

@<SCITEGIC>MOL_PROPERTY
VdW
SciTegic.value.DoubleValue
1.171

@<SCITEGIC>MOL_PROPERTY
VdW6
SciTegic.value.DoubleValue
-8.614

@<SCITEGIC>MOL_PROPERTY
VdW12
SciTegic.value.DoubleValue
9.786

@<SCITEGIC>MOL_PROPERTY
Bond
SciTegic.value.DoubleValue
0.226

@<SCITEGIC>MOL_PROPERTY
Angle
SciTegic.value.DoubleValue
1.142

@<SCITEGIC>MOL_PROPERTY
Pdih
SciTegic.value.DoubleValue
2.342

@<SCITEGIC>MOL_PROPERTY
Idih
SciTegic.value.DoubleValue
0.000

@<SCITEGIC>MOL_PROPERTY
Tether
SciTegic.value.DoubleValue
0.000

@<TRIPOS>MOLECULE
guest-s15_vm2.mol2 : vm2 ligand conformer 11
          29          28           1
SMALL
USER_CHARGES
 
@<TRIPOS>ATOM
       1    C1      20.202341   19.677441   18.979600 C.3        1 MOL1        -0.2426
       2    H1      21.210170   19.244217   18.936639 H          1 MOL1         0.0959
       3    H2      19.497459   18.945506   18.564068 H          1 MOL1         0.0959
       4    H3      20.188565   20.563852   18.332197 H          1 MOL1         0.0959
       5    C2      19.821793   20.053919   20.427099 C.3        1 MOL1        -0.1410
       6    H4      18.824145   20.514953   20.433643 H          1 MOL1         0.0948
       7    H5      20.523717   20.811351   20.803241 H          1 MOL1         0.0948
       8    C3      19.833449   18.822839   21.359967 C.3        1 MOL1        -0.1435
       9    H6      19.132313   18.067779   20.978271 H          1 MOL1         0.0948
      10    H7      20.831897   18.364164   21.348582 H          1 MOL1         0.0948
      11    C4      19.452942   19.195921   22.810372 C.3        1 MOL1        -0.1435
      12    H8      18.452923   19.651132   22.821203 H          1 MOL1         0.0948
      13    H9      20.153824   19.955524   23.181447 H          1 MOL1         0.0948
      14    C5      19.469011   17.961345   23.743094 C.3        1 MOL1        -0.1435
      15    H10     18.804792   17.189957   23.329513 H          1 MOL1         0.0948
      16    H11     20.473414   17.517832   23.757073 H          1 MOL1         0.0948
      17    C6      19.007863   18.281390   25.188472 C.3        1 MOL1        -0.1500
      18    H12     19.030477   17.358515   25.783086 H          1 MOL1         0.0948
      19    H13     17.956410   18.595890   25.154759 H          1 MOL1         0.0948
      20    C7      19.828723   19.374817   25.912175 C.3        1 MOL1         0.1162
      21    H14     19.792029   20.288622   25.311890 H          1 MOL1         0.0910
      22    C8      21.302255   18.968557   26.091512 C.3        1 MOL1        -0.2491
      23    H15     21.388988   18.023653   26.642215 H          1 MOL1         0.0959
      24    H16     21.802537   18.849565   25.123372 H          1 MOL1         0.0959
      25    H17     21.850610   19.738600   26.647949 H          1 MOL1         0.0959
      26    N1      19.217624   19.719770   27.241707 N.4        1 MOL1        -0.5987
      27    H18     18.248075   20.033989   27.141074 H          1 MOL1         0.3605
      28    H19     19.734608   20.471103   27.707458 H          1 MOL1         0.3605
      29    H20     19.215824   18.913805   27.872715 H          1 MOL1         0.3605
@<TRIPOS>BOND
    1     1     2    1
    2     1     3    1
    3     1     4    1
    4     1     5    1
    5     5     6    1
    6     5     7    1
    7     5     8    1
    8     8     9    1
    9     8    10    1
   10     8    11    1
   11    11    12    1
   12    11    13    1
   13    11    14    1
   14    14    15    1
   15    14    16    1
   16    14    17    1
   17    17    18    1
   18    17    19    1
   19    17    20    1
   20    20    21    1
   21    20    22    1
   22    22    23    1
   23    22    24    1
   24    22    25    1
   25    20    26    1
   26    26    27    1
   27    26    28    1
   28    26    29    1
@<TRIPOS>SUBSTRUCTURE
       1 MOL1            1 RESIDUE      1      MOL     
@<SCITEGIC>MOL_PROPERTY
VM2 Rank
SciTegic.value.IntegerValue
11

@<SCITEGIC>MOL_PROPERTY
Conf_Id
SciTegic.value.IntegerValue
199

@<SCITEGIC>MOL_PROPERTY
Probability
SciTegic.value.DoubleValue
2.24

@<SCITEGIC>MOL_PROPERTY
Sum Probability
SciTegic.value.DoubleValue
47.20

@<SCITEGIC>MOL_PROPERTY
Delta G
SciTegic.value.DoubleValue
0.912

@<SCITEGIC>MOL_PROPERTY
G
SciTegic.value.DoubleValue
34.614

@<SCITEGIC>MOL_PROPERTY
E
SciTegic.value.DoubleValue
-3.060

@<SCITEGIC>MOL_PROPERTY
-TS
SciTegic.value.DoubleValue
37.674

@<SCITEGIC>MOL_PROPERTY
U+W
SciTegic.value.DoubleValue
-27.205

@<SCITEGIC>MOL_PROPERTY
U
SciTegic.value.DoubleValue
24.848

@<SCITEGIC>MOL_PROPERTY
W
SciTegic.value.DoubleValue
-52.052

@<SCITEGIC>MOL_PROPERTY
W(PB)
SciTegic.value.DoubleValue
-54.585

@<SCITEGIC>MOL_PROPERTY
W(SA)
SciTegic.value.DoubleValue
2.533

@<SCITEGIC>MOL_PROPERTY
Valence
SciTegic.value.DoubleValue
3.959

@<SCITEGIC>MOL_PROPERTY
Coulomb
SciTegic.value.DoubleValue
19.891

@<SCITEGIC>MOL_PROPERTY
VdW
SciTegic.value.DoubleValue
0.998

@<SCITEGIC>MOL_PROPERTY
VdW6
SciTegic.value.DoubleValue
-9.070

@<SCITEGIC>MOL_PROPERTY
VdW12
SciTegic.value.DoubleValue
10.067

@<SCITEGIC>MOL_PROPERTY
Bond
SciTegic.value.DoubleValue
0.229

@<SCITEGIC>MOL_PROPERTY
Angle
SciTegic.value.DoubleValue
1.422

@<SCITEGIC>MOL_PROPERTY
Pdih
SciTegic.value.DoubleValue
2.308

@<SCITEGIC>MOL_PROPERTY
Idih
SciTegic.value.DoubleValue
0.000

@<SCITEGIC>MOL_PROPERTY
Tether
SciTegic.value.DoubleValue
0.000

@<TRIPOS>MOLECULE
guest-s15_vm2.mol2 : vm2 ligand conformer 12
          29          28           1
SMALL
USER_CHARGES
 
@<TRIPOS>ATOM
       1    C1      19.100071   20.045805   19.397730 C.3        1 MOL1        -0.2426
       2    H1      18.224943   20.176808   20.046144 H          1 MOL1         0.0959
       3    H2      19.703358   20.961741   19.443942 H          1 MOL1         0.0959
       4    H3      18.734446   19.936123   18.368544 H          1 MOL1         0.0959
       5    C2      19.932573   18.810768   19.810215 C.3        1 MOL1        -0.1410
       6    H4      20.722541   18.650885   19.063118 H          1 MOL1         0.0948
       7    H5      19.299304   17.912955   19.785087 H          1 MOL1         0.0948
       8    C3      20.589104   18.949333   21.204911 C.3        1 MOL1        -0.1435
       9    H6      21.246682   18.084280   21.367869 H          1 MOL1         0.0948
      10    H7      21.236616   19.836896   21.218916 H          1 MOL1         0.0948
      11    C4      19.565639   19.031468   22.362722 C.3        1 MOL1        -0.1435
      12    H8      18.887494   18.168316   22.314699 H          1 MOL1         0.0948
      13    H9      18.946437   19.931050   22.250052 H          1 MOL1         0.0948
      14    C5      20.261944   19.064374   23.742175 C.3        1 MOL1        -0.1435
      15    H10     20.882276   18.165131   23.850834 H          1 MOL1         0.0948
      16    H11     20.938905   19.928626   23.790107 H          1 MOL1         0.0948
      17    C6      19.237428   19.145608   24.900487 C.3        1 MOL1        -0.1500
      18    H12     18.600540   18.251030   24.895026 H          1 MOL1         0.0948
      19    H13     18.573426   20.001370   24.720229 H          1 MOL1         0.0948
      20    C7      19.884694   19.314722   26.294001 C.3        1 MOL1         0.1162
      21    H14     20.545647   20.186358   26.261998 H          1 MOL1         0.0910
      22    C8      20.717802   18.085877   26.700384 C.3        1 MOL1        -0.2491
      23    H15     20.110686   17.172154   26.685052 H          1 MOL1         0.0959
      24    H16     21.571891   17.942879   26.028486 H          1 MOL1         0.0959
      25    H17     21.120064   18.209877   27.713384 H          1 MOL1         0.0959
      26    N1      18.846744   19.608045   27.341375 N.4        1 MOL1        -0.5987
      27    H18     18.183577   18.834290   27.437744 H          1 MOL1         0.3605
      28    H19     18.308012   20.448728   27.113501 H          1 MOL1         0.3605
      29    H20     19.274386   19.760102   28.259381 H          1 MOL1         0.3605
@<TRIPOS>BOND
    1     1     2    1
    2     1     3    1
    3     1     4    1
    4     1     5    1
    5     5     6    1
    6     5     7    1
    7     5     8    1
    8     8     9    1
    9     8    10    1
   10     8    11    1
   11    11    12    1
   12    11    13    1
   13    11    14    1
   14    14    15    1
   15    14    16    1
   16    14    17    1
   17    17    18    1
   18    17    19    1
   19    17    20    1
   20    20    21    1
   21    20    22    1
   22    22    23    1
   23    22    24    1
   24    22    25    1
   25    20    26    1
   26    26    27    1
   27    26    28    1
   28    26    29    1
@<TRIPOS>SUBSTRUCTURE
       1 MOL1            1 RESIDUE      1      MOL     
@<SCITEGIC>MOL_PROPERTY
VM2 Rank
SciTegic.value.IntegerValue
12

@<SCITEGIC>MOL_PROPERTY
Conf_Id
SciTegic.value.IntegerValue
1580

@<SCITEGIC>MOL_PROPERTY
Probability
SciTegic.value.DoubleValue
1.86

@<SCITEGIC>MOL_PROPERTY
Sum Probability
SciTegic.value.DoubleValue
49.06

@<SCITEGIC>MOL_PROPERTY
Delta G
SciTegic.value.DoubleValue
1.023

@<SCITEGIC>MOL_PROPERTY
G
SciTegic.value.DoubleValue
34.726

@<SCITEGIC>MOL_PROPERTY
E
SciTegic.value.DoubleValue
-2.783

@<SCITEGIC>MOL_PROPERTY
-TS
SciTegic.value.DoubleValue
37.509

@<SCITEGIC>MOL_PROPERTY
U+W
SciTegic.value.DoubleValue
-26.928

@<SCITEGIC>MOL_PROPERTY
U
SciTegic.value.DoubleValue
24.926

@<SCITEGIC>MOL_PROPERTY
W
SciTegic.value.DoubleValue
-51.852

@<SCITEGIC>MOL_PROPERTY
W(PB)
SciTegic.value.DoubleValue
-54.366

@<SCITEGIC>MOL_PROPERTY
W(SA)
SciTegic.value.DoubleValue
2.514

@<SCITEGIC>MOL_PROPERTY
Valence
SciTegic.value.DoubleValue
4.212

@<SCITEGIC>MOL_PROPERTY
Coulomb
SciTegic.value.DoubleValue
19.386

@<SCITEGIC>MOL_PROPERTY
VdW
SciTegic.value.DoubleValue
1.329

@<SCITEGIC>MOL_PROPERTY
VdW6
SciTegic.value.DoubleValue
-8.714

@<SCITEGIC>MOL_PROPERTY
VdW12
SciTegic.value.DoubleValue
10.043

@<SCITEGIC>MOL_PROPERTY
Bond
SciTegic.value.DoubleValue
0.235

@<SCITEGIC>MOL_PROPERTY
Angle
SciTegic.value.DoubleValue
1.400

@<SCITEGIC>MOL_PROPERTY
Pdih
SciTegic.value.DoubleValue
2.577

@<SCITEGIC>MOL_PROPERTY
Idih
SciTegic.value.DoubleValue
0.000

@<SCITEGIC>MOL_PROPERTY
Tether
SciTegic.value.DoubleValue
0.000

@<TRIPOS>MOLECULE
guest-s15_vm2.mol2 : vm2 ligand conformer 13
          29          28           1
SMALL
USER_CHARGES
 
@<TRIPOS>ATOM
       1    C1      20.459007   19.913125   19.135664 C.3        1 MOL1        -0.2426
       2    H1      21.387321   19.329699   19.080011 H          1 MOL1         0.0959
       3    H2      19.739133   19.478695   18.429770 H          1 MOL1         0.0959
       4    H3      20.682475   20.934975   18.802614 H          1 MOL1         0.0959
       5    C2      19.893758   19.919485   20.571786 C.3        1 MOL1        -0.1410
       6    H4      18.983141   20.533925   20.602038 H          1 MOL1         0.0948
       7    H5      20.623224   20.397122   21.239153 H          1 MOL1         0.0948
       8    C3      19.574960   18.488352   21.064922 C.3        1 MOL1        -0.1435
       9    H6      18.907169   18.001963   20.340495 H          1 MOL1         0.0948
      10    H7      20.496057   17.889684   21.084869 H          1 MOL1         0.0948
      11    C4      18.899485   18.448565   22.457691 C.3        1 MOL1        -0.1435
      12    H8      18.606902   17.411409   22.672365 H          1 MOL1         0.0948
      13    H9      17.969034   19.032383   22.431061 H          1 MOL1         0.0948
      14    C5      19.807618   18.962319   23.600808 C.3        1 MOL1        -0.1435
      15    H10     20.758640   18.414570   23.574866 H          1 MOL1         0.0948
      16    H11     20.042353   20.023364   23.444723 H          1 MOL1         0.0948
      17    C6      19.134633   18.792231   24.985000 C.3        1 MOL1        -0.1500
      18    H12     18.961095   17.726387   25.184436 H          1 MOL1         0.0948
      19    H13     18.145510   19.268007   24.952976 H          1 MOL1         0.0948
      20    C7      19.938857   19.414456   26.149252 C.3        1 MOL1         0.1162
      21    H14     20.133036   20.464478   25.909729 H          1 MOL1         0.0910
      22    C8      21.288267   18.706511   26.366364 C.3        1 MOL1        -0.2491
      23    H15     21.945884   18.826123   25.497668 H          1 MOL1         0.0959
      24    H16     21.812961   19.132006   27.230659 H          1 MOL1         0.0959
      25    H17     21.148774   17.633482   26.547650 H          1 MOL1         0.0959
      26    N1      19.139415   19.410957   27.422513 N.4        1 MOL1        -0.5987
      27    H18     19.652730   19.857974   28.187633 H          1 MOL1         0.3605
      28    H19     18.915463   18.457750   27.720865 H          1 MOL1         0.3605
      29    H20     18.254746   19.915390   27.313820 H          1 MOL1         0.3605
@<TRIPOS>BOND
    1     1     2    1
    2     1     3    1
    3     1     4    1
    4     1     5    1
    5     5     6    1
    6     5     7    1
    7     5     8    1
    8     8     9    1
    9     8    10    1
   10     8    11    1
   11    11    12    1
   12    11    13    1
   13    11    14    1
   14    14    15    1
   15    14    16    1
   16    14    17    1
   17    17    18    1
   18    17    19    1
   19    17    20    1
   20    20    21    1
   21    20    22    1
   22    22    23    1
   23    22    24    1
   24    22    25    1
   25    20    26    1
   26    26    27    1
   27    26    28    1
   28    26    29    1
@<TRIPOS>SUBSTRUCTURE
       1 MOL1            1 RESIDUE      1      MOL     
@<SCITEGIC>MOL_PROPERTY
VM2 Rank
SciTegic.value.IntegerValue
13

@<SCITEGIC>MOL_PROPERTY
Conf_Id
SciTegic.value.IntegerValue
1600

@<SCITEGIC>MOL_PROPERTY
Probability
SciTegic.value.DoubleValue
1.69

@<SCITEGIC>MOL_PROPERTY
Sum Probability
SciTegic.value.DoubleValue
50.75

@<SCITEGIC>MOL_PROPERTY
Delta G
SciTegic.value.DoubleValue
1.081

@<SCITEGIC>MOL_PROPERTY
G
SciTegic.value.DoubleValue
34.784

@<SCITEGIC>MOL_PROPERTY
E
SciTegic.value.DoubleValue
-2.718

@<SCITEGIC>MOL_PROPERTY
-TS
SciTegic.value.DoubleValue
37.502

@<SCITEGIC>MOL_PROPERTY
U+W
SciTegic.value.DoubleValue
-26.863

@<SCITEGIC>MOL_PROPERTY
U
SciTegic.value.DoubleValue
25.086

@<SCITEGIC>MOL_PROPERTY
W
SciTegic.value.DoubleValue
-51.949

@<SCITEGIC>MOL_PROPERTY
W(PB)
SciTegic.value.DoubleValue
-54.501

@<SCITEGIC>MOL_PROPERTY
W(SA)
SciTegic.value.DoubleValue
2.552

@<SCITEGIC>MOL_PROPERTY
Valence
SciTegic.value.DoubleValue
4.251

@<SCITEGIC>MOL_PROPERTY
Coulomb
SciTegic.value.DoubleValue
19.539

@<SCITEGIC>MOL_PROPERTY
VdW
SciTegic.value.DoubleValue
1.297

@<SCITEGIC>MOL_PROPERTY
VdW6
SciTegic.value.DoubleValue
-8.775

@<SCITEGIC>MOL_PROPERTY
VdW12
SciTegic.value.DoubleValue
10.072

@<SCITEGIC>MOL_PROPERTY
Bond
SciTegic.value.DoubleValue
0.238

@<SCITEGIC>MOL_PROPERTY
Angle
SciTegic.value.DoubleValue
1.421

@<SCITEGIC>MOL_PROPERTY
Pdih
SciTegic.value.DoubleValue
2.591

@<SCITEGIC>MOL_PROPERTY
Idih
SciTegic.value.DoubleValue
0.000

@<SCITEGIC>MOL_PROPERTY
Tether
SciTegic.value.DoubleValue
0.000

@<TRIPOS>MOLECULE
guest-s15_vm2.mol2 : vm2 ligand conformer 14
          29          28           1
SMALL
USER_CHARGES
 
@<TRIPOS>ATOM
       1    C1      18.911422   18.727417   19.381681 C.3        1 MOL1        -0.2426
       2    H1      19.248352   17.682665   19.380981 H          1 MOL1         0.0959
       3    H2      18.032916   18.805462   20.034056 H          1 MOL1         0.0959
       4    H3      18.588594   18.976806   18.362603 H          1 MOL1         0.0959
       5    C2      20.043234   19.675918   19.837604 C.3        1 MOL1        -0.1410
       6    H4      19.672603   20.710283   19.858736 H          1 MOL1         0.0948
       7    H5      20.847548   19.652686   19.089070 H          1 MOL1         0.0948
       8    C3      20.638283   19.304862   21.217323 C.3        1 MOL1        -0.1435
       9    H6      21.025931   18.277284   21.185053 H          1 MOL1         0.0948
      10    H7      21.502422   19.955416   21.410566 H          1 MOL1         0.0948
      11    C4      19.629205   19.446041   22.382024 C.3        1 MOL1        -0.1435
      12    H8      18.793216   18.748881   22.238790 H          1 MOL1         0.0948
      13    H9      19.204839   20.459487   22.377883 H          1 MOL1         0.0948
      14    C5      20.290940   19.167615   23.750714 C.3        1 MOL1        -0.1435
      15    H10     20.722029   18.157983   23.739367 H          1 MOL1         0.0948
      16    H11     21.122065   19.869422   23.906160 H          1 MOL1         0.0948
      17    C6      19.278779   19.300369   24.915088 C.3        1 MOL1        -0.1500
      18    H12     18.480411   18.555390   24.798709 H          1 MOL1         0.0948
      19    H13     18.797519   20.285118   24.848887 H          1 MOL1         0.0948
      20    C7      19.918631   19.162407   26.315428 C.3        1 MOL1         0.1162
      21    H14     20.736954   19.885022   26.391625 H          1 MOL1         0.0910
      22    C8      20.488638   17.753166   26.557085 C.3        1 MOL1        -0.2491
      23    H15     19.715825   16.985098   26.428451 H          1 MOL1         0.0959
      24    H16     21.311673   17.532041   25.867820 H          1 MOL1         0.0959
      25    H17     20.887272   17.667229   27.575448 H          1 MOL1         0.0959
      26    N1      18.936867   19.518205   27.397052 N.4        1 MOL1        -0.5987
      27    H18     18.134096   18.883122   27.397210 H          1 MOL1         0.3605
      28    H19     18.576564   20.469876   27.281244 H          1 MOL1         0.3605
      29    H20     19.367534   19.466580   28.324734 H          1 MOL1         0.3605
@<TRIPOS>BOND
    1     1     2    1
    2     1     3    1
    3     1     4    1
    4     1     5    1
    5     5     6    1
    6     5     7    1
    7     5     8    1
    8     8     9    1
    9     8    10    1
   10     8    11    1
   11    11    12    1
   12    11    13    1
   13    11    14    1
   14    14    15    1
   15    14    16    1
   16    14    17    1
   17    17    18    1
   18    17    19    1
   19    17    20    1
   20    20    21    1
   21    20    22    1
   22    22    23    1
   23    22    24    1
   24    22    25    1
   25    20    26    1
   26    26    27    1
   27    26    28    1
   28    26    29    1
@<TRIPOS>SUBSTRUCTURE
       1 MOL1            1 RESIDUE      1      MOL     
@<SCITEGIC>MOL_PROPERTY
VM2 Rank
SciTegic.value.IntegerValue
14

@<SCITEGIC>MOL_PROPERTY
Conf_Id
SciTegic.value.IntegerValue
1531

@<SCITEGIC>MOL_PROPERTY
Probability
SciTegic.value.DoubleValue
1.69

@<SCITEGIC>MOL_PROPERTY
Sum Probability
SciTegic.value.DoubleValue
52.43

@<SCITEGIC>MOL_PROPERTY
Delta G
SciTegic.value.DoubleValue
1.082

@<SCITEGIC>MOL_PROPERTY
G
SciTegic.value.DoubleValue
34.784

@<SCITEGIC>MOL_PROPERTY
E
SciTegic.value.DoubleValue
-2.725

@<SCITEGIC>MOL_PROPERTY
-TS
SciTegic.value.DoubleValue
37.509

@<SCITEGIC>MOL_PROPERTY
U+W
SciTegic.value.DoubleValue
-26.870

@<SCITEGIC>MOL_PROPERTY
U
SciTegic.value.DoubleValue
24.913

@<SCITEGIC>MOL_PROPERTY
W
SciTegic.value.DoubleValue
-51.782

@<SCITEGIC>MOL_PROPERTY
W(PB)
SciTegic.value.DoubleValue
-54.309

@<SCITEGIC>MOL_PROPERTY
W(SA)
SciTegic.value.DoubleValue
2.527

@<SCITEGIC>MOL_PROPERTY
Valence
SciTegic.value.DoubleValue
4.212

@<SCITEGIC>MOL_PROPERTY
Coulomb
SciTegic.value.DoubleValue
19.377

@<SCITEGIC>MOL_PROPERTY
VdW
SciTegic.value.DoubleValue
1.324

@<SCITEGIC>MOL_PROPERTY
VdW6
SciTegic.value.DoubleValue
-8.716

@<SCITEGIC>MOL_PROPERTY
VdW12
SciTegic.value.DoubleValue
10.039

@<SCITEGIC>MOL_PROPERTY
Bond
SciTegic.value.DoubleValue
0.234

@<SCITEGIC>MOL_PROPERTY
Angle
SciTegic.value.DoubleValue
1.400

@<SCITEGIC>MOL_PROPERTY
Pdih
SciTegic.value.DoubleValue
2.578

@<SCITEGIC>MOL_PROPERTY
Idih
SciTegic.value.DoubleValue
0.000

@<SCITEGIC>MOL_PROPERTY
Tether
SciTegic.value.DoubleValue
0.000

@<TRIPOS>MOLECULE
guest-s15_vm2.mol2 : vm2 ligand conformer 15
          29          28           1
SMALL
USER_CHARGES
 
@<TRIPOS>ATOM
       1    C1      20.683521   19.458770   19.171740 C.3        1 MOL1        -0.2426
       2    H1      20.353736   19.674505   18.147171 H          1 MOL1         0.0959
       3    H2      21.388111   20.245401   19.471735 H          1 MOL1         0.0959
       4    H3      21.223524   18.503024   19.157875 H          1 MOL1         0.0959
       5    C2      19.476400   19.399737   20.131593 C.3        1 MOL1        -0.1410
       6    H4      18.773816   18.628462   19.786086 H          1 MOL1         0.0948
       7    H5      18.937541   20.357071   20.099316 H          1 MOL1         0.0948
       8    C3      19.913190   19.096336   21.581845 C.3        1 MOL1        -0.1435
       9    H6      20.449509   18.137801   21.609314 H          1 MOL1         0.0948
      10    H7      20.620932   19.868325   21.910781 H          1 MOL1         0.0948
      11    C4      18.703744   19.040927   22.545846 C.3        1 MOL1        -0.1435
      12    H8      17.970443   18.320565   22.157635 H          1 MOL1         0.0948
      13    H9      18.198069   20.016258   22.562866 H          1 MOL1         0.0948
      14    C5      19.080502   18.626037   23.989321 C.3        1 MOL1        -0.1435
      15    H10     18.152031   18.498721   24.561026 H          1 MOL1         0.0948
      16    H11     19.566921   17.641932   23.963812 H          1 MOL1         0.0948
      17    C6      19.994998   19.656178   24.706837 C.3        1 MOL1        -0.1500
      18    H12     19.545733   20.654808   24.628406 H          1 MOL1         0.0948
      19    H13     20.960942   19.716015   24.190140 H          1 MOL1         0.0948
      20    C7      20.263503   19.355812   26.200409 C.3        1 MOL1         0.1162
      21    H14     20.905446   20.155576   26.582576 H          1 MOL1         0.0910
      22    C8      21.010484   18.025100   26.396489 C.3        1 MOL1        -0.2491
      23    H15     20.387637   17.166186   26.119559 H          1 MOL1         0.0959
      24    H16     21.923971   17.997747   25.789545 H          1 MOL1         0.0959
      25    H17     21.304578   17.901289   27.445951 H          1 MOL1         0.0959
      26    N1      19.009658   19.397103   27.029921 N.4        1 MOL1        -0.5987
      27    H18     19.214010   19.258896   28.023795 H          1 MOL1         0.3605
      28    H19     18.352880   18.665642   26.746976 H          1 MOL1         0.3605
      29    H20     18.528495   20.296442   26.938399 H          1 MOL1         0.3605
@<TRIPOS>BOND
    1     1     2    1
    2     1     3    1
    3     1     4    1
    4     1     5    1
    5     5     6    1
    6     5     7    1
    7     5     8    1
    8     8     9    1
    9     8    10    1
   10     8    11    1
   11    11    12    1
   12    11    13    1
   13    11    14    1
   14    14    15    1
   15    14    16    1
   16    14    17    1
   17    17    18    1
   18    17    19    1
   19    17    20    1
   20    20    21    1
   21    20    22    1
   22    22    23    1
   23    22    24    1
   24    22    25    1
   25    20    26    1
   26    26    27    1
   27    26    28    1
   28    26    29    1
@<TRIPOS>SUBSTRUCTURE
       1 MOL1            1 RESIDUE      1      MOL     
@<SCITEGIC>MOL_PROPERTY
VM2 Rank
SciTegic.value.IntegerValue
15

@<SCITEGIC>MOL_PROPERTY
Conf_Id
SciTegic.value.IntegerValue
986

@<SCITEGIC>MOL_PROPERTY
Probability
SciTegic.value.DoubleValue
1.67

@<SCITEGIC>MOL_PROPERTY
Sum Probability
SciTegic.value.DoubleValue
54.10

@<SCITEGIC>MOL_PROPERTY
Delta G
SciTegic.value.DoubleValue
1.088

@<SCITEGIC>MOL_PROPERTY
G
SciTegic.value.DoubleValue
34.790

@<SCITEGIC>MOL_PROPERTY
E
SciTegic.value.DoubleValue
-2.853

@<SCITEGIC>MOL_PROPERTY
-TS
SciTegic.value.DoubleValue
37.643

@<SCITEGIC>MOL_PROPERTY
U+W
SciTegic.value.DoubleValue
-26.997

@<SCITEGIC>MOL_PROPERTY
U
SciTegic.value.DoubleValue
25.162

@<SCITEGIC>MOL_PROPERTY
W
SciTegic.value.DoubleValue
-52.159

@<SCITEGIC>MOL_PROPERTY
W(PB)
SciTegic.value.DoubleValue
-54.678

@<SCITEGIC>MOL_PROPERTY
W(SA)
SciTegic.value.DoubleValue
2.519

@<SCITEGIC>MOL_PROPERTY
Valence
SciTegic.value.DoubleValue
4.202

@<SCITEGIC>MOL_PROPERTY
Coulomb
SciTegic.value.DoubleValue
19.686

@<SCITEGIC>MOL_PROPERTY
VdW
SciTegic.value.DoubleValue
1.273

@<SCITEGIC>MOL_PROPERTY
VdW6
SciTegic.value.DoubleValue
-9.288

@<SCITEGIC>MOL_PROPERTY
VdW12
SciTegic.value.DoubleValue
10.561

@<SCITEGIC>MOL_PROPERTY
Bond
SciTegic.value.DoubleValue
0.271

@<SCITEGIC>MOL_PROPERTY
Angle
SciTegic.value.DoubleValue
1.436

@<SCITEGIC>MOL_PROPERTY
Pdih
SciTegic.value.DoubleValue
2.495

@<SCITEGIC>MOL_PROPERTY
Idih
SciTegic.value.DoubleValue
0.000

@<SCITEGIC>MOL_PROPERTY
Tether
SciTegic.value.DoubleValue
0.000

@<TRIPOS>MOLECULE
guest-s15_vm2.mol2 : vm2 ligand conformer 16
          29          28           1
SMALL
USER_CHARGES
 
@<TRIPOS>ATOM
       1    C1      18.574122   19.229570   19.295332 C.3        1 MOL1        -0.2426
       2    H1      18.710311   19.555299   18.255911 H          1 MOL1         0.0959
       3    H2      18.324562   18.160538   19.283659 H          1 MOL1         0.0959
       4    H3      17.717360   19.776302   19.710398 H          1 MOL1         0.0959
       5    C2      19.851870   19.491709   20.120295 C.3        1 MOL1        -0.1410
       6    H4      20.094569   20.563082   20.086318 H          1 MOL1         0.0948
       7    H5      20.697226   18.960250   19.661169 H          1 MOL1         0.0948
       8    C3      19.687110   19.041062   21.588553 C.3        1 MOL1        -0.1435
       9    H6      18.834854   19.572023   22.032431 H          1 MOL1         0.0948
      10    H7      19.446580   17.969378   21.617494 H          1 MOL1         0.0948
      11    C4      20.966316   19.307228   22.417802 C.3        1 MOL1        -0.1435
      12    H8      21.180110   20.384877   22.433756 H          1 MOL1         0.0948
      13    H9      21.821799   18.830736   21.919335 H          1 MOL1         0.0948
      14    C5      20.883745   18.772541   23.868595 C.3        1 MOL1        -0.1435
      15    H10     20.701682   17.690069   23.841298 H          1 MOL1         0.0948
      16    H11     21.862796   18.911639   24.347691 H          1 MOL1         0.0948
      17    C6      19.798704   19.476627   24.723569 C.3        1 MOL1        -0.1500
      18    H12     18.799748   19.233615   24.339834 H          1 MOL1         0.0948
      19    H13     19.919825   20.562762   24.617903 H          1 MOL1         0.0948
      20    C7      19.867777   19.119834   26.225794 C.3        1 MOL1         0.1162
      21    H14     20.879407   19.334939   26.583491 H          1 MOL1         0.0910
      22    C8      19.566462   17.632272   26.481682 C.3        1 MOL1        -0.2491
      23    H15     20.320289   16.987112   26.015795 H          1 MOL1         0.0959
      24    H16     19.574336   17.415961   27.557083 H          1 MOL1         0.0959
      25    H17     18.582170   17.352934   26.085638 H          1 MOL1         0.0959
      26    N1      18.939895   19.985158   27.032377 N.4        1 MOL1        -0.5987
      27    H18     19.150720   20.979948   26.910546 H          1 MOL1         0.3605
      28    H19     19.011801   19.779108   28.032926 H          1 MOL1         0.3605
      29    H20     17.963577   19.841802   26.760403 H          1 MOL1         0.3605
@<TRIPOS>BOND
    1     1     2    1
    2     1     3    1
    3     1     4    1
    4     1     5    1
    5     5     6    1
    6     5     7    1
    7     5     8    1
    8     8     9    1
    9     8    10    1
   10     8    11    1
   11    11    12    1
   12    11    13    1
   13    11    14    1
   14    14    15    1
   15    14    16    1
   16    14    17    1
   17    17    18    1
   18    17    19    1
   19    17    20    1
   20    20    21    1
   21    20    22    1
   22    22    23    1
   23    22    24    1
   24    22    25    1
   25    20    26    1
   26    26    27    1
   27    26    28    1
   28    26    29    1
@<TRIPOS>SUBSTRUCTURE
       1 MOL1            1 RESIDUE      1      MOL     
@<SCITEGIC>MOL_PROPERTY
VM2 Rank
SciTegic.value.IntegerValue
16

@<SCITEGIC>MOL_PROPERTY
Conf_Id
SciTegic.value.IntegerValue
1007

@<SCITEGIC>MOL_PROPERTY
Probability
SciTegic.value.DoubleValue
1.60

@<SCITEGIC>MOL_PROPERTY
Sum Probability
SciTegic.value.DoubleValue
55.70

@<SCITEGIC>MOL_PROPERTY
Delta G
SciTegic.value.DoubleValue
1.115

@<SCITEGIC>MOL_PROPERTY
G
SciTegic.value.DoubleValue
34.817

@<SCITEGIC>MOL_PROPERTY
E
SciTegic.value.DoubleValue
-2.717

@<SCITEGIC>MOL_PROPERTY
-TS
SciTegic.value.DoubleValue
37.534

@<SCITEGIC>MOL_PROPERTY
U+W
SciTegic.value.DoubleValue
-26.862

@<SCITEGIC>MOL_PROPERTY
U
SciTegic.value.DoubleValue
25.129

@<SCITEGIC>MOL_PROPERTY
W
SciTegic.value.DoubleValue
-51.990

@<SCITEGIC>MOL_PROPERTY
W(PB)
SciTegic.value.DoubleValue
-54.525

@<SCITEGIC>MOL_PROPERTY
W(SA)
SciTegic.value.DoubleValue
2.535

@<SCITEGIC>MOL_PROPERTY
Valence
SciTegic.value.DoubleValue
4.206

@<SCITEGIC>MOL_PROPERTY
Coulomb
SciTegic.value.DoubleValue
19.678

@<SCITEGIC>MOL_PROPERTY
VdW
SciTegic.value.DoubleValue
1.245

@<SCITEGIC>MOL_PROPERTY
VdW6
SciTegic.value.DoubleValue
-8.834

@<SCITEGIC>MOL_PROPERTY
VdW12
SciTegic.value.DoubleValue
10.079

@<SCITEGIC>MOL_PROPERTY
Bond
SciTegic.value.DoubleValue
0.240

@<SCITEGIC>MOL_PROPERTY
Angle
SciTegic.value.DoubleValue
1.353

@<SCITEGIC>MOL_PROPERTY
Pdih
SciTegic.value.DoubleValue
2.613

@<SCITEGIC>MOL_PROPERTY
Idih
SciTegic.value.DoubleValue
0.000

@<SCITEGIC>MOL_PROPERTY
Tether
SciTegic.value.DoubleValue
0.000

@<TRIPOS>MOLECULE
guest-s15_vm2.mol2 : vm2 ligand conformer 17
          29          28           1
SMALL
USER_CHARGES
 
@<TRIPOS>ATOM
       1    C1      20.658814   19.226910   19.120803 C.3        1 MOL1        -0.2426
       2    H1      19.801745   19.199874   18.435285 H          1 MOL1         0.0959
       3    H2      21.074338   20.243007   19.109012 H          1 MOL1         0.0959
       4    H3      21.424717   18.544827   18.729402 H          1 MOL1         0.0959
       5    C2      20.241141   18.815578   20.548510 C.3        1 MOL1        -0.1410
       6    H4      21.130249   18.815005   21.192755 H          1 MOL1         0.0948
       7    H5      19.857148   17.786019   20.533199 H          1 MOL1         0.0948
       8    C3      19.164588   19.766298   21.123246 C.3        1 MOL1        -0.1435
       9    H6      19.568169   20.786080   21.189497 H          1 MOL1         0.0948
      10    H7      18.320360   19.814240   20.421604 H          1 MOL1         0.0948
      11    C4      18.626201   19.329971   22.508015 C.3        1 MOL1        -0.1435
      12    H8      18.210293   18.315382   22.437723 H          1 MOL1         0.0948
      13    H9      17.788822   19.988538   22.777054 H          1 MOL1         0.0948
      14    C5      19.690492   19.381808   23.630631 C.3        1 MOL1        -0.1435
      15    H10     20.497077   18.675021   23.401376 H          1 MOL1         0.0948
      16    H11     20.139608   20.384037   23.664097 H          1 MOL1         0.0948
      17    C6      19.080326   19.043289   25.013112 C.3        1 MOL1        -0.1500
      18    H12     18.685082   18.018789   25.002411 H          1 MOL1         0.0948
      19    H13     18.222538   19.705887   25.188710 H          1 MOL1         0.0948
      20    C7      20.071027   19.206438   26.188504 C.3        1 MOL1         0.1162
      21    H14     20.482691   20.219778   26.152356 H          1 MOL1         0.0910
      22    C8      21.236328   18.203772   26.110056 C.3        1 MOL1        -0.2491
      23    H15     20.869173   17.170412   26.077136 H          1 MOL1         0.0959
      24    H16     21.853888   18.378148   25.221490 H          1 MOL1         0.0959
      25    H17     21.891533   18.304080   26.984130 H          1 MOL1         0.0959
      26    N1      19.367083   19.081936   27.511123 N.4        1 MOL1        -0.5987
      27    H18     18.614260   19.770086   27.603948 H          1 MOL1         0.3605
      28    H19     20.011752   19.228673   28.293167 H          1 MOL1         0.3605
      29    H20     18.951624   18.153735   27.627766 H          1 MOL1         0.3605
@<TRIPOS>BOND
    1     1     2    1
    2     1     3    1
    3     1     4    1
    4     1     5    1
    5     5     6    1
    6     5     7    1
    7     5     8    1
    8     8     9    1
    9     8    10    1
   10     8    11    1
   11    11    12    1
   12    11    13    1
   13    11    14    1
   14    14    15    1
   15    14    16    1
   16    14    17    1
   17    17    18    1
   18    17    19    1
   19    17    20    1
   20    20    21    1
   21    20    22    1
   22    22    23    1
   23    22    24    1
   24    22    25    1
   25    20    26    1
   26    26    27    1
   27    26    28    1
   28    26    29    1
@<TRIPOS>SUBSTRUCTURE
       1 MOL1            1 RESIDUE      1      MOL     
@<SCITEGIC>MOL_PROPERTY
VM2 Rank
SciTegic.value.IntegerValue
17

@<SCITEGIC>MOL_PROPERTY
Conf_Id
SciTegic.value.IntegerValue
1345

@<SCITEGIC>MOL_PROPERTY
Probability
SciTegic.value.DoubleValue
1.58

@<SCITEGIC>MOL_PROPERTY
Sum Probability
SciTegic.value.DoubleValue
57.28

@<SCITEGIC>MOL_PROPERTY
Delta G
SciTegic.value.DoubleValue
1.121

@<SCITEGIC>MOL_PROPERTY
G
SciTegic.value.DoubleValue
34.823

@<SCITEGIC>MOL_PROPERTY
E
SciTegic.value.DoubleValue
-2.670

@<SCITEGIC>MOL_PROPERTY
-TS
SciTegic.value.DoubleValue
37.493

@<SCITEGIC>MOL_PROPERTY
U+W
SciTegic.value.DoubleValue
-26.815

@<SCITEGIC>MOL_PROPERTY
U
SciTegic.value.DoubleValue
25.086

@<SCITEGIC>MOL_PROPERTY
W
SciTegic.value.DoubleValue
-51.901

@<SCITEGIC>MOL_PROPERTY
W(PB)
SciTegic.value.DoubleValue
-54.413

@<SCITEGIC>MOL_PROPERTY
W(SA)
SciTegic.value.DoubleValue
2.513

@<SCITEGIC>MOL_PROPERTY
Valence
SciTegic.value.DoubleValue
4.252

@<SCITEGIC>MOL_PROPERTY
Coulomb
SciTegic.value.DoubleValue
19.525

@<SCITEGIC>MOL_PROPERTY
VdW
SciTegic.value.DoubleValue
1.309

@<SCITEGIC>MOL_PROPERTY
VdW6
SciTegic.value.DoubleValue
-8.788

@<SCITEGIC>MOL_PROPERTY
VdW12
SciTegic.value.DoubleValue
10.097

@<SCITEGIC>MOL_PROPERTY
Bond
SciTegic.value.DoubleValue
0.241

@<SCITEGIC>MOL_PROPERTY
Angle
SciTegic.value.DoubleValue
1.423

@<SCITEGIC>MOL_PROPERTY
Pdih
SciTegic.value.DoubleValue
2.589

@<SCITEGIC>MOL_PROPERTY
Idih
SciTegic.value.DoubleValue
0.000

@<SCITEGIC>MOL_PROPERTY
Tether
SciTegic.value.DoubleValue
0.000

@<TRIPOS>MOLECULE
guest-s15_vm2.mol2 : vm2 ligand conformer 18
          29          28           1
SMALL
USER_CHARGES
 
@<TRIPOS>ATOM
       1    C1      20.306585   18.573273   19.517944 C.3        1 MOL1        -0.2426
       2    H1      21.247065   19.066592   19.793094 H          1 MOL1         0.0959
       3    H2      20.350494   17.531827   19.862147 H          1 MOL1         0.0959
       4    H3      20.247624   18.562640   18.421894 H          1 MOL1         0.0959
       5    C2      19.085333   19.305744   20.118295 C.3        1 MOL1        -0.1410
       6    H4      18.167705   18.848635   19.722383 H          1 MOL1         0.0948
       7    H5      19.078606   20.351371   19.780171 H          1 MOL1         0.0948
       8    C3      19.039093   19.254922   21.664363 C.3        1 MOL1        -0.1435
       9    H6      18.095064   19.705323   22.000538 H          1 MOL1         0.0948
      10    H7      19.016391   18.206013   21.987952 H          1 MOL1         0.0948
      11    C4      20.222160   19.994980   22.337945 C.3        1 MOL1        -0.1435
      12    H8      20.303741   21.003867   21.910640 H          1 MOL1         0.0948
      13    H9      21.166216   19.483655   22.107906 H          1 MOL1         0.0948
      14    C5      20.073062   20.121848   23.873755 C.3        1 MOL1        -0.1435
      15    H10     20.898358   20.739889   24.253868 H          1 MOL1         0.0948
      16    H11     19.146818   20.665646   24.102426 H          1 MOL1         0.0948
      17    C6      20.086086   18.756203   24.606882 C.3        1 MOL1        -0.1500
      18    H12     20.966845   18.186655   24.281626 H          1 MOL1         0.0948
      19    H13     19.205955   18.165616   24.322632 H          1 MOL1         0.0948
      20    C7      20.126914   18.902181   26.143209 C.3        1 MOL1         0.1162
      21    H14     21.000227   19.506524   26.407265 H          1 MOL1         0.0910
      22    C8      20.274551   17.524188   26.807735 C.3        1 MOL1        -0.2491
      23    H15     21.186637   17.021028   26.463229 H          1 MOL1         0.0959
      24    H16     20.341418   17.624135   27.898119 H          1 MOL1         0.0959
      25    H17     19.419058   16.877586   26.575418 H          1 MOL1         0.0959
      26    N1      18.922217   19.622661   26.683871 N.4        1 MOL1        -0.5987
      27    H18     18.835477   20.559422   26.280541 H          1 MOL1         0.3605
      28    H19     18.975841   19.730356   27.700810 H          1 MOL1         0.3605
      29    H20     18.058743   19.114874   26.474051 H          1 MOL1         0.3605
@<TRIPOS>BOND
    1     1     2    1
    2     1     3    1
    3     1     4    1
    4     1     5    1
    5     5     6    1
    6     5     7    1
    7     5     8    1
    8     8     9    1
    9     8    10    1
   10     8    11    1
   11    11    12    1
   12    11    13    1
   13    11    14    1
   14    14    15    1
   15    14    16    1
   16    14    17    1
   17    17    18    1
   18    17    19    1
   19    17    20    1
   20    20    21    1
   21    20    22    1
   22    22    23    1
   23    22    24    1
   24    22    25    1
   25    20    26    1
   26    26    27    1
   27    26    28    1
   28    26    29    1
@<TRIPOS>SUBSTRUCTURE
       1 MOL1            1 RESIDUE      1      MOL     
@<SCITEGIC>MOL_PROPERTY
VM2 Rank
SciTegic.value.IntegerValue
18

@<SCITEGIC>MOL_PROPERTY
Conf_Id
SciTegic.value.IntegerValue
1685

@<SCITEGIC>MOL_PROPERTY
Probability
SciTegic.value.DoubleValue
1.55

@<SCITEGIC>MOL_PROPERTY
Sum Probability
SciTegic.value.DoubleValue
58.83

@<SCITEGIC>MOL_PROPERTY
Delta G
SciTegic.value.DoubleValue
1.131

@<SCITEGIC>MOL_PROPERTY
G
SciTegic.value.DoubleValue
34.833

@<SCITEGIC>MOL_PROPERTY
E
SciTegic.value.DoubleValue
-2.802

@<SCITEGIC>MOL_PROPERTY
-TS
SciTegic.value.DoubleValue
37.636

@<SCITEGIC>MOL_PROPERTY
U+W
SciTegic.value.DoubleValue
-26.947

@<SCITEGIC>MOL_PROPERTY
U
SciTegic.value.DoubleValue
25.271

@<SCITEGIC>MOL_PROPERTY
W
SciTegic.value.DoubleValue
-52.217

@<SCITEGIC>MOL_PROPERTY
W(PB)
SciTegic.value.DoubleValue
-54.703

@<SCITEGIC>MOL_PROPERTY
W(SA)
SciTegic.value.DoubleValue
2.486

@<SCITEGIC>MOL_PROPERTY
Valence
SciTegic.value.DoubleValue
4.168

@<SCITEGIC>MOL_PROPERTY
Coulomb
SciTegic.value.DoubleValue
19.867

@<SCITEGIC>MOL_PROPERTY
VdW
SciTegic.value.DoubleValue
1.236

@<SCITEGIC>MOL_PROPERTY
VdW6
SciTegic.value.DoubleValue
-9.311

@<SCITEGIC>MOL_PROPERTY
VdW12
SciTegic.value.DoubleValue
10.546

@<SCITEGIC>MOL_PROPERTY
Bond
SciTegic.value.DoubleValue
0.263

@<SCITEGIC>MOL_PROPERTY
Angle
SciTegic.value.DoubleValue
1.298

@<SCITEGIC>MOL_PROPERTY
Pdih
SciTegic.value.DoubleValue
2.607

@<SCITEGIC>MOL_PROPERTY
Idih
SciTegic.value.DoubleValue
0.000

@<SCITEGIC>MOL_PROPERTY
Tether
SciTegic.value.DoubleValue
0.000

@<TRIPOS>MOLECULE
guest-s15_vm2.mol2 : vm2 ligand conformer 19
          29          28           1
SMALL
USER_CHARGES
 
@<TRIPOS>ATOM
       1    C1      20.912319   19.724044   19.676397 C.3        1 MOL1        -0.2426
       2    H1      20.852254   18.726516   19.221894 H          1 MOL1         0.0959
       3    H2      20.887927   20.465259   18.867053 H          1 MOL1         0.0959
       4    H3      21.881929   19.810865   20.183892 H          1 MOL1         0.0959
       5    C2      19.747575   19.955221   20.662172 C.3        1 MOL1        -0.1410
       6    H4      18.793770   19.896691   20.119317 H          1 MOL1         0.0948
       7    H5      19.815722   20.971411   21.075203 H          1 MOL1         0.0948
       8    C3      19.758302   18.923590   21.811634 C.3        1 MOL1        -0.1435
       9    H6      19.687031   17.909620   21.394539 H          1 MOL1         0.0948
      10    H7      20.719442   18.985625   22.338641 H          1 MOL1         0.0948
      11    C4      18.594399   19.157752   22.804013 C.3        1 MOL1        -0.1435
      12    H8      17.646377   19.160503   22.248493 H          1 MOL1         0.0948
      13    H9      18.685430   20.156576   23.251062 H          1 MOL1         0.0948
      14    C5      18.504364   18.081896   23.917076 C.3        1 MOL1        -0.1435
      15    H10     17.630021   18.294625   24.546719 H          1 MOL1         0.0948
      16    H11     18.304990   17.105295   23.454816 H          1 MOL1         0.0948
      17    C6      19.766361   17.960512   24.812440 C.3        1 MOL1        -0.1500
      18    H12     20.595592   17.561974   24.213977 H          1 MOL1         0.0948
      19    H13     19.577124   17.214747   25.595885 H          1 MOL1         0.0948
      20    C7      20.205751   19.288861   25.466909 C.3        1 MOL1         0.1162
      21    H14     20.392291   20.018219   24.672996 H          1 MOL1         0.0910
      22    C8      21.510742   19.092539   26.254186 C.3        1 MOL1        -0.2491
      23    H15     21.378139   18.369681   27.068923 H          1 MOL1         0.0959
      24    H16     22.309875   18.725419   25.598182 H          1 MOL1         0.0959
      25    H17     21.847494   20.041153   26.690191 H          1 MOL1         0.0959
      26    N1      19.136186   19.871584   26.349174 N.4        1 MOL1        -0.5987
      27    H18     18.912610   19.244715   27.126659 H          1 MOL1         0.3605
      28    H19     18.271790   20.034422   25.825627 H          1 MOL1         0.3605
      29    H20     19.427742   20.767356   26.750584 H          1 MOL1         0.3605
@<TRIPOS>BOND
    1     1     2    1
    2     1     3    1
    3     1     4    1
    4     1     5    1
    5     5     6    1
    6     5     7    1
    7     5     8    1
    8     8     9    1
    9     8    10    1
   10     8    11    1
   11    11    12    1
   12    11    13    1
   13    11    14    1
   14    14    15    1
   15    14    16    1
   16    14    17    1
   17    17    18    1
   18    17    19    1
   19    17    20    1
   20    20    21    1
   21    20    22    1
   22    22    23    1
   23    22    24    1
   24    22    25    1
   25    20    26    1
   26    26    27    1
   27    26    28    1
   28    26    29    1
@<TRIPOS>SUBSTRUCTURE
       1 MOL1            1 RESIDUE      1      MOL     
@<SCITEGIC>MOL_PROPERTY
VM2 Rank
SciTegic.value.IntegerValue
19

@<SCITEGIC>MOL_PROPERTY
Conf_Id
SciTegic.value.IntegerValue
1635

@<SCITEGIC>MOL_PROPERTY
Probability
SciTegic.value.DoubleValue
1.54

@<SCITEGIC>MOL_PROPERTY
Sum Probability
SciTegic.value.DoubleValue
60.38

@<SCITEGIC>MOL_PROPERTY
Delta G
SciTegic.value.DoubleValue
1.134

@<SCITEGIC>MOL_PROPERTY
G
SciTegic.value.DoubleValue
34.837

@<SCITEGIC>MOL_PROPERTY
E
SciTegic.value.DoubleValue
-3.023

@<SCITEGIC>MOL_PROPERTY
-TS
SciTegic.value.DoubleValue
37.860

@<SCITEGIC>MOL_PROPERTY
U+W
SciTegic.value.DoubleValue
-27.168

@<SCITEGIC>MOL_PROPERTY
U
SciTegic.value.DoubleValue
25.092

@<SCITEGIC>MOL_PROPERTY
W
SciTegic.value.DoubleValue
-52.260

@<SCITEGIC>MOL_PROPERTY
W(PB)
SciTegic.value.DoubleValue
-54.738

@<SCITEGIC>MOL_PROPERTY
W(SA)
SciTegic.value.DoubleValue
2.478

@<SCITEGIC>MOL_PROPERTY
Valence
SciTegic.value.DoubleValue
3.930

@<SCITEGIC>MOL_PROPERTY
Coulomb
SciTegic.value.DoubleValue
20.383

@<SCITEGIC>MOL_PROPERTY
VdW
SciTegic.value.DoubleValue
0.779

@<SCITEGIC>MOL_PROPERTY
VdW6
SciTegic.value.DoubleValue
-9.976

@<SCITEGIC>MOL_PROPERTY
VdW12
SciTegic.value.DoubleValue
10.756

@<SCITEGIC>MOL_PROPERTY
Bond
SciTegic.value.DoubleValue
0.263

@<SCITEGIC>MOL_PROPERTY
Angle
SciTegic.value.DoubleValue
1.407

@<SCITEGIC>MOL_PROPERTY
Pdih
SciTegic.value.DoubleValue
2.259

@<SCITEGIC>MOL_PROPERTY
Idih
SciTegic.value.DoubleValue
0.000

@<SCITEGIC>MOL_PROPERTY
Tether
SciTegic.value.DoubleValue
0.000

@<TRIPOS>MOLECULE
guest-s15_vm2.mol2 : vm2 ligand conformer 20
          29          28           1
SMALL
USER_CHARGES
 
@<TRIPOS>ATOM
       1    C1      19.887593   20.240215   19.460685 C.3        1 MOL1        -0.2426
       2    H1      20.157246   20.269018   18.397017 H          1 MOL1         0.0959
       3    H2      19.009801   20.884028   19.602150 H          1 MOL1         0.0959
       4    H3      20.724526   20.670314   20.024613 H          1 MOL1         0.0959
       5    C2      19.590087   18.789859   19.903935 C.3        1 MOL1        -0.1410
       6    H4      20.491661   18.173551   19.781233 H          1 MOL1         0.0948
       7    H5      18.832039   18.362989   19.232443 H          1 MOL1         0.0948
       8    C3      19.078450   18.684618   21.360829 C.3        1 MOL1        -0.1435
       9    H6      18.166010   19.286279   21.473396 H          1 MOL1         0.0948
      10    H7      18.787582   17.642726   21.553529 H          1 MOL1         0.0948
      11    C4      20.124607   19.120426   22.414580 C.3        1 MOL1        -0.1435
      12    H8      20.372605   20.181151   22.277765 H          1 MOL1         0.0948
      13    H9      21.053514   18.552957   22.265285 H          1 MOL1         0.0948
      14    C5      19.612007   18.901778   23.856064 C.3        1 MOL1        -0.1435
      15    H10     18.681205   19.467013   23.996385 H          1 MOL1         0.0948
      16    H11     19.366022   17.840348   23.991046 H          1 MOL1         0.0948
      17    C6      20.662864   19.340592   24.908957 C.3        1 MOL1        -0.1500
      18    H12     20.935006   20.389311   24.731252 H          1 MOL1         0.0948
      19    H13     21.584395   18.761050   24.765142 H          1 MOL1         0.0948
      20    C7      20.209934   19.196517   26.381110 C.3        1 MOL1         0.1162
      21    H14     21.025498   19.567028   27.009877 H          1 MOL1         0.0910
      22    C8      19.954849   17.729177   26.767365 C.3        1 MOL1        -0.2491
      23    H15     20.825817   17.106150   26.528970 H          1 MOL1         0.0959
      24    H16     19.769606   17.643206   27.845092 H          1 MOL1         0.0959
      25    H17     19.083611   17.317389   26.244320 H          1 MOL1         0.0959
      26    N1      19.015608   20.052817   26.700475 N.4        1 MOL1        -0.5987
      27    H18     18.196402   19.763131   26.160543 H          1 MOL1         0.3605
      28    H19     19.192982   21.038724   26.487784 H          1 MOL1         0.3605
      29    H20     18.767093   19.993311   27.692120 H          1 MOL1         0.3605
@<TRIPOS>BOND
    1     1     2    1
    2     1     3    1
    3     1     4    1
    4     1     5    1
    5     5     6    1
    6     5     7    1
    7     5     8    1
    8     8     9    1
    9     8    10    1
   10     8    11    1
   11    11    12    1
   12    11    13    1
   13    11    14    1
   14    14    15    1
   15    14    16    1
   16    14    17    1
   17    17    18    1
   18    17    19    1
   19    17    20    1
   20    20    21    1
   21    20    22    1
   22    22    23    1
   23    22    24    1
   24    22    25    1
   25    20    26    1
   26    26    27    1
   27    26    28    1
   28    26    29    1
@<TRIPOS>SUBSTRUCTURE
       1 MOL1            1 RESIDUE      1      MOL     
@<SCITEGIC>MOL_PROPERTY
VM2 Rank
SciTegic.value.IntegerValue
20

@<SCITEGIC>MOL_PROPERTY
Conf_Id
SciTegic.value.IntegerValue
553

@<SCITEGIC>MOL_PROPERTY
Probability
SciTegic.value.DoubleValue
1.53

@<SCITEGIC>MOL_PROPERTY
Sum Probability
SciTegic.value.DoubleValue
61.91

@<SCITEGIC>MOL_PROPERTY
Delta G
SciTegic.value.DoubleValue
1.140

@<SCITEGIC>MOL_PROPERTY
G
SciTegic.value.DoubleValue
34.842

@<SCITEGIC>MOL_PROPERTY
E
SciTegic.value.DoubleValue
-2.799

@<SCITEGIC>MOL_PROPERTY
-TS
SciTegic.value.DoubleValue
37.641

@<SCITEGIC>MOL_PROPERTY
U+W
SciTegic.value.DoubleValue
-26.943

@<SCITEGIC>MOL_PROPERTY
U
SciTegic.value.DoubleValue
25.147

@<SCITEGIC>MOL_PROPERTY
W
SciTegic.value.DoubleValue
-52.090

@<SCITEGIC>MOL_PROPERTY
W(PB)
SciTegic.value.DoubleValue
-54.579

@<SCITEGIC>MOL_PROPERTY
W(SA)
SciTegic.value.DoubleValue
2.489

@<SCITEGIC>MOL_PROPERTY
Valence
SciTegic.value.DoubleValue
4.181

@<SCITEGIC>MOL_PROPERTY
Coulomb
SciTegic.value.DoubleValue
19.656

@<SCITEGIC>MOL_PROPERTY
VdW
SciTegic.value.DoubleValue
1.310

@<SCITEGIC>MOL_PROPERTY
VdW6
SciTegic.value.DoubleValue
-9.191

@<SCITEGIC>MOL_PROPERTY
VdW12
SciTegic.value.DoubleValue
10.501

@<SCITEGIC>MOL_PROPERTY
Bond
SciTegic.value.DoubleValue
0.259

@<SCITEGIC>MOL_PROPERTY
Angle
SciTegic.value.DoubleValue
1.449

@<SCITEGIC>MOL_PROPERTY
Pdih
SciTegic.value.DoubleValue
2.473

@<SCITEGIC>MOL_PROPERTY
Idih
SciTegic.value.DoubleValue
0.000

@<SCITEGIC>MOL_PROPERTY
Tether
SciTegic.value.DoubleValue
0.000

@<TRIPOS>MOLECULE
guest-s15_vm2.mol2 : vm2 ligand conformer 21
          29          28           1
SMALL
USER_CHARGES
 
@<TRIPOS>ATOM
       1    C1      19.117217   20.236390   19.240700 C.3        1 MOL1        -0.2426
       2    H1      18.162120   20.609817   19.632591 H          1 MOL1         0.0959
       3    H2      19.839981   21.062588   19.256740 H          1 MOL1         0.0959
       4    H3      18.961240   19.945255   18.193820 H          1 MOL1         0.0959
       5    C2      19.626401   19.038069   20.069388 C.3        1 MOL1        -0.1410
       6    H4      20.563600   18.665444   19.632714 H          1 MOL1         0.0948
       7    H5      18.898999   18.216497   20.007617 H          1 MOL1         0.0948
       8    C3      19.855238   19.421281   21.548243 C.3        1 MOL1        -0.1435
       9    H6      20.584702   20.240964   21.604661 H          1 MOL1         0.0948
      10    H7      18.914579   19.800753   21.967552 H          1 MOL1         0.0948
      11    C4      20.361850   18.218625   22.380550 C.3        1 MOL1        -0.1435
      12    H8      21.254849   17.801661   21.894643 H          1 MOL1         0.0948
      13    H9      19.607670   17.419569   22.375983 H          1 MOL1         0.0948
      14    C5      20.726332   18.580490   23.841734 C.3        1 MOL1        -0.1435
      15    H10     21.210956   17.705183   24.292678 H          1 MOL1         0.0948
      16    H11     21.474451   19.385223   23.845548 H          1 MOL1         0.0948
      17    C6      19.503917   18.997607   24.700501 C.3        1 MOL1        -0.1500
      18    H12     18.761144   18.188926   24.705714 H          1 MOL1         0.0948
      19    H13     19.018704   19.863781   24.234920 H          1 MOL1         0.0948
      20    C7      19.865810   19.380073   26.154222 C.3        1 MOL1         0.1162
      21    H14     20.649905   20.142884   26.123583 H          1 MOL1         0.0910
      22    C8      20.386033   18.177186   26.961846 C.3        1 MOL1        -0.2491
      23    H15     19.658720   17.355772   26.963382 H          1 MOL1         0.0959
      24    H16     21.330704   17.799775   26.554216 H          1 MOL1         0.0959
      25    H17     20.575909   18.464680   28.003319 H          1 MOL1         0.0959
      26    N1      18.693201   20.006277   26.856816 N.4        1 MOL1        -0.5987
      27    H18     18.938802   20.296969   27.807560 H          1 MOL1         0.3605
      28    H19     17.908812   19.352734   26.930334 H          1 MOL1         0.3605
      29    H20     18.356535   20.837261   26.361862 H          1 MOL1         0.3605
@<TRIPOS>BOND
    1     1     2    1
    2     1     3    1
    3     1     4    1
    4     1     5    1
    5     5     6    1
    6     5     7    1
    7     5     8    1
    8     8     9    1
    9     8    10    1
   10     8    11    1
   11    11    12    1
   12    11    13    1
   13    11    14    1
   14    14    15    1
   15    14    16    1
   16    14    17    1
   17    17    18    1
   18    17    19    1
   19    17    20    1
   20    20    21    1
   21    20    22    1
   22    22    23    1
   23    22    24    1
   24    22    25    1
   25    20    26    1
   26    26    27    1
   27    26    28    1
   28    26    29    1
@<TRIPOS>SUBSTRUCTURE
       1 MOL1            1 RESIDUE      1      MOL     
@<SCITEGIC>MOL_PROPERTY
VM2 Rank
SciTegic.value.IntegerValue
21

@<SCITEGIC>MOL_PROPERTY
Conf_Id
SciTegic.value.IntegerValue
921

@<SCITEGIC>MOL_PROPERTY
Probability
SciTegic.value.DoubleValue
1.51

@<SCITEGIC>MOL_PROPERTY
Sum Probability
SciTegic.value.DoubleValue
63.42

@<SCITEGIC>MOL_PROPERTY
Delta G
SciTegic.value.DoubleValue
1.148

@<SCITEGIC>MOL_PROPERTY
G
SciTegic.value.DoubleValue
34.850

@<SCITEGIC>MOL_PROPERTY
E
SciTegic.value.DoubleValue
-2.571

@<SCITEGIC>MOL_PROPERTY
-TS
SciTegic.value.DoubleValue
37.421

@<SCITEGIC>MOL_PROPERTY
U+W
SciTegic.value.DoubleValue
-26.715

@<SCITEGIC>MOL_PROPERTY
U
SciTegic.value.DoubleValue
25.442

@<SCITEGIC>MOL_PROPERTY
W
SciTegic.value.DoubleValue
-52.157

@<SCITEGIC>MOL_PROPERTY
W(PB)
SciTegic.value.DoubleValue
-54.679

@<SCITEGIC>MOL_PROPERTY
W(SA)
SciTegic.value.DoubleValue
2.522

@<SCITEGIC>MOL_PROPERTY
Valence
SciTegic.value.DoubleValue
4.343

@<SCITEGIC>MOL_PROPERTY
Coulomb
SciTegic.value.DoubleValue
19.740

@<SCITEGIC>MOL_PROPERTY
VdW
SciTegic.value.DoubleValue
1.360

@<SCITEGIC>MOL_PROPERTY
VdW6
SciTegic.value.DoubleValue
-8.739

@<SCITEGIC>MOL_PROPERTY
VdW12
SciTegic.value.DoubleValue
10.099

@<SCITEGIC>MOL_PROPERTY
Bond
SciTegic.value.DoubleValue
0.251

@<SCITEGIC>MOL_PROPERTY
Angle
SciTegic.value.DoubleValue
1.483

@<SCITEGIC>MOL_PROPERTY
Pdih
SciTegic.value.DoubleValue
2.608

@<SCITEGIC>MOL_PROPERTY
Idih
SciTegic.value.DoubleValue
0.000

@<SCITEGIC>MOL_PROPERTY
Tether
SciTegic.value.DoubleValue
0.000

@<TRIPOS>MOLECULE
guest-s15_vm2.mol2 : vm2 ligand conformer 22
          29          28           1
SMALL
USER_CHARGES
 
@<TRIPOS>ATOM
       1    C1      20.499101   18.969907   19.362974 C.3        1 MOL1        -0.2426
       2    H1      20.632915   19.292150   18.322213 H          1 MOL1         0.0959
       3    H2      21.394771   19.272558   19.919420 H          1 MOL1         0.0959
       4    H3      20.442854   17.873637   19.370495 H          1 MOL1         0.0959
       5    C2      19.219646   19.596028   19.962548 C.3        1 MOL1        -0.1410
       6    H4      18.370618   19.365322   19.304003 H          1 MOL1         0.0948
       7    H5      19.313207   20.690965   19.971543 H          1 MOL1         0.0948
       8    C3      18.895231   19.086749   21.387600 C.3        1 MOL1        -0.1435
       9    H6      17.919908   19.493024   21.689185 H          1 MOL1         0.0948
      10    H7      18.782841   17.993922   21.369682 H          1 MOL1         0.0948
      11    C4      19.956330   19.485366   22.441130 C.3        1 MOL1        -0.1435
      12    H8      20.103135   20.574010   22.419418 H          1 MOL1         0.0948
      13    H9      20.922142   19.027569   22.190133 H          1 MOL1         0.0948
      14    C5      19.543583   19.047718   23.864687 C.3        1 MOL1        -0.1435
      15    H10     18.579851   19.508554   24.118394 H          1 MOL1         0.0948
      16    H11     19.391311   17.960444   23.873544 H          1 MOL1         0.0948
      17    C6      20.612799   19.442674   24.916453 C.3        1 MOL1        -0.1500
      18    H12     20.790328   20.524740   24.861037 H          1 MOL1         0.0948
      19    H13     21.568192   18.966443   24.659160 H          1 MOL1         0.0948
      20    C7      20.254874   19.080699   26.377270 C.3        1 MOL1         0.1162
      21    H14     21.072169   19.439365   27.010641 H          1 MOL1         0.0910
      22    C8      20.138286   17.560642   26.585039 C.3        1 MOL1        -0.2491
      23    H15     21.041245   17.048245   26.230505 H          1 MOL1         0.0959
      24    H16     20.020273   17.327366   27.650336 H          1 MOL1         0.0959
      25    H17     19.274737   17.143454   26.053583 H          1 MOL1         0.0959
      26    N1      19.016149   19.786217   26.856301 N.4        1 MOL1        -0.5987
      27    H18     18.193728   19.496218   26.321453 H          1 MOL1         0.3605
      28    H19     19.102999   20.802297   26.762738 H          1 MOL1         0.3605
      29    H20     18.828441   19.584384   27.842551 H          1 MOL1         0.3605
@<TRIPOS>BOND
    1     1     2    1
    2     1     3    1
    3     1     4    1
    4     1     5    1
    5     5     6    1
    6     5     7    1
    7     5     8    1
    8     8     9    1
    9     8    10    1
   10     8    11    1
   11    11    12    1
   12    11    13    1
   13    11    14    1
   14    14    15    1
   15    14    16    1
   16    14    17    1
   17    17    18    1
   18    17    19    1
   19    17    20    1
   20    20    21    1
   21    20    22    1
   22    22    23    1
   23    22    24    1
   24    22    25    1
   25    20    26    1
   26    26    27    1
   27    26    28    1
   28    26    29    1
@<TRIPOS>SUBSTRUCTURE
       1 MOL1            1 RESIDUE      1      MOL     
@<SCITEGIC>MOL_PROPERTY
VM2 Rank
SciTegic.value.IntegerValue
22

@<SCITEGIC>MOL_PROPERTY
Conf_Id
SciTegic.value.IntegerValue
1609

@<SCITEGIC>MOL_PROPERTY
Probability
SciTegic.value.DoubleValue
1.47

@<SCITEGIC>MOL_PROPERTY
Sum Probability
SciTegic.value.DoubleValue
64.89

@<SCITEGIC>MOL_PROPERTY
Delta G
SciTegic.value.DoubleValue
1.165

@<SCITEGIC>MOL_PROPERTY
G
SciTegic.value.DoubleValue
34.867

@<SCITEGIC>MOL_PROPERTY
E
SciTegic.value.DoubleValue
-2.774

@<SCITEGIC>MOL_PROPERTY
-TS
SciTegic.value.DoubleValue
37.641

@<SCITEGIC>MOL_PROPERTY
U+W
SciTegic.value.DoubleValue
-26.918

@<SCITEGIC>MOL_PROPERTY
U
SciTegic.value.DoubleValue
25.121

@<SCITEGIC>MOL_PROPERTY
W
SciTegic.value.DoubleValue
-52.040

@<SCITEGIC>MOL_PROPERTY
W(PB)
SciTegic.value.DoubleValue
-54.554

@<SCITEGIC>MOL_PROPERTY
W(SA)
SciTegic.value.DoubleValue
2.515

@<SCITEGIC>MOL_PROPERTY
Valence
SciTegic.value.DoubleValue
4.180

@<SCITEGIC>MOL_PROPERTY
Coulomb
SciTegic.value.DoubleValue
19.632

@<SCITEGIC>MOL_PROPERTY
VdW
SciTegic.value.DoubleValue
1.309

@<SCITEGIC>MOL_PROPERTY
VdW6
SciTegic.value.DoubleValue
-9.192

@<SCITEGIC>MOL_PROPERTY
VdW12
SciTegic.value.DoubleValue
10.501

@<SCITEGIC>MOL_PROPERTY
Bond
SciTegic.value.DoubleValue
0.259

@<SCITEGIC>MOL_PROPERTY
Angle
SciTegic.value.DoubleValue
1.449

@<SCITEGIC>MOL_PROPERTY
Pdih
SciTegic.value.DoubleValue
2.473

@<SCITEGIC>MOL_PROPERTY
Idih
SciTegic.value.DoubleValue
0.000

@<SCITEGIC>MOL_PROPERTY
Tether
SciTegic.value.DoubleValue
0.000

@<TRIPOS>MOLECULE
guest-s15_vm2.mol2 : vm2 ligand conformer 23
          29          28           1
SMALL
USER_CHARGES
 
@<TRIPOS>ATOM
       1    C1      18.734383   19.024015   19.316743 C.3        1 MOL1        -0.2426
       2    H1      19.487765   19.313828   18.572663 H          1 MOL1         0.0959
       3    H2      18.206398   18.140576   18.934900 H          1 MOL1         0.0959
       4    H3      18.006263   19.841167   19.402480 H          1 MOL1         0.0959
       5    C2      19.389347   18.720049   20.680787 C.3        1 MOL1        -0.1410
       6    H4      20.089873   17.880685   20.569421 H          1 MOL1         0.0948
       7    H5      18.611397   18.395206   21.384237 H          1 MOL1         0.0948
       8    C3      20.136422   19.953205   21.241438 C.3        1 MOL1        -0.1435
       9    H6      20.851762   20.309716   20.487455 H          1 MOL1         0.0948
      10    H7      19.425325   20.774872   21.403934 H          1 MOL1         0.0948
      11    C4      20.908785   19.667807   22.552860 C.3        1 MOL1        -0.1435
      12    H8      21.499488   20.558465   22.808012 H          1 MOL1         0.0948
      13    H9      21.630678   18.856656   22.384979 H          1 MOL1         0.0948
      14    C5      19.991022   19.312050   23.747155 C.3        1 MOL1        -0.1435
      15    H10     19.237548   20.101083   23.869859 H          1 MOL1         0.0948
      16    H11     19.451629   18.382422   23.528747 H          1 MOL1         0.0948
      17    C6      20.802316   19.145620   25.058525 C.3        1 MOL1        -0.1500
      18    H12     21.373482   20.063800   25.248605 H          1 MOL1         0.0948
      19    H13     21.546498   18.349148   24.925833 H          1 MOL1         0.0948
      20    C7      19.954926   18.830161   26.313797 C.3        1 MOL1         0.1162
      21    H14     20.642255   18.771614   27.163459 H          1 MOL1         0.0910
      22    C8      19.237028   17.473806   26.202511 C.3        1 MOL1        -0.2491
      23    H15     19.948281   16.675023   25.958288 H          1 MOL1         0.0959
      24    H16     18.759447   17.213805   27.155149 H          1 MOL1         0.0959
      25    H17     18.458004   17.488803   25.431095 H          1 MOL1         0.0959
      26    N1      18.981772   19.929287   26.640185 N.4        1 MOL1        -0.5987
      27    H18     19.457451   20.828169   26.760436 H          1 MOL1         0.3605
      28    H19     18.473323   19.733434   27.507237 H          1 MOL1         0.3605
      29    H20     18.288574   20.043969   25.896643 H          1 MOL1         0.3605
@<TRIPOS>BOND
    1     1     2    1
    2     1     3    1
    3     1     4    1
    4     1     5    1
    5     5     6    1
    6     5     7    1
    7     5     8    1
    8     8     9    1
    9     8    10    1
   10     8    11    1
   11    11    12    1
   12    11    13    1
   13    11    14    1
   14    14    15    1
   15    14    16    1
   16    14    17    1
   17    17    18    1
   18    17    19    1
   19    17    20    1
   20    20    21    1
   21    20    22    1
   22    22    23    1
   23    22    24    1
   24    22    25    1
   25    20    26    1
   26    26    27    1
   27    26    28    1
   28    26    29    1
@<TRIPOS>SUBSTRUCTURE
       1 MOL1            1 RESIDUE      1      MOL     
@<SCITEGIC>MOL_PROPERTY
VM2 Rank
SciTegic.value.IntegerValue
23

@<SCITEGIC>MOL_PROPERTY
Conf_Id
SciTegic.value.IntegerValue
1563

@<SCITEGIC>MOL_PROPERTY
Probability
SciTegic.value.DoubleValue
1.45

@<SCITEGIC>MOL_PROPERTY
Sum Probability
SciTegic.value.DoubleValue
66.33

@<SCITEGIC>MOL_PROPERTY
Delta G
SciTegic.value.DoubleValue
1.173

@<SCITEGIC>MOL_PROPERTY
G
SciTegic.value.DoubleValue
34.875

@<SCITEGIC>MOL_PROPERTY
E
SciTegic.value.DoubleValue
-2.753

@<SCITEGIC>MOL_PROPERTY
-TS
SciTegic.value.DoubleValue
37.629

@<SCITEGIC>MOL_PROPERTY
U+W
SciTegic.value.DoubleValue
-26.898

@<SCITEGIC>MOL_PROPERTY
U
SciTegic.value.DoubleValue
25.354

@<SCITEGIC>MOL_PROPERTY
W
SciTegic.value.DoubleValue
-52.252

@<SCITEGIC>MOL_PROPERTY
W(PB)
SciTegic.value.DoubleValue
-54.739

@<SCITEGIC>MOL_PROPERTY
W(SA)
SciTegic.value.DoubleValue
2.487

@<SCITEGIC>MOL_PROPERTY
Valence
SciTegic.value.DoubleValue
4.221

@<SCITEGIC>MOL_PROPERTY
Coulomb
SciTegic.value.DoubleValue
19.855

@<SCITEGIC>MOL_PROPERTY
VdW
SciTegic.value.DoubleValue
1.278

@<SCITEGIC>MOL_PROPERTY
VdW6
SciTegic.value.DoubleValue
-9.276

@<SCITEGIC>MOL_PROPERTY
VdW12
SciTegic.value.DoubleValue
10.553

@<SCITEGIC>MOL_PROPERTY
Bond
SciTegic.value.DoubleValue
0.264

@<SCITEGIC>MOL_PROPERTY
Angle
SciTegic.value.DoubleValue
1.471

@<SCITEGIC>MOL_PROPERTY
Pdih
SciTegic.value.DoubleValue
2.486

@<SCITEGIC>MOL_PROPERTY
Idih
SciTegic.value.DoubleValue
0.000

@<SCITEGIC>MOL_PROPERTY
Tether
SciTegic.value.DoubleValue
0.000

@<TRIPOS>MOLECULE
guest-s15_vm2.mol2 : vm2 ligand conformer 24
          29          28           1
SMALL
USER_CHARGES
 
@<TRIPOS>ATOM
       1    C1      19.744067   20.359381   19.250002 C.3        1 MOL1        -0.2426
       2    H1      18.784144   20.879065   19.367136 H          1 MOL1         0.0959
       3    H2      20.545538   21.052572   19.536999 H          1 MOL1         0.0959
       4    H3      19.870264   20.120157   18.186101 H          1 MOL1         0.0959
       5    C2      19.787791   19.075877   20.105960 C.3        1 MOL1        -0.1410
       6    H4      20.745104   18.561199   19.942983 H          1 MOL1         0.0948
       7    H5      18.997461   18.388789   19.772558 H          1 MOL1         0.0948
       8    C3      19.611530   19.384605   21.609215 C.3        1 MOL1        -0.1435
       9    H6      20.400782   20.078644   21.925789 H          1 MOL1         0.0948
      10    H7      18.652451   19.896826   21.767168 H          1 MOL1         0.0948
      11    C4      19.659602   18.098255   22.468521 C.3        1 MOL1        -0.1435
      12    H8      20.639630   17.614023   22.357481 H          1 MOL1         0.0948
      13    H9      18.918271   17.384687   22.083001 H          1 MOL1         0.0948
      14    C5      19.367934   18.342228   23.969688 C.3        1 MOL1        -0.1435
      15    H10     18.384516   18.819544   24.073153 H          1 MOL1         0.0948
      16    H11     19.291444   17.363830   24.461081 H          1 MOL1         0.0948
      17    C6      20.455066   19.196259   24.678001 C.3        1 MOL1        -0.1500
      18    H12     20.509368   20.185942   24.208631 H          1 MOL1         0.0948
      19    H13     21.438700   18.733155   24.524517 H          1 MOL1         0.0948
      20    C7      20.233533   19.402920   26.195145 C.3        1 MOL1         0.1162
      21    H14     21.030912   20.061965   26.552371 H          1 MOL1         0.0910
      22    C8      20.335037   18.084857   26.982642 C.3        1 MOL1        -0.2491
      23    H15     21.274334   17.565749   26.755023 H          1 MOL1         0.0959
      24    H16     20.317235   18.281408   28.061646 H          1 MOL1         0.0959
      25    H17     19.503425   17.408422   26.752913 H          1 MOL1         0.0959
      26    N1      18.941440   20.111619   26.494826 N.4        1 MOL1        -0.5987
      27    H18     18.839186   20.295283   27.497049 H          1 MOL1         0.3605
      28    H19     18.135972   19.553577   26.200881 H          1 MOL1         0.3605
      29    H20     18.886421   21.012416   26.010911 H          1 MOL1         0.3605
@<TRIPOS>BOND
    1     1     2    1
    2     1     3    1
    3     1     4    1
    4     1     5    1
    5     5     6    1
    6     5     7    1
    7     5     8    1
    8     8     9    1
    9     8    10    1
   10     8    11    1
   11    11    12    1
   12    11    13    1
   13    11    14    1
   14    14    15    1
   15    14    16    1
   16    14    17    1
   17    17    18    1
   18    17    19    1
   19    17    20    1
   20    20    21    1
   21    20    22    1
   22    22    23    1
   23    22    24    1
   24    22    25    1
   25    20    26    1
   26    26    27    1
   27    26    28    1
   28    26    29    1
@<TRIPOS>SUBSTRUCTURE
       1 MOL1            1 RESIDUE      1      MOL     
@<SCITEGIC>MOL_PROPERTY
VM2 Rank
SciTegic.value.IntegerValue
24

@<SCITEGIC>MOL_PROPERTY
Conf_Id
SciTegic.value.IntegerValue
1272

@<SCITEGIC>MOL_PROPERTY
Probability
SciTegic.value.DoubleValue
1.35

@<SCITEGIC>MOL_PROPERTY
Sum Probability
SciTegic.value.DoubleValue
67.69

@<SCITEGIC>MOL_PROPERTY
Delta G
SciTegic.value.DoubleValue
1.213

@<SCITEGIC>MOL_PROPERTY
G
SciTegic.value.DoubleValue
34.915

@<SCITEGIC>MOL_PROPERTY
E
SciTegic.value.DoubleValue
-2.675

@<SCITEGIC>MOL_PROPERTY
-TS
SciTegic.value.DoubleValue
37.591

@<SCITEGIC>MOL_PROPERTY
U+W
SciTegic.value.DoubleValue
-26.820

@<SCITEGIC>MOL_PROPERTY
U
SciTegic.value.DoubleValue
25.474

@<SCITEGIC>MOL_PROPERTY
W
SciTegic.value.DoubleValue
-52.294

@<SCITEGIC>MOL_PROPERTY
W(PB)
SciTegic.value.DoubleValue
-54.793

@<SCITEGIC>MOL_PROPERTY
W(SA)
SciTegic.value.DoubleValue
2.500

@<SCITEGIC>MOL_PROPERTY
Valence
SciTegic.value.DoubleValue
4.286

@<SCITEGIC>MOL_PROPERTY
Coulomb
SciTegic.value.DoubleValue
19.883

@<SCITEGIC>MOL_PROPERTY
VdW
SciTegic.value.DoubleValue
1.305

@<SCITEGIC>MOL_PROPERTY
VdW6
SciTegic.value.DoubleValue
-9.235

@<SCITEGIC>MOL_PROPERTY
VdW12
SciTegic.value.DoubleValue
10.540

@<SCITEGIC>MOL_PROPERTY
Bond
SciTegic.value.DoubleValue
0.276

@<SCITEGIC>MOL_PROPERTY
Angle
SciTegic.value.DoubleValue
1.498

@<SCITEGIC>MOL_PROPERTY
Pdih
SciTegic.value.DoubleValue
2.512

@<SCITEGIC>MOL_PROPERTY
Idih
SciTegic.value.DoubleValue
0.000

@<SCITEGIC>MOL_PROPERTY
Tether
SciTegic.value.DoubleValue
0.000

@<TRIPOS>MOLECULE
guest-s15_vm2.mol2 : vm2 ligand conformer 25
          29          28           1
SMALL
USER_CHARGES
 
@<TRIPOS>ATOM
       1    C1      18.641101   19.458569   19.360242 C.3        1 MOL1        -0.2426
       2    H1      17.834727   20.159211   19.107468 H          1 MOL1         0.0959
       3    H2      19.424494   19.557358   18.597506 H          1 MOL1         0.0959
       4    H3      18.233880   18.440687   19.302496 H          1 MOL1         0.0959
       5    C2      19.197573   19.753659   20.769231 C.3        1 MOL1        -0.1410
       6    H4      18.378033   19.685261   21.496699 H          1 MOL1         0.0948
       7    H5      19.570577   20.786761   20.804471 H          1 MOL1         0.0948
       8    C3      20.333426   18.774802   21.149636 C.3        1 MOL1        -0.1435
       9    H6      19.945997   17.746800   21.167538 H          1 MOL1         0.0948
      10    H7      21.103218   18.800128   20.366003 H          1 MOL1         0.0948
      11    C4      21.004852   19.100435   22.506439 C.3        1 MOL1        -0.1435
      12    H8      21.407102   20.122605   22.481122 H          1 MOL1         0.0948
      13    H9      21.867722   18.432533   22.635618 H          1 MOL1         0.0948
      14    C5      20.057917   18.940757   23.720086 C.3        1 MOL1        -0.1435
      15    H10     19.231971   19.657949   23.639318 H          1 MOL1         0.0948
      16    H11     19.615968   17.936030   23.698686 H          1 MOL1         0.0948
      17    C6      20.807911   19.161638   25.059587 C.3        1 MOL1        -0.1500
      18    H12     21.290818   20.147552   25.043735 H          1 MOL1         0.0948
      19    H13     21.620902   18.428572   25.145646 H          1 MOL1         0.0948
      20    C7      19.922757   19.071301   26.325147 C.3        1 MOL1         0.1162
      21    H14     20.567013   19.270525   27.187130 H          1 MOL1         0.0910
      22    C8      19.318909   17.668308   26.510289 C.3        1 MOL1        -0.2491
      23    H15     20.101948   16.900340   26.484716 H          1 MOL1         0.0959
      24    H16     18.812031   17.594120   27.480222 H          1 MOL1         0.0959
      25    H17     18.584046   17.436651   25.730194 H          1 MOL1         0.0959
      26    N1      18.851554   20.126531   26.353343 N.4        1 MOL1        -0.5987
      27    H18     18.190464   20.005006   25.582211 H          1 MOL1         0.3605
      28    H19     19.249084   21.067009   26.274583 H          1 MOL1         0.3605
      29    H20     18.316144   20.092504   27.225619 H          1 MOL1         0.3605
@<TRIPOS>BOND
    1     1     2    1
    2     1     3    1
    3     1     4    1
    4     1     5    1
    5     5     6    1
    6     5     7    1
    7     5     8    1
    8     8     9    1
    9     8    10    1
   10     8    11    1
   11    11    12    1
   12    11    13    1
   13    11    14    1
   14    14    15    1
   15    14    16    1
   16    14    17    1
   17    17    18    1
   18    17    19    1
   19    17    20    1
   20    20    21    1
   21    20    22    1
   22    22    23    1
   23    22    24    1
   24    22    25    1
   25    20    26    1
   26    26    27    1
   27    26    28    1
   28    26    29    1
@<TRIPOS>SUBSTRUCTURE
       1 MOL1            1 RESIDUE      1      MOL     
@<SCITEGIC>MOL_PROPERTY
VM2 Rank
SciTegic.value.IntegerValue
25

@<SCITEGIC>MOL_PROPERTY
Conf_Id
SciTegic.value.IntegerValue
999

@<SCITEGIC>MOL_PROPERTY
Probability
SciTegic.value.DoubleValue
1.35

@<SCITEGIC>MOL_PROPERTY
Sum Probability
SciTegic.value.DoubleValue
69.04

@<SCITEGIC>MOL_PROPERTY
Delta G
SciTegic.value.DoubleValue
1.213

@<SCITEGIC>MOL_PROPERTY
G
SciTegic.value.DoubleValue
34.915

@<SCITEGIC>MOL_PROPERTY
E
SciTegic.value.DoubleValue
-2.712

@<SCITEGIC>MOL_PROPERTY
-TS
SciTegic.value.DoubleValue
37.628

@<SCITEGIC>MOL_PROPERTY
U+W
SciTegic.value.DoubleValue
-26.857

@<SCITEGIC>MOL_PROPERTY
U
SciTegic.value.DoubleValue
25.544

@<SCITEGIC>MOL_PROPERTY
W
SciTegic.value.DoubleValue
-52.401

@<SCITEGIC>MOL_PROPERTY
W(PB)
SciTegic.value.DoubleValue
-54.892

@<SCITEGIC>MOL_PROPERTY
W(SA)
SciTegic.value.DoubleValue
2.491

@<SCITEGIC>MOL_PROPERTY
Valence
SciTegic.value.DoubleValue
4.218

@<SCITEGIC>MOL_PROPERTY
Coulomb
SciTegic.value.DoubleValue
20.055

@<SCITEGIC>MOL_PROPERTY
VdW
SciTegic.value.DoubleValue
1.272

@<SCITEGIC>MOL_PROPERTY
VdW6
SciTegic.value.DoubleValue
-9.272

@<SCITEGIC>MOL_PROPERTY
VdW12
SciTegic.value.DoubleValue
10.543

@<SCITEGIC>MOL_PROPERTY
Bond
SciTegic.value.DoubleValue
0.264

@<SCITEGIC>MOL_PROPERTY
Angle
SciTegic.value.DoubleValue
1.469

@<SCITEGIC>MOL_PROPERTY
Pdih
SciTegic.value.DoubleValue
2.486

@<SCITEGIC>MOL_PROPERTY
Idih
SciTegic.value.DoubleValue
0.000

@<SCITEGIC>MOL_PROPERTY
Tether
SciTegic.value.DoubleValue
0.000

@<TRIPOS>MOLECULE
guest-s15_vm2.mol2 : vm2 ligand conformer 26
          29          28           1
SMALL
USER_CHARGES
 
@<TRIPOS>ATOM
       1    C1      20.913964   19.797375   20.085611 C.3        1 MOL1        -0.2426
       2    H1      21.538109   19.525858   20.946098 H          1 MOL1         0.0959
       3    H2      20.960003   18.979548   19.354866 H          1 MOL1         0.0959
       4    H3      21.358631   20.687692   19.622534 H          1 MOL1         0.0959
       5    C2      19.455569   20.079791   20.511441 C.3        1 MOL1        -0.1410
       6    H4      18.901033   20.460880   19.642598 H          1 MOL1         0.0948
       7    H5      19.436523   20.886282   21.256553 H          1 MOL1         0.0948
       8    C3      18.719372   18.829246   21.056048 C.3        1 MOL1        -0.1435
       9    H6      17.686327   19.107752   21.305743 H          1 MOL1         0.0948
      10    H7      18.643611   18.084251   20.252095 H          1 MOL1         0.0948
      11    C4      19.373934   18.160737   22.292490 C.3        1 MOL1        -0.1435
      12    H8      20.366881   17.774445   22.026855 H          1 MOL1         0.0948
      13    H9      18.772862   17.283586   22.569079 H          1 MOL1         0.0948
      14    C5      19.486545   19.100430   23.516641 C.3        1 MOL1        -0.1435
      15    H10     20.148147   19.943978   23.278987 H          1 MOL1         0.0948
      16    H11     18.496831   19.520185   23.739823 H          1 MOL1         0.0948
      17    C6      20.040293   18.358635   24.757284 C.3        1 MOL1        -0.1500
      18    H12     21.001986   17.897909   24.494648 H          1 MOL1         0.0948
      19    H13     19.364226   17.538242   25.032675 H          1 MOL1         0.0948
      20    C7      20.249172   19.289092   25.971511 C.3        1 MOL1         0.1162
      21    H14     20.905523   20.109739   25.665925 H          1 MOL1         0.0910
      22    C8      20.931687   18.526429   27.118138 C.3        1 MOL1        -0.2491
      23    H15     21.899524   18.122433   26.795902 H          1 MOL1         0.0959
      24    H16     21.116140   19.191219   27.971035 H          1 MOL1         0.0959
      25    H17     20.310604   17.690631   27.464032 H          1 MOL1         0.0959
      26    N1      18.965464   19.914265   26.444836 N.4        1 MOL1        -0.5987
      27    H18     18.521123   20.462137   25.703174 H          1 MOL1         0.3605
      28    H19     19.125411   20.543238   27.236958 H          1 MOL1         0.3605
      29    H20     18.294355   19.203480   26.748040 H          1 MOL1         0.3605
@<TRIPOS>BOND
    1     1     2    1
    2     1     3    1
    3     1     4    1
    4     1     5    1
    5     5     6    1
    6     5     7    1
    7     5     8    1
    8     8     9    1
    9     8    10    1
   10     8    11    1
   11    11    12    1
   12    11    13    1
   13    11    14    1
   14    14    15    1
   15    14    16    1
   16    14    17    1
   17    17    18    1
   18    17    19    1
   19    17    20    1
   20    20    21    1
   21    20    22    1
   22    22    23    1
   23    22    24    1
   24    22    25    1
   25    20    26    1
   26    26    27    1
   27    26    28    1
   28    26    29    1
@<TRIPOS>SUBSTRUCTURE
       1 MOL1            1 RESIDUE      1      MOL     
@<SCITEGIC>MOL_PROPERTY
VM2 Rank
SciTegic.value.IntegerValue
26

@<SCITEGIC>MOL_PROPERTY
Conf_Id
SciTegic.value.IntegerValue
1357

@<SCITEGIC>MOL_PROPERTY
Probability
SciTegic.value.DoubleValue
1.28

@<SCITEGIC>MOL_PROPERTY
Sum Probability
SciTegic.value.DoubleValue
70.32

@<SCITEGIC>MOL_PROPERTY
Delta G
SciTegic.value.DoubleValue
1.246

@<SCITEGIC>MOL_PROPERTY
G
SciTegic.value.DoubleValue
34.948

@<SCITEGIC>MOL_PROPERTY
E
SciTegic.value.DoubleValue
-2.870

@<SCITEGIC>MOL_PROPERTY
-TS
SciTegic.value.DoubleValue
37.818

@<SCITEGIC>MOL_PROPERTY
U+W
SciTegic.value.DoubleValue
-27.014

@<SCITEGIC>MOL_PROPERTY
U
SciTegic.value.DoubleValue
25.212

@<SCITEGIC>MOL_PROPERTY
W
SciTegic.value.DoubleValue
-52.226

@<SCITEGIC>MOL_PROPERTY
W(PB)
SciTegic.value.DoubleValue
-54.717

@<SCITEGIC>MOL_PROPERTY
W(SA)
SciTegic.value.DoubleValue
2.490

@<SCITEGIC>MOL_PROPERTY
Valence
SciTegic.value.DoubleValue
4.125

@<SCITEGIC>MOL_PROPERTY
Coulomb
SciTegic.value.DoubleValue
19.951

@<SCITEGIC>MOL_PROPERTY
VdW
SciTegic.value.DoubleValue
1.137

@<SCITEGIC>MOL_PROPERTY
VdW6
SciTegic.value.DoubleValue
-9.556

@<SCITEGIC>MOL_PROPERTY
VdW12
SciTegic.value.DoubleValue
10.693

@<SCITEGIC>MOL_PROPERTY
Bond
SciTegic.value.DoubleValue
0.266

@<SCITEGIC>MOL_PROPERTY
Angle
SciTegic.value.DoubleValue
1.520

@<SCITEGIC>MOL_PROPERTY
Pdih
SciTegic.value.DoubleValue
2.339

@<SCITEGIC>MOL_PROPERTY
Idih
SciTegic.value.DoubleValue
0.000

@<SCITEGIC>MOL_PROPERTY
Tether
SciTegic.value.DoubleValue
0.000

@<TRIPOS>MOLECULE
guest-s15_vm2.mol2 : vm2 ligand conformer 27
          29          28           1
SMALL
USER_CHARGES
 
@<TRIPOS>ATOM
       1    C1      20.844045   19.476631   19.759069 C.3        1 MOL1        -0.2426
       2    H1      21.620385   19.370284   20.526830 H          1 MOL1         0.0959
       3    H2      20.628995   18.482378   19.346462 H          1 MOL1         0.0959
       4    H3      21.260954   20.092318   18.951578 H          1 MOL1         0.0959
       5    C2      19.565280   20.129138   20.331326 C.3        1 MOL1        -0.1410
       6    H4      18.867981   20.325864   19.504993 H          1 MOL1         0.0948
       7    H5      19.812352   21.108283   20.764853 H          1 MOL1         0.0948
       8    C3      18.848549   19.254506   21.388084 C.3        1 MOL1        -0.1435
       9    H6      17.901158   19.740879   21.658549 H          1 MOL1         0.0948
      10    H7      18.582707   18.285851   20.942805 H          1 MOL1         0.0948
      11    C4      19.684666   19.028046   22.670205 C.3        1 MOL1        -0.1435
      12    H8      19.997036   20.000916   23.071958 H          1 MOL1         0.0948
      13    H9      20.600165   18.473852   22.425034 H          1 MOL1         0.0948
      14    C5      18.888784   18.242280   23.739764 C.3        1 MOL1        -0.1435
      15    H10     17.984624   18.800716   24.016524 H          1 MOL1         0.0948
      16    H11     18.539253   17.296320   23.303478 H          1 MOL1         0.0948
      17    C6      19.722084   17.920359   25.006684 C.3        1 MOL1        -0.1500
      18    H12     20.563776   17.275415   24.721075 H          1 MOL1         0.0948
      19    H13     19.106563   17.331761   25.699903 H          1 MOL1         0.0948
      20    C7      20.268763   19.165785   25.739837 C.3        1 MOL1         0.1162
      21    H14     20.895457   19.729317   25.042390 H          1 MOL1         0.0910
      22    C8      21.140408   18.744276   26.933271 C.3        1 MOL1        -0.2491
      23    H15     21.976268   18.115394   26.602223 H          1 MOL1         0.0959
      24    H16     21.563541   19.623462   27.434643 H          1 MOL1         0.0959
      25    H17     20.557571   18.177835   27.670404 H          1 MOL1         0.0959
      26    N1      19.173423   20.094979   26.185759 N.4        1 MOL1        -0.5987
      27    H18     18.543626   19.636774   26.849750 H          1 MOL1         0.3605
      28    H19     18.609240   20.410935   25.392152 H          1 MOL1         0.3605
      29    H20     19.552294   20.927660   26.645849 H          1 MOL1         0.3605
@<TRIPOS>BOND
    1     1     2    1
    2     1     3    1
    3     1     4    1
    4     1     5    1
    5     5     6    1
    6     5     7    1
    7     5     8    1
    8     8     9    1
    9     8    10    1
   10     8    11    1
   11    11    12    1
   12    11    13    1
   13    11    14    1
   14    14    15    1
   15    14    16    1
   16    14    17    1
   17    17    18    1
   18    17    19    1
   19    17    20    1
   20    20    21    1
   21    20    22    1
   22    22    23    1
   23    22    24    1
   24    22    25    1
   25    20    26    1
   26    26    27    1
   27    26    28    1
   28    26    29    1
@<TRIPOS>SUBSTRUCTURE
       1 MOL1            1 RESIDUE      1      MOL     
@<SCITEGIC>MOL_PROPERTY
VM2 Rank
SciTegic.value.IntegerValue
27

@<SCITEGIC>MOL_PROPERTY
Conf_Id
SciTegic.value.IntegerValue
1297

@<SCITEGIC>MOL_PROPERTY
Probability
SciTegic.value.DoubleValue
1.27

@<SCITEGIC>MOL_PROPERTY
Sum Probability
SciTegic.value.DoubleValue
71.59

@<SCITEGIC>MOL_PROPERTY
Delta G
SciTegic.value.DoubleValue
1.250

@<SCITEGIC>MOL_PROPERTY
G
SciTegic.value.DoubleValue
34.952

@<SCITEGIC>MOL_PROPERTY
E
SciTegic.value.DoubleValue
-2.740

@<SCITEGIC>MOL_PROPERTY
-TS
SciTegic.value.DoubleValue
37.692

@<SCITEGIC>MOL_PROPERTY
U+W
SciTegic.value.DoubleValue
-26.884

@<SCITEGIC>MOL_PROPERTY
U
SciTegic.value.DoubleValue
25.266

@<SCITEGIC>MOL_PROPERTY
W
SciTegic.value.DoubleValue
-52.151

@<SCITEGIC>MOL_PROPERTY
W(PB)
SciTegic.value.DoubleValue
-54.660

@<SCITEGIC>MOL_PROPERTY
W(SA)
SciTegic.value.DoubleValue
2.509

@<SCITEGIC>MOL_PROPERTY
Valence
SciTegic.value.DoubleValue
3.967

@<SCITEGIC>MOL_PROPERTY
Coulomb
SciTegic.value.DoubleValue
20.252

@<SCITEGIC>MOL_PROPERTY
VdW
SciTegic.value.DoubleValue
1.048

@<SCITEGIC>MOL_PROPERTY
VdW6
SciTegic.value.DoubleValue
-9.487

@<SCITEGIC>MOL_PROPERTY
VdW12
SciTegic.value.DoubleValue
10.535

@<SCITEGIC>MOL_PROPERTY
Bond
SciTegic.value.DoubleValue
0.252

@<SCITEGIC>MOL_PROPERTY
Angle
SciTegic.value.DoubleValue
1.329

@<SCITEGIC>MOL_PROPERTY
Pdih
SciTegic.value.DoubleValue
2.385

@<SCITEGIC>MOL_PROPERTY
Idih
SciTegic.value.DoubleValue
0.000

@<SCITEGIC>MOL_PROPERTY
Tether
SciTegic.value.DoubleValue
0.000

@<TRIPOS>MOLECULE
guest-s15_vm2.mol2 : vm2 ligand conformer 28
          29          28           1
SMALL
USER_CHARGES
 
@<TRIPOS>ATOM
       1    C1      18.307645   19.530205   20.294553 C.3        1 MOL1        -0.2426
       2    H1      17.871859   19.125760   21.216624 H          1 MOL1         0.0959
       3    H2      17.621284   20.297263   19.913287 H          1 MOL1         0.0959
       4    H3      18.354971   18.722469   19.552752 H          1 MOL1         0.0959
       5    C2      19.707468   20.133877   20.547733 C.3        1 MOL1        -0.1410
       6    H4      19.638494   20.924866   21.306338 H          1 MOL1         0.0948
       7    H5      20.050415   20.629136   19.628637 H          1 MOL1         0.0948
       8    C3      20.766482   19.081699   20.964883 C.3        1 MOL1        -0.1435
       9    H6      20.908984   18.374623   20.136127 H          1 MOL1         0.0948
      10    H7      21.733096   19.586595   21.098467 H          1 MOL1         0.0948
      11    C4      20.435156   18.279704   22.249929 C.3        1 MOL1        -0.1435
      12    H8      21.247116   17.560781   22.425972 H          1 MOL1         0.0948
      13    H9      19.529350   17.679125   22.093171 H          1 MOL1         0.0948
      14    C5      20.264749   19.166584   23.506443 C.3        1 MOL1        -0.1435
      15    H10     21.156721   19.795344   23.634568 H          1 MOL1         0.0948
      16    H11     19.412396   19.842397   23.363803 H          1 MOL1         0.0948
      17    C6      20.044854   18.316074   24.781062 C.3        1 MOL1        -0.1500
      18    H12     20.880416   17.611230   24.886248 H          1 MOL1         0.0948
      19    H13     19.135571   17.710260   24.670733 H          1 MOL1         0.0948
      20    C7      19.948908   19.168196   26.065076 C.3        1 MOL1         0.1162
      21    H14     20.852924   19.780551   26.138692 H          1 MOL1         0.0910
      22    C8      19.877922   18.261409   27.304026 C.3        1 MOL1        -0.2491
      23    H15     19.846189   18.860512   28.222433 H          1 MOL1         0.0959
      24    H16     18.984297   17.625181   27.279662 H          1 MOL1         0.0959
      25    H17     20.759274   17.610537   27.361822 H          1 MOL1         0.0959
      26    N1      18.782816   20.118251   26.040296 N.4        1 MOL1        -0.5987
      27    H18     18.839938   20.759204   25.244353 H          1 MOL1         0.3605
      28    H19     18.746470   20.687747   26.890612 H          1 MOL1         0.3605
      29    H20     17.894034   19.615668   25.969439 H          1 MOL1         0.3605
@<TRIPOS>BOND
    1     1     2    1
    2     1     3    1
    3     1     4    1
    4     1     5    1
    5     5     6    1
    6     5     7    1
    7     5     8    1
    8     8     9    1
    9     8    10    1
   10     8    11    1
   11    11    12    1
   12    11    13    1
   13    11    14    1
   14    14    15    1
   15    14    16    1
   16    14    17    1
   17    17    18    1
   18    17    19    1
   19    17    20    1
   20    20    21    1
   21    20    22    1
   22    22    23    1
   23    22    24    1
   24    22    25    1
   25    20    26    1
   26    26    27    1
   27    26    28    1
   28    26    29    1
@<TRIPOS>SUBSTRUCTURE
       1 MOL1            1 RESIDUE      1      MOL     
@<SCITEGIC>MOL_PROPERTY
VM2 Rank
SciTegic.value.IntegerValue
28

@<SCITEGIC>MOL_PROPERTY
Conf_Id
SciTegic.value.IntegerValue
989

@<SCITEGIC>MOL_PROPERTY
Probability
SciTegic.value.DoubleValue
1.25

@<SCITEGIC>MOL_PROPERTY
Sum Probability
SciTegic.value.DoubleValue
72.84

@<SCITEGIC>MOL_PROPERTY
Delta G
SciTegic.value.DoubleValue
1.262

@<SCITEGIC>MOL_PROPERTY
G
SciTegic.value.DoubleValue
34.964

@<SCITEGIC>MOL_PROPERTY
E
SciTegic.value.DoubleValue
-2.857

@<SCITEGIC>MOL_PROPERTY
-TS
SciTegic.value.DoubleValue
37.821

@<SCITEGIC>MOL_PROPERTY
U+W
SciTegic.value.DoubleValue
-27.001

@<SCITEGIC>MOL_PROPERTY
U
SciTegic.value.DoubleValue
25.448

@<SCITEGIC>MOL_PROPERTY
W
SciTegic.value.DoubleValue
-52.449

@<SCITEGIC>MOL_PROPERTY
W(PB)
SciTegic.value.DoubleValue
-54.941

@<SCITEGIC>MOL_PROPERTY
W(SA)
SciTegic.value.DoubleValue
2.491

@<SCITEGIC>MOL_PROPERTY
Valence
SciTegic.value.DoubleValue
4.118

@<SCITEGIC>MOL_PROPERTY
Coulomb
SciTegic.value.DoubleValue
20.194

@<SCITEGIC>MOL_PROPERTY
VdW
SciTegic.value.DoubleValue
1.135

@<SCITEGIC>MOL_PROPERTY
VdW6
SciTegic.value.DoubleValue
-9.586

@<SCITEGIC>MOL_PROPERTY
VdW12
SciTegic.value.DoubleValue
10.721

@<SCITEGIC>MOL_PROPERTY
Bond
SciTegic.value.DoubleValue
0.268

@<SCITEGIC>MOL_PROPERTY
Angle
SciTegic.value.DoubleValue
1.523

@<SCITEGIC>MOL_PROPERTY
Pdih
SciTegic.value.DoubleValue
2.327

@<SCITEGIC>MOL_PROPERTY
Idih
SciTegic.value.DoubleValue
0.000

@<SCITEGIC>MOL_PROPERTY
Tether
SciTegic.value.DoubleValue
0.000

@<TRIPOS>MOLECULE
guest-s15_vm2.mol2 : vm2 ligand conformer 29
          29          28           1
SMALL
USER_CHARGES
 
@<TRIPOS>ATOM
       1    C1      19.601009   19.838945   19.262024 C.3        1 MOL1        -0.2426
       2    H1      18.739747   20.507833   19.387860 H          1 MOL1         0.0959
       3    H2      20.511959   20.401885   19.499644 H          1 MOL1         0.0959
       4    H3      19.655206   19.557447   18.202423 H          1 MOL1         0.0959
       5    C2      19.461722   18.580647   20.148704 C.3        1 MOL1        -0.1410
       6    H4      20.350591   17.945056   20.031850 H          1 MOL1         0.0948
       7    H5      18.610210   17.987464   19.786992 H          1 MOL1         0.0948
       8    C3      19.240510   18.901529   21.646767 C.3        1 MOL1        -0.1435
       9    H6      18.350021   19.535244   21.758202 H          1 MOL1         0.0948
      10    H7      19.018245   17.960100   22.165156 H          1 MOL1         0.0948
      11    C4      20.458346   19.587188   22.316793 C.3        1 MOL1        -0.1435
      12    H8      20.681836   20.526124   21.794221 H          1 MOL1         0.0948
      13    H9      21.348373   18.952612   22.206549 H          1 MOL1         0.0948
      14    C5      20.236204   19.914917   23.813893 C.3        1 MOL1        -0.1435
      15    H10     21.091485   20.506091   24.169736 H          1 MOL1         0.0948
      16    H11     19.351314   20.557395   23.914803 H          1 MOL1         0.0948
      17    C6      20.089093   18.657071   24.707973 C.3        1 MOL1        -0.1500
      18    H12     20.927637   17.977327   24.506301 H          1 MOL1         0.0948
      19    H13     19.172137   18.112721   24.449752 H          1 MOL1         0.0948
      20    C7      20.072379   18.993478   26.214605 C.3        1 MOL1         0.1162
      21    H14     20.984919   19.548857   26.452212 H          1 MOL1         0.0910
      22    C8      20.060584   17.703868   27.050693 C.3        1 MOL1        -0.2491
      23    H15     20.086161   17.935844   28.122575 H          1 MOL1         0.0959
      24    H16     19.160328   17.109267   26.850883 H          1 MOL1         0.0959
      25    H17     20.936874   17.083997   26.823465 H          1 MOL1         0.0959
      26    N1      18.916152   19.878357   26.592549 N.4        1 MOL1        -0.5987
      27    H18     18.935411   20.759910   26.072722 H          1 MOL1         0.3605
      28    H19     18.932629   20.109967   27.589910 H          1 MOL1         0.3605
      29    H20     18.019849   19.424376   26.397589 H          1 MOL1         0.3605
@<TRIPOS>BOND
    1     1     2    1
    2     1     3    1
    3     1     4    1
    4     1     5    1
    5     5     6    1
    6     5     7    1
    7     5     8    1
    8     8     9    1
    9     8    10    1
   10     8    11    1
   11    11    12    1
   12    11    13    1
   13    11    14    1
   14    14    15    1
   15    14    16    1
   16    14    17    1
   17    17    18    1
   18    17    19    1
   19    17    20    1
   20    20    21    1
   21    20    22    1
   22    22    23    1
   23    22    24    1
   24    22    25    1
   25    20    26    1
   26    26    27    1
   27    26    28    1
   28    26    29    1
@<TRIPOS>SUBSTRUCTURE
       1 MOL1            1 RESIDUE      1      MOL     
@<SCITEGIC>MOL_PROPERTY
VM2 Rank
SciTegic.value.IntegerValue
29

@<SCITEGIC>MOL_PROPERTY
Conf_Id
SciTegic.value.IntegerValue
350

@<SCITEGIC>MOL_PROPERTY
Probability
SciTegic.value.DoubleValue
1.23

@<SCITEGIC>MOL_PROPERTY
Sum Probability
SciTegic.value.DoubleValue
74.07

@<SCITEGIC>MOL_PROPERTY
Delta G
SciTegic.value.DoubleValue
1.269

@<SCITEGIC>MOL_PROPERTY
G
SciTegic.value.DoubleValue
34.971

@<SCITEGIC>MOL_PROPERTY
E
SciTegic.value.DoubleValue
-2.590

@<SCITEGIC>MOL_PROPERTY
-TS
SciTegic.value.DoubleValue
37.561

@<SCITEGIC>MOL_PROPERTY
U+W
SciTegic.value.DoubleValue
-26.735

@<SCITEGIC>MOL_PROPERTY
U
SciTegic.value.DoubleValue
25.449

@<SCITEGIC>MOL_PROPERTY
W
SciTegic.value.DoubleValue
-52.184

@<SCITEGIC>MOL_PROPERTY
W(PB)
SciTegic.value.DoubleValue
-54.671

@<SCITEGIC>MOL_PROPERTY
W(SA)
SciTegic.value.DoubleValue
2.488

@<SCITEGIC>MOL_PROPERTY
Valence
SciTegic.value.DoubleValue
4.270

@<SCITEGIC>MOL_PROPERTY
Coulomb
SciTegic.value.DoubleValue
19.867

@<SCITEGIC>MOL_PROPERTY
VdW
SciTegic.value.DoubleValue
1.312

@<SCITEGIC>MOL_PROPERTY
VdW6
SciTegic.value.DoubleValue
-9.219

@<SCITEGIC>MOL_PROPERTY
VdW12
SciTegic.value.DoubleValue
10.531

@<SCITEGIC>MOL_PROPERTY
Bond
SciTegic.value.DoubleValue
0.272

@<SCITEGIC>MOL_PROPERTY
Angle
SciTegic.value.DoubleValue
1.393

@<SCITEGIC>MOL_PROPERTY
Pdih
SciTegic.value.DoubleValue
2.605

@<SCITEGIC>MOL_PROPERTY
Idih
SciTegic.value.DoubleValue
0.000

@<SCITEGIC>MOL_PROPERTY
Tether
SciTegic.value.DoubleValue
0.000

@<TRIPOS>MOLECULE
guest-s15_vm2.mol2 : vm2 ligand conformer 30
          29          28           1
SMALL
USER_CHARGES
 
@<TRIPOS>ATOM
       1    C1      18.991577   18.554028   19.572509 C.3        1 MOL1        -0.2426
       2    H1      19.019997   17.510599   19.912312 H          1 MOL1         0.0959
       3    H2      18.078167   19.018695   19.964128 H          1 MOL1         0.0959
       4    H3      18.916113   18.548792   18.477433 H          1 MOL1         0.0959
       5    C2      20.255671   19.319916   20.024021 C.3        1 MOL1        -0.1410
       6    H4      20.191250   20.366255   19.694264 H          1 MOL1         0.0948
       7    H5      21.130762   18.890842   19.516224 H          1 MOL1         0.0948
       8    C3      20.491626   19.266005   21.552594 C.3        1 MOL1        -0.1435
       9    H6      20.585179   18.217145   21.862853 H          1 MOL1         0.0948
      10    H7      21.455631   19.744190   21.774183 H          1 MOL1         0.0948
      11    C4      19.377391   19.967674   22.369731 C.3        1 MOL1        -0.1435
      12    H8      18.429896   19.423876   22.259179 H          1 MOL1         0.0948
      13    H9      19.209123   20.971016   21.954861 H          1 MOL1         0.0948
      14    C5      19.710078   20.109727   23.875440 C.3        1 MOL1        -0.1435
      15    H10     20.650892   20.665123   23.993086 H          1 MOL1         0.0948
      16    H11     18.927877   20.724956   24.339053 H          1 MOL1         0.0948
      17    C6      19.809122   18.751376   24.616374 C.3        1 MOL1        -0.1500
      18    H12     20.606346   18.148902   24.163739 H          1 MOL1         0.0948
      19    H13     18.875790   18.187817   24.485737 H          1 MOL1         0.0948
      20    C7      20.114270   18.907963   26.122049 C.3        1 MOL1         0.1162
      21    H14     21.027525   19.501760   26.227003 H          1 MOL1         0.0910
      22    C8      20.356614   17.532474   26.763851 C.3        1 MOL1        -0.2491
      23    H15     19.466641   16.895491   26.685389 H          1 MOL1         0.0959
      24    H16     21.191269   17.015192   26.274438 H          1 MOL1         0.0959
      25    H17     20.608516   17.638622   27.826248 H          1 MOL1         0.0959
      26    N1      19.029651   19.646838   26.857432 N.4        1 MOL1        -0.5987
      27    H18     18.136236   19.150707   26.801011 H          1 MOL1         0.3605
      28    H19     18.887415   20.583959   26.471225 H          1 MOL1         0.3605
      29    H20     19.258026   19.755951   27.849689 H          1 MOL1         0.3605
@<TRIPOS>BOND
    1     1     2    1
    2     1     3    1
    3     1     4    1
    4     1     5    1
    5     5     6    1
    6     5     7    1
    7     5     8    1
    8     8     9    1
    9     8    10    1
   10     8    11    1
   11    11    12    1
   12    11    13    1
   13    11    14    1
   14    14    15    1
   15    14    16    1
   16    14    17    1
   17    17    18    1
   18    17    19    1
   19    17    20    1
   20    20    21    1
   21    20    22    1
   22    22    23    1
   23    22    24    1
   24    22    25    1
   25    20    26    1
   26    26    27    1
   27    26    28    1
   28    26    29    1
@<TRIPOS>SUBSTRUCTURE
       1 MOL1            1 RESIDUE      1      MOL     
@<SCITEGIC>MOL_PROPERTY
VM2 Rank
SciTegic.value.IntegerValue
30

@<SCITEGIC>MOL_PROPERTY
Conf_Id
SciTegic.value.IntegerValue
1508

@<SCITEGIC>MOL_PROPERTY
Probability
SciTegic.value.DoubleValue
1.18

@<SCITEGIC>MOL_PROPERTY
Sum Probability
SciTegic.value.DoubleValue
75.26

@<SCITEGIC>MOL_PROPERTY
Delta G
SciTegic.value.DoubleValue
1.292

@<SCITEGIC>MOL_PROPERTY
G
SciTegic.value.DoubleValue
34.995

@<SCITEGIC>MOL_PROPERTY
E
SciTegic.value.DoubleValue
-2.604

@<SCITEGIC>MOL_PROPERTY
-TS
SciTegic.value.DoubleValue
37.599

@<SCITEGIC>MOL_PROPERTY
U+W
SciTegic.value.DoubleValue
-26.749

@<SCITEGIC>MOL_PROPERTY
U
SciTegic.value.DoubleValue
25.263

@<SCITEGIC>MOL_PROPERTY
W
SciTegic.value.DoubleValue
-52.010

@<SCITEGIC>MOL_PROPERTY
W(PB)
SciTegic.value.DoubleValue
-54.531

@<SCITEGIC>MOL_PROPERTY
W(SA)
SciTegic.value.DoubleValue
2.521

@<SCITEGIC>MOL_PROPERTY
Valence
SciTegic.value.DoubleValue
4.207

@<SCITEGIC>MOL_PROPERTY
Coulomb
SciTegic.value.DoubleValue
19.737

@<SCITEGIC>MOL_PROPERTY
VdW
SciTegic.value.DoubleValue
1.319

@<SCITEGIC>MOL_PROPERTY
VdW6
SciTegic.value.DoubleValue
-9.273

@<SCITEGIC>MOL_PROPERTY
VdW12
SciTegic.value.DoubleValue
10.592

@<SCITEGIC>MOL_PROPERTY
Bond
SciTegic.value.DoubleValue
0.271

@<SCITEGIC>MOL_PROPERTY
Angle
SciTegic.value.DoubleValue
1.357

@<SCITEGIC>MOL_PROPERTY
Pdih
SciTegic.value.DoubleValue
2.580

@<SCITEGIC>MOL_PROPERTY
Idih
SciTegic.value.DoubleValue
0.000

@<SCITEGIC>MOL_PROPERTY
Tether
SciTegic.value.DoubleValue
0.000

@<TRIPOS>MOLECULE
guest-s15_vm2.mol2 : vm2 ligand conformer 31
          29          28           1
SMALL
USER_CHARGES
 
@<TRIPOS>ATOM
       1    C1      20.387123   20.730698   20.274113 C.3        1 MOL1        -0.2426
       2    H1      19.551376   21.422421   20.441636 H          1 MOL1         0.0959
       3    H2      21.085005   20.823436   21.115405 H          1 MOL1         0.0959
       4    H3      20.916495   21.056658   19.369435 H          1 MOL1         0.0959
       5    C2      19.882817   19.278812   20.111608 C.3        1 MOL1        -0.1410
       6    H4      20.738957   18.602875   19.977985 H          1 MOL1         0.0948
       7    H5      19.290721   19.211259   19.188236 H          1 MOL1         0.0948
       8    C3      19.012352   18.793306   21.295685 C.3        1 MOL1        -0.1435
       9    H6      18.147538   19.460812   21.412809 H          1 MOL1         0.0948
      10    H7      18.606911   17.802914   21.046644 H          1 MOL1         0.0948
      11    C4      19.786139   18.701461   22.632517 C.3        1 MOL1        -0.1435
      12    H8      20.141978   19.698867   22.918659 H          1 MOL1         0.0948
      13    H9      20.675387   18.070390   22.497911 H          1 MOL1         0.0948
      14    C5      18.905627   18.118116   23.763604 C.3        1 MOL1        -0.1435
      15    H10     18.024221   18.755433   23.914997 H          1 MOL1         0.0948
      16    H11     18.520629   17.137909   23.450124 H          1 MOL1         0.0948
      17    C6      19.668373   17.939977   25.101426 C.3        1 MOL1        -0.1500
      18    H12     20.484303   17.220860   24.949461 H          1 MOL1         0.0948
      19    H13     18.993970   17.486570   25.839986 H          1 MOL1         0.0948
      20    C7      20.252401   19.248885   25.678761 C.3        1 MOL1         0.1162
      21    H14     20.938451   19.675518   24.941177 H          1 MOL1         0.0910
      22    C8      21.048222   18.959571   26.961206 C.3        1 MOL1        -0.2491
      23    H15     21.860739   18.249309   26.763494 H          1 MOL1         0.0959
      24    H16     21.498463   19.879346   27.354505 H          1 MOL1         0.0959
      25    H17     20.404183   18.533726   27.740812 H          1 MOL1         0.0959
      26    N1      19.192945   20.285175   25.935081 N.4        1 MOL1        -0.5987
      27    H18     18.681319   20.512264   25.077974 H          1 MOL1         0.3605
      28    H19     19.598099   21.155142   26.292289 H          1 MOL1         0.3605
      29    H20     18.511080   19.957942   26.624627 H          1 MOL1         0.3605
@<TRIPOS>BOND
    1     1     2    1
    2     1     3    1
    3     1     4    1
    4     1     5    1
    5     5     6    1
    6     5     7    1
    7     5     8    1
    8     8     9    1
    9     8    10    1
   10     8    11    1
   11    11    12    1
   12    11    13    1
   13    11    14    1
   14    14    15    1
   15    14    16    1
   16    14    17    1
   17    17    18    1
   18    17    19    1
   19    17    20    1
   20    20    21    1
   21    20    22    1
   22    22    23    1
   23    22    24    1
   24    22    25    1
   25    20    26    1
   26    26    27    1
   27    26    28    1
   28    26    29    1
@<TRIPOS>SUBSTRUCTURE
       1 MOL1            1 RESIDUE      1      MOL     
@<SCITEGIC>MOL_PROPERTY
VM2 Rank
SciTegic.value.IntegerValue
31

@<SCITEGIC>MOL_PROPERTY
Conf_Id
SciTegic.value.IntegerValue
605

@<SCITEGIC>MOL_PROPERTY
Probability
SciTegic.value.DoubleValue
1.17

@<SCITEGIC>MOL_PROPERTY
Sum Probability
SciTegic.value.DoubleValue
76.43

@<SCITEGIC>MOL_PROPERTY
Delta G
SciTegic.value.DoubleValue
1.299

@<SCITEGIC>MOL_PROPERTY
G
SciTegic.value.DoubleValue
35.002

@<SCITEGIC>MOL_PROPERTY
E
SciTegic.value.DoubleValue
-2.688

@<SCITEGIC>MOL_PROPERTY
-TS
SciTegic.value.DoubleValue
37.689

@<SCITEGIC>MOL_PROPERTY
U+W
SciTegic.value.DoubleValue
-26.832

@<SCITEGIC>MOL_PROPERTY
U
SciTegic.value.DoubleValue
25.375

@<SCITEGIC>MOL_PROPERTY
W
SciTegic.value.DoubleValue
-52.208

@<SCITEGIC>MOL_PROPERTY
W(PB)
SciTegic.value.DoubleValue
-54.720

@<SCITEGIC>MOL_PROPERTY
W(SA)
SciTegic.value.DoubleValue
2.512

@<SCITEGIC>MOL_PROPERTY
Valence
SciTegic.value.DoubleValue
3.961

@<SCITEGIC>MOL_PROPERTY
Coulomb
SciTegic.value.DoubleValue
20.374

@<SCITEGIC>MOL_PROPERTY
VdW
SciTegic.value.DoubleValue
1.041

@<SCITEGIC>MOL_PROPERTY
VdW6
SciTegic.value.DoubleValue
-9.517

@<SCITEGIC>MOL_PROPERTY
VdW12
SciTegic.value.DoubleValue
10.558

@<SCITEGIC>MOL_PROPERTY
Bond
SciTegic.value.DoubleValue
0.254

@<SCITEGIC>MOL_PROPERTY
Angle
SciTegic.value.DoubleValue
1.329

@<SCITEGIC>MOL_PROPERTY
Pdih
SciTegic.value.DoubleValue
2.378

@<SCITEGIC>MOL_PROPERTY
Idih
SciTegic.value.DoubleValue
0.000

@<SCITEGIC>MOL_PROPERTY
Tether
SciTegic.value.DoubleValue
0.000

@<TRIPOS>MOLECULE
guest-s15_vm2.mol2 : vm2 ligand conformer 32
          29          28           1
SMALL
USER_CHARGES
 
@<TRIPOS>ATOM
       1    C1      21.068045   19.352252   19.751037 C.3        1 MOL1        -0.2426
       2    H1      21.727222   18.530290   20.059385 H          1 MOL1         0.0959
       3    H2      20.490277   19.018770   18.879149 H          1 MOL1         0.0959
       4    H3      21.700933   20.191534   19.434697 H          1 MOL1         0.0959
       5    C2      20.135843   19.777661   20.905061 C.3        1 MOL1        -0.1410
       6    H4      19.510103   20.619492   20.577367 H          1 MOL1         0.0948
       7    H5      20.747696   20.141234   21.741313 H          1 MOL1         0.0948
       8    C3      19.236158   18.609117   21.371380 C.3        1 MOL1        -0.1435
       9    H6      18.690737   18.211641   20.504359 H          1 MOL1         0.0948
      10    H7      19.859757   17.782862   21.737122 H          1 MOL1         0.0948
      11    C4      18.201046   19.014152   22.452800 C.3        1 MOL1        -0.1435
      12    H8      17.593690   18.134274   22.705974 H          1 MOL1         0.0948
      13    H9      17.503941   19.744557   22.019488 H          1 MOL1         0.0948
      14    C5      18.793483   19.607760   23.757374 C.3        1 MOL1        -0.1435
      15    H10     19.304991   20.554760   23.539819 H          1 MOL1         0.0948
      16    H11     17.956637   19.862472   24.420676 H          1 MOL1         0.0948
      17    C6      19.762578   18.645852   24.491555 C.3        1 MOL1        -0.1500
      18    H12     20.610266   18.415771   23.834147 H          1 MOL1         0.0948
      19    H13     19.256027   17.693775   24.698068 H          1 MOL1         0.0948
      20    C7      20.315313   19.236581   25.806772 C.3        1 MOL1         0.1162
      21    H14     20.780902   20.200835   25.580784 H          1 MOL1         0.0910
      22    C8      21.388728   18.309501   26.399067 C.3        1 MOL1        -0.2491
      23    H15     22.213124   18.164119   25.689840 H          1 MOL1         0.0959
      24    H16     21.810812   18.739898   27.315586 H          1 MOL1         0.0959
      25    H17     20.971315   17.324840   26.644341 H          1 MOL1         0.0959
      26    N1      19.234807   19.503124   26.818953 N.4        1 MOL1        -0.5987
      27    H18     18.747547   18.641645   27.079621 H          1 MOL1         0.3605
      28    H19     18.535000   20.155870   26.455990 H          1 MOL1         0.3605
      29    H20     19.618042   19.910565   27.676705 H          1 MOL1         0.3605
@<TRIPOS>BOND
    1     1     2    1
    2     1     3    1
    3     1     4    1
    4     1     5    1
    5     5     6    1
    6     5     7    1
    7     5     8    1
    8     8     9    1
    9     8    10    1
   10     8    11    1
   11    11    12    1
   12    11    13    1
   13    11    14    1
   14    14    15    1
   15    14    16    1
   16    14    17    1
   17    17    18    1
   18    17    19    1
   19    17    20    1
   20    20    21    1
   21    20    22    1
   22    22    23    1
   23    22    24    1
   24    22    25    1
   25    20    26    1
   26    26    27    1
   27    26    28    1
   28    26    29    1
@<TRIPOS>SUBSTRUCTURE
       1 MOL1            1 RESIDUE      1      MOL     
@<SCITEGIC>MOL_PROPERTY
VM2 Rank
SciTegic.value.IntegerValue
32

@<SCITEGIC>MOL_PROPERTY
Conf_Id
SciTegic.value.IntegerValue
916

@<SCITEGIC>MOL_PROPERTY
Probability
SciTegic.value.DoubleValue
1.16

@<SCITEGIC>MOL_PROPERTY
Sum Probability
SciTegic.value.DoubleValue
77.58

@<SCITEGIC>MOL_PROPERTY
Delta G
SciTegic.value.DoubleValue
1.308

@<SCITEGIC>MOL_PROPERTY
G
SciTegic.value.DoubleValue
35.010

@<SCITEGIC>MOL_PROPERTY
E
SciTegic.value.DoubleValue
-2.818

@<SCITEGIC>MOL_PROPERTY
-TS
SciTegic.value.DoubleValue
37.828

@<SCITEGIC>MOL_PROPERTY
U+W
SciTegic.value.DoubleValue
-26.963

@<SCITEGIC>MOL_PROPERTY
U
SciTegic.value.DoubleValue
25.306

@<SCITEGIC>MOL_PROPERTY
W
SciTegic.value.DoubleValue
-52.268

@<SCITEGIC>MOL_PROPERTY
W(PB)
SciTegic.value.DoubleValue
-54.760

@<SCITEGIC>MOL_PROPERTY
W(SA)
SciTegic.value.DoubleValue
2.492

@<SCITEGIC>MOL_PROPERTY
Valence
SciTegic.value.DoubleValue
4.184

@<SCITEGIC>MOL_PROPERTY
Coulomb
SciTegic.value.DoubleValue
19.997

@<SCITEGIC>MOL_PROPERTY
VdW
SciTegic.value.DoubleValue
1.124

@<SCITEGIC>MOL_PROPERTY
VdW6
SciTegic.value.DoubleValue
-9.687

@<SCITEGIC>MOL_PROPERTY
VdW12
SciTegic.value.DoubleValue
10.811

@<SCITEGIC>MOL_PROPERTY
Bond
SciTegic.value.DoubleValue
0.280

@<SCITEGIC>MOL_PROPERTY
Angle
SciTegic.value.DoubleValue
1.609

@<SCITEGIC>MOL_PROPERTY
Pdih
SciTegic.value.DoubleValue
2.295

@<SCITEGIC>MOL_PROPERTY
Idih
SciTegic.value.DoubleValue
0.000

@<SCITEGIC>MOL_PROPERTY
Tether
SciTegic.value.DoubleValue
0.000

@<TRIPOS>MOLECULE
guest-s15_vm2.mol2 : vm2 ligand conformer 33
          29          28           1
SMALL
USER_CHARGES
 
@<TRIPOS>ATOM
       1    C1      19.554154   19.811681   19.226685 C.3        1 MOL1        -0.2426
       2    H1      18.598780   20.227386   19.569646 H          1 MOL1         0.0959
       3    H2      20.306442   20.610731   19.251209 H          1 MOL1         0.0959
       4    H3      19.423289   19.506130   18.180527 H          1 MOL1         0.0959
       5    C2      19.994026   18.607462   20.090022 C.3        1 MOL1        -0.1410
       6    H4      20.881214   18.150101   19.630124 H          1 MOL1         0.0948
       7    H5      19.210270   17.837199   20.078027 H          1 MOL1         0.0948
       8    C3      20.334184   18.985994   21.551960 C.3        1 MOL1        -0.1435
       9    H6      20.764620   18.101367   22.037862 H          1 MOL1         0.0948
      10    H7      21.117805   19.755992   21.558082 H          1 MOL1         0.0948
      11    C4      19.108330   19.479862   22.362028 C.3        1 MOL1        -0.1435
      12    H8      18.326632   18.707882   22.360909 H          1 MOL1         0.0948
      13    H9      18.675416   20.358075   21.866129 H          1 MOL1         0.0948
      14    C5      19.445469   19.875581   23.821044 C.3        1 MOL1        -0.1435
      15    H10     20.241154   20.633433   23.821611 H          1 MOL1         0.0948
      16    H11     18.559120   20.358236   24.253124 H          1 MOL1         0.0948
      17    C6      19.864199   18.675882   24.709867 C.3        1 MOL1        -0.1500
      18    H12     20.766101   18.211461   24.293072 H          1 MOL1         0.0948
      19    H13     19.078579   17.908888   24.693301 H          1 MOL1         0.0948
      20    C7      20.160132   19.083286   26.169800 C.3        1 MOL1         0.1162
      21    H14     20.917505   19.873165   26.158691 H          1 MOL1         0.0910
      22    C8      20.721972   17.887146   26.954824 C.3        1 MOL1        -0.2491
      23    H15     21.640816   17.510935   26.487974 H          1 MOL1         0.0959
      24    H16     20.967209   18.178498   27.983603 H          1 MOL1         0.0959
      25    H17     19.997748   17.063881   26.995952 H          1 MOL1         0.0959
      26    N1      18.953533   19.649105   26.867771 N.4        1 MOL1        -0.5987
      27    H18     18.194470   18.964146   26.914504 H          1 MOL1         0.3605
      28    H19     18.594164   20.475689   26.382812 H          1 MOL1         0.3605
      29    H20     19.173890   19.929011   27.827842 H          1 MOL1         0.3605
@<TRIPOS>BOND
    1     1     2    1
    2     1     3    1
    3     1     4    1
    4     1     5    1
    5     5     6    1
    6     5     7    1
    7     5     8    1
    8     8     9    1
    9     8    10    1
   10     8    11    1
   11    11    12    1
   12    11    13    1
   13    11    14    1
   14    14    15    1
   15    14    16    1
   16    14    17    1
   17    17    18    1
   18    17    19    1
   19    17    20    1
   20    20    21    1
   21    20    22    1
   22    22    23    1
   23    22    24    1
   24    22    25    1
   25    20    26    1
   26    26    27    1
   27    26    28    1
   28    26    29    1
@<TRIPOS>SUBSTRUCTURE
       1 MOL1            1 RESIDUE      1      MOL     
@<SCITEGIC>MOL_PROPERTY
VM2 Rank
SciTegic.value.IntegerValue
33

@<SCITEGIC>MOL_PROPERTY
Conf_Id
SciTegic.value.IntegerValue
923

@<SCITEGIC>MOL_PROPERTY
Probability
SciTegic.value.DoubleValue
1.11

@<SCITEGIC>MOL_PROPERTY
Sum Probability
SciTegic.value.DoubleValue
78.69

@<SCITEGIC>MOL_PROPERTY
Delta G
SciTegic.value.DoubleValue
1.332

@<SCITEGIC>MOL_PROPERTY
G
SciTegic.value.DoubleValue
35.034

@<SCITEGIC>MOL_PROPERTY
E
SciTegic.value.DoubleValue
-2.460

@<SCITEGIC>MOL_PROPERTY
-TS
SciTegic.value.DoubleValue
37.494

@<SCITEGIC>MOL_PROPERTY
U+W
SciTegic.value.DoubleValue
-26.605

@<SCITEGIC>MOL_PROPERTY
U
SciTegic.value.DoubleValue
25.451

@<SCITEGIC>MOL_PROPERTY
W
SciTegic.value.DoubleValue
-52.055

@<SCITEGIC>MOL_PROPERTY
W(PB)
SciTegic.value.DoubleValue
-54.547

@<SCITEGIC>MOL_PROPERTY
W(SA)
SciTegic.value.DoubleValue
2.492

@<SCITEGIC>MOL_PROPERTY
Valence
SciTegic.value.DoubleValue
4.319

@<SCITEGIC>MOL_PROPERTY
Coulomb
SciTegic.value.DoubleValue
19.732

@<SCITEGIC>MOL_PROPERTY
VdW
SciTegic.value.DoubleValue
1.400

@<SCITEGIC>MOL_PROPERTY
VdW6
SciTegic.value.DoubleValue
-9.173

@<SCITEGIC>MOL_PROPERTY
VdW12
SciTegic.value.DoubleValue
10.573

@<SCITEGIC>MOL_PROPERTY
Bond
SciTegic.value.DoubleValue
0.280

@<SCITEGIC>MOL_PROPERTY
Angle
SciTegic.value.DoubleValue
1.458

@<SCITEGIC>MOL_PROPERTY
Pdih
SciTegic.value.DoubleValue
2.580

@<SCITEGIC>MOL_PROPERTY
Idih
SciTegic.value.DoubleValue
0.000

@<SCITEGIC>MOL_PROPERTY
Tether
SciTegic.value.DoubleValue
0.000

@<TRIPOS>MOLECULE
guest-s15_vm2.mol2 : vm2 ligand conformer 34
          29          28           1
SMALL
USER_CHARGES
 
@<TRIPOS>ATOM
       1    C1      20.267577   20.744996   20.263431 C.3        1 MOL1        -0.2426
       2    H1      19.926410   21.286504   21.154377 H          1 MOL1         0.0959
       3    H2      21.356418   20.622639   20.330335 H          1 MOL1         0.0959
       4    H3      20.053686   21.376908   19.391728 H          1 MOL1         0.0959
       5    C2      19.562080   19.376823   20.125283 C.3        1 MOL1        -0.1410
       6    H4      19.840772   18.930943   19.160256 H          1 MOL1         0.0948
       7    H5      18.473465   19.523802   20.093127 H          1 MOL1         0.0948
       8    C3      19.922785   18.381463   21.254266 C.3        1 MOL1        -0.1435
       9    H6      19.471687   17.407944   21.017550 H          1 MOL1         0.0948
      10    H7      21.009914   18.222935   21.269855 H          1 MOL1         0.0948
      11    C4      19.441531   18.835242   22.653098 C.3        1 MOL1        -0.1435
      12    H8      18.362038   19.037201   22.621477 H          1 MOL1         0.0948
      13    H9      19.936414   19.776507   22.922655 H          1 MOL1         0.0948
      14    C5      19.736270   17.767137   23.733340 C.3        1 MOL1        -0.1435
      15    H10     19.277821   16.815012   23.432513 H          1 MOL1         0.0948
      16    H11     20.816708   17.578133   23.784908 H          1 MOL1         0.0948
      17    C6      19.194879   18.149681   25.135107 C.3        1 MOL1        -0.1500
      18    H12     19.427986   17.341094   25.840523 H          1 MOL1         0.0948
      19    H13     18.099364   18.200007   25.081200 H          1 MOL1         0.0948
      20    C7      19.724613   19.488567   25.700823 C.3        1 MOL1         0.1162
      21    H14     19.477425   20.284900   24.992676 H          1 MOL1         0.0910
      22    C8      21.250631   19.469692   25.899336 C.3        1 MOL1        -0.2491
      23    H15     21.554439   18.648848   26.560814 H          1 MOL1         0.0959
      24    H16     21.774475   19.352987   24.943439 H          1 MOL1         0.0959
      25    H17     21.594208   20.411263   26.345063 H          1 MOL1         0.0959
      26    N1      19.035634   19.842400   26.989315 N.4        1 MOL1        -0.5987
      27    H18     18.020214   19.902181   26.870049 H          1 MOL1         0.3605
      28    H19     19.354154   20.747270   27.347703 H          1 MOL1         0.3605
      29    H20     19.219489   19.144680   27.715356 H          1 MOL1         0.3605
@<TRIPOS>BOND
    1     1     2    1
    2     1     3    1
    3     1     4    1
    4     1     5    1
    5     5     6    1
    6     5     7    1
    7     5     8    1
    8     8     9    1
    9     8    10    1
   10     8    11    1
   11    11    12    1
   12    11    13    1
   13    11    14    1
   14    14    15    1
   15    14    16    1
   16    14    17    1
   17    17    18    1
   18    17    19    1
   19    17    20    1
   20    20    21    1
   21    20    22    1
   22    22    23    1
   23    22    24    1
   24    22    25    1
   25    20    26    1
   26    26    27    1
   27    26    28    1
   28    26    29    1
@<TRIPOS>SUBSTRUCTURE
       1 MOL1            1 RESIDUE      1      MOL     
@<SCITEGIC>MOL_PROPERTY
VM2 Rank
SciTegic.value.IntegerValue
34

@<SCITEGIC>MOL_PROPERTY
Conf_Id
SciTegic.value.IntegerValue
1260

@<SCITEGIC>MOL_PROPERTY
Probability
SciTegic.value.DoubleValue
0.94

@<SCITEGIC>MOL_PROPERTY
Sum Probability
SciTegic.value.DoubleValue
79.64

@<SCITEGIC>MOL_PROPERTY
Delta G
SciTegic.value.DoubleValue
1.429

@<SCITEGIC>MOL_PROPERTY
G
SciTegic.value.DoubleValue
35.131

@<SCITEGIC>MOL_PROPERTY
E
SciTegic.value.DoubleValue
-2.658

@<SCITEGIC>MOL_PROPERTY
-TS
SciTegic.value.DoubleValue
37.790

@<SCITEGIC>MOL_PROPERTY
U+W
SciTegic.value.DoubleValue
-26.803

@<SCITEGIC>MOL_PROPERTY
U
SciTegic.value.DoubleValue
25.521

@<SCITEGIC>MOL_PROPERTY
W
SciTegic.value.DoubleValue
-52.323

@<SCITEGIC>MOL_PROPERTY
W(PB)
SciTegic.value.DoubleValue
-54.806

@<SCITEGIC>MOL_PROPERTY
W(SA)
SciTegic.value.DoubleValue
2.483

@<SCITEGIC>MOL_PROPERTY
Valence
SciTegic.value.DoubleValue
4.455

@<SCITEGIC>MOL_PROPERTY
Coulomb
SciTegic.value.DoubleValue
19.959

@<SCITEGIC>MOL_PROPERTY
VdW
SciTegic.value.DoubleValue
1.107

@<SCITEGIC>MOL_PROPERTY
VdW6
SciTegic.value.DoubleValue
-9.753

@<SCITEGIC>MOL_PROPERTY
VdW12
SciTegic.value.DoubleValue
10.859

@<SCITEGIC>MOL_PROPERTY
Bond
SciTegic.value.DoubleValue
0.265

@<SCITEGIC>MOL_PROPERTY
Angle
SciTegic.value.DoubleValue
1.659

@<SCITEGIC>MOL_PROPERTY
Pdih
SciTegic.value.DoubleValue
2.531

@<SCITEGIC>MOL_PROPERTY
Idih
SciTegic.value.DoubleValue
0.000

@<SCITEGIC>MOL_PROPERTY
Tether
SciTegic.value.DoubleValue
0.000

@<TRIPOS>MOLECULE
guest-s15_vm2.mol2 : vm2 ligand conformer 35
          29          28           1
SMALL
USER_CHARGES
 
@<TRIPOS>ATOM
       1    C1      19.378380   19.673137   19.051495 C.3        1 MOL1        -0.2426
       2    H1      18.539824   20.377385   19.129652 H          1 MOL1         0.0959
       3    H2      20.259700   20.227848   18.703930 H          1 MOL1         0.0959
       4    H3      19.124233   18.929990   18.284563 H          1 MOL1         0.0959
       5    C2      19.653137   18.986159   20.405982 C.3        1 MOL1        -0.1410
       6    H4      20.476517   18.267748   20.289378 H          1 MOL1         0.0948
       7    H5      18.765674   18.409649   20.698283 H          1 MOL1         0.0948
       8    C3      20.009258   20.015408   21.504665 C.3        1 MOL1        -0.1435
       9    H6      20.845393   20.635462   21.152869 H          1 MOL1         0.0948
      10    H7      19.163416   20.699145   21.660279 H          1 MOL1         0.0948
      11    C4      20.412375   19.371350   22.853952 C.3        1 MOL1        -0.1435
      12    H8      20.777008   20.169166   23.513975 H          1 MOL1         0.0948
      13    H9      21.259656   18.689790   22.696476 H          1 MOL1         0.0948
      14    C5      19.252763   18.612416   23.547986 C.3        1 MOL1        -0.1435
      15    H10     18.393418   19.283525   23.677687 H          1 MOL1         0.0948
      16    H11     18.906952   17.797634   22.899049 H          1 MOL1         0.0948
      17    C6      19.656423   17.996374   24.912389 C.3        1 MOL1        -0.1500
      18    H12     20.456898   17.263302   24.745628 H          1 MOL1         0.0948
      19    H13     18.804358   17.432817   25.315232 H          1 MOL1         0.0948
      20    C7      20.128051   19.026309   25.963454 C.3        1 MOL1         0.1162
      21    H14     20.992864   19.560831   25.559839 H          1 MOL1         0.0910
      22    C8      20.566236   18.312657   27.252049 C.3        1 MOL1        -0.2491
      23    H15     21.373984   17.599130   27.046697 H          1 MOL1         0.0959
      24    H16     20.939519   19.035199   27.988242 H          1 MOL1         0.0959
      25    H17     19.731709   17.763023   27.705242 H          1 MOL1         0.0959
      26    N1      19.079378   20.062190   26.262029 N.4        1 MOL1        -0.5987
      27    H18     18.234326   19.635442   26.650927 H          1 MOL1         0.3605
      28    H19     18.807980   20.569719   25.415447 H          1 MOL1         0.3605
      29    H20     19.415826   20.751579   26.940358 H          1 MOL1         0.3605
@<TRIPOS>BOND
    1     1     2    1
    2     1     3    1
    3     1     4    1
    4     1     5    1
    5     5     6    1
    6     5     7    1
    7     5     8    1
    8     8     9    1
    9     8    10    1
   10     8    11    1
   11    11    12    1
   12    11    13    1
   13    11    14    1
   14    14    15    1
   15    14    16    1
   16    14    17    1
   17    17    18    1
   18    17    19    1
   19    17    20    1
   20    20    21    1
   21    20    22    1
   22    22    23    1
   23    22    24    1
   24    22    25    1
   25    20    26    1
   26    26    27    1
   27    26    28    1
   28    26    29    1
@<TRIPOS>SUBSTRUCTURE
       1 MOL1            1 RESIDUE      1      MOL     
@<SCITEGIC>MOL_PROPERTY
VM2 Rank
SciTegic.value.IntegerValue
35

@<SCITEGIC>MOL_PROPERTY
Conf_Id
SciTegic.value.IntegerValue
851

@<SCITEGIC>MOL_PROPERTY
Probability
SciTegic.value.DoubleValue
0.93

@<SCITEGIC>MOL_PROPERTY
Sum Probability
SciTegic.value.DoubleValue
80.57

@<SCITEGIC>MOL_PROPERTY
Delta G
SciTegic.value.DoubleValue
1.434

@<SCITEGIC>MOL_PROPERTY
G
SciTegic.value.DoubleValue
35.137

@<SCITEGIC>MOL_PROPERTY
E
SciTegic.value.DoubleValue
-2.510

@<SCITEGIC>MOL_PROPERTY
-TS
SciTegic.value.DoubleValue
37.647

@<SCITEGIC>MOL_PROPERTY
U+W
SciTegic.value.DoubleValue
-26.655

@<SCITEGIC>MOL_PROPERTY
U
SciTegic.value.DoubleValue
25.432

@<SCITEGIC>MOL_PROPERTY
W
SciTegic.value.DoubleValue
-52.087

@<SCITEGIC>MOL_PROPERTY
W(PB)
SciTegic.value.DoubleValue
-54.610

@<SCITEGIC>MOL_PROPERTY
W(SA)
SciTegic.value.DoubleValue
2.523

@<SCITEGIC>MOL_PROPERTY
Valence
SciTegic.value.DoubleValue
4.057

@<SCITEGIC>MOL_PROPERTY
Coulomb
SciTegic.value.DoubleValue
20.266

@<SCITEGIC>MOL_PROPERTY
VdW
SciTegic.value.DoubleValue
1.109

@<SCITEGIC>MOL_PROPERTY
VdW6
SciTegic.value.DoubleValue
-9.451

@<SCITEGIC>MOL_PROPERTY
VdW12
SciTegic.value.DoubleValue
10.559

@<SCITEGIC>MOL_PROPERTY
Bond
SciTegic.value.DoubleValue
0.265

@<SCITEGIC>MOL_PROPERTY
Angle
SciTegic.value.DoubleValue
1.407

@<SCITEGIC>MOL_PROPERTY
Pdih
SciTegic.value.DoubleValue
2.385

@<SCITEGIC>MOL_PROPERTY
Idih
SciTegic.value.DoubleValue
0.000

@<SCITEGIC>MOL_PROPERTY
Tether
SciTegic.value.DoubleValue
0.000

@<TRIPOS>MOLECULE
guest-s15_vm2.mol2 : vm2 ligand conformer 36
          29          28           1
SMALL
USER_CHARGES
 
@<TRIPOS>ATOM
       1    C1      19.156630   20.099630   19.340473 C.3        1 MOL1        -0.2426
       2    H1      20.069568   20.558262   18.938689 H          1 MOL1         0.0959
       3    H2      19.009119   19.134582   18.838303 H          1 MOL1         0.0959
       4    H3      18.310652   20.748517   19.079131 H          1 MOL1         0.0959
       5    C2      19.252763   19.919264   20.870221 C.3        1 MOL1        -0.1410
       6    H4      18.308463   19.497150   21.238669 H          1 MOL1         0.0948
       7    H5      19.370410   20.902907   21.345819 H          1 MOL1         0.0948
       8    C3      20.436593   19.004037   21.262458 C.3        1 MOL1        -0.1435
       9    H6      20.292824   18.005280   20.827670 H          1 MOL1         0.0948
      10    H7      21.358772   19.403422   20.818167 H          1 MOL1         0.0948
      11    C4      20.642688   18.880237   22.791833 C.3        1 MOL1        -0.1435
      12    H8      20.806030   19.880174   23.215247 H          1 MOL1         0.0948
      13    H9      21.566020   18.312875   22.973075 H          1 MOL1         0.0948
      14    C5      19.468131   18.175638   23.516597 C.3        1 MOL1        -0.1435
      15    H10     18.552440   18.773362   23.426740 H          1 MOL1         0.0948
      16    H11     19.258871   17.219889   23.016696 H          1 MOL1         0.0948
      17    C6      19.759971   17.894315   25.012748 C.3        1 MOL1        -0.1500
      18    H12     20.611611   17.204580   25.082999 H          1 MOL1         0.0948
      19    H13     18.902363   17.367849   25.452304 H          1 MOL1         0.0948
      20    C7      20.066413   19.158737   25.846266 C.3        1 MOL1         0.1162
      21    H14     20.933873   19.659628   25.406446 H          1 MOL1         0.0910
      22    C8      20.417396   18.774280   27.292186 C.3        1 MOL1        -0.2491
      23    H15     20.674272   19.664687   27.879192 H          1 MOL1         0.0959
      24    H16     19.575965   18.271048   27.784798 H          1 MOL1         0.0959
      25    H17     21.281485   18.098641   27.316762 H          1 MOL1         0.0959
      26    N1      18.935416   20.149861   25.821217 N.4        1 MOL1        -0.5987
      27    H18     18.083069   19.752395   26.225002 H          1 MOL1         0.3605
      28    H19     18.718184   20.440272   24.863979 H          1 MOL1         0.3605
      29    H20     19.164266   20.993093   26.355280 H          1 MOL1         0.3605
@<TRIPOS>BOND
    1     1     2    1
    2     1     3    1
    3     1     4    1
    4     1     5    1
    5     5     6    1
    6     5     7    1
    7     5     8    1
    8     8     9    1
    9     8    10    1
   10     8    11    1
   11    11    12    1
   12    11    13    1
   13    11    14    1
   14    14    15    1
   15    14    16    1
   16    14    17    1
   17    17    18    1
   18    17    19    1
   19    17    20    1
   20    20    21    1
   21    20    22    1
   22    22    23    1
   23    22    24    1
   24    22    25    1
   25    20    26    1
   26    26    27    1
   27    26    28    1
   28    26    29    1
@<TRIPOS>SUBSTRUCTURE
       1 MOL1            1 RESIDUE      1      MOL     
@<SCITEGIC>MOL_PROPERTY
VM2 Rank
SciTegic.value.IntegerValue
36

@<SCITEGIC>MOL_PROPERTY
Conf_Id
SciTegic.value.IntegerValue
1187

@<SCITEGIC>MOL_PROPERTY
Probability
SciTegic.value.DoubleValue
0.90

@<SCITEGIC>MOL_PROPERTY
Sum Probability
SciTegic.value.DoubleValue
81.47

@<SCITEGIC>MOL_PROPERTY
Delta G
SciTegic.value.DoubleValue
1.454

@<SCITEGIC>MOL_PROPERTY
G
SciTegic.value.DoubleValue
35.156

@<SCITEGIC>MOL_PROPERTY
E
SciTegic.value.DoubleValue
-2.537

@<SCITEGIC>MOL_PROPERTY
-TS
SciTegic.value.DoubleValue
37.693

@<SCITEGIC>MOL_PROPERTY
U+W
SciTegic.value.DoubleValue
-26.682

@<SCITEGIC>MOL_PROPERTY
U
SciTegic.value.DoubleValue
25.640

@<SCITEGIC>MOL_PROPERTY
W
SciTegic.value.DoubleValue
-52.321

@<SCITEGIC>MOL_PROPERTY
W(PB)
SciTegic.value.DoubleValue
-54.810

@<SCITEGIC>MOL_PROPERTY
W(SA)
SciTegic.value.DoubleValue
2.488

@<SCITEGIC>MOL_PROPERTY
Valence
SciTegic.value.DoubleValue
3.985

@<SCITEGIC>MOL_PROPERTY
Coulomb
SciTegic.value.DoubleValue
20.665

@<SCITEGIC>MOL_PROPERTY
VdW
SciTegic.value.DoubleValue
0.990

@<SCITEGIC>MOL_PROPERTY
VdW6
SciTegic.value.DoubleValue
-9.569

@<SCITEGIC>MOL_PROPERTY
VdW12
SciTegic.value.DoubleValue
10.559

@<SCITEGIC>MOL_PROPERTY
Bond
SciTegic.value.DoubleValue
0.256

@<SCITEGIC>MOL_PROPERTY
Angle
SciTegic.value.DoubleValue
1.314

@<SCITEGIC>MOL_PROPERTY
Pdih
SciTegic.value.DoubleValue
2.414

@<SCITEGIC>MOL_PROPERTY
Idih
SciTegic.value.DoubleValue
0.000

@<SCITEGIC>MOL_PROPERTY
Tether
SciTegic.value.DoubleValue
0.000

@<TRIPOS>MOLECULE
guest-s15_vm2.mol2 : vm2 ligand conformer 37
          29          28           1
SMALL
USER_CHARGES
 
@<TRIPOS>ATOM
       1    C1      20.460727   19.108191   19.223602 C.3        1 MOL1        -0.2426
       2    H1      21.301447   18.526082   18.824388 H          1 MOL1         0.0959
       3    H2      19.535987   18.706559   18.789095 H          1 MOL1         0.0959
       4    H3      20.576832   20.145123   18.882257 H          1 MOL1         0.0959
       5    C2      20.427807   19.031316   20.764669 C.3        1 MOL1        -0.1410
       6    H4      21.376185   19.412237   21.168570 H          1 MOL1         0.0948
       7    H5      20.352354   17.978438   21.066986 H          1 MOL1         0.0948
       8    C3      19.247390   19.841542   21.350449 C.3        1 MOL1        -0.1435
       9    H6      19.299052   20.871772   20.971952 H          1 MOL1         0.0948
      10    H7      18.296801   19.427239   20.987207 H          1 MOL1         0.0948
      11    C4      19.237013   19.887466   22.897883 C.3        1 MOL1        -0.1435
      12    H8      18.442393   20.574344   23.220423 H          1 MOL1         0.0948
      13    H9      20.182726   20.319531   23.251385 H          1 MOL1         0.0948
      14    C5      19.003882   18.503098   23.553787 C.3        1 MOL1        -0.1435
      15    H10     18.105796   18.044915   23.117247 H          1 MOL1         0.0948
      16    H11     19.834256   17.825711   23.318851 H          1 MOL1         0.0948
      17    C6      18.816867   18.583650   25.090754 C.3        1 MOL1        -0.1500
      18    H12     18.647333   17.572421   25.483740 H          1 MOL1         0.0948
      19    H13     17.898953   19.148945   25.299233 H          1 MOL1         0.0948
      20    C7      19.988345   19.240446   25.858442 C.3        1 MOL1         0.1162
      21    H14     20.140870   20.247664   25.459624 H          1 MOL1         0.0910
      22    C8      21.299567   18.450313   25.700029 C.3        1 MOL1        -0.2491
      23    H15     21.632879   18.438142   24.655744 H          1 MOL1         0.0959
      24    H16     22.101341   18.909316   26.291424 H          1 MOL1         0.0959
      25    H17     21.180297   17.412565   26.035417 H          1 MOL1         0.0959
      26    N1      19.654402   19.409976   27.314386 N.4        1 MOL1        -0.5987
      27    H18     20.410833   19.880558   27.819408 H          1 MOL1         0.3605
      28    H19     19.498978   18.506607   27.769913 H          1 MOL1         0.3605
      29    H20     18.806808   19.969978   27.444215 H          1 MOL1         0.3605
@<TRIPOS>BOND
    1     1     2    1
    2     1     3    1
    3     1     4    1
    4     1     5    1
    5     5     6    1
    6     5     7    1
    7     5     8    1
    8     8     9    1
    9     8    10    1
   10     8    11    1
   11    11    12    1
   12    11    13    1
   13    11    14    1
   14    14    15    1
   15    14    16    1
   16    14    17    1
   17    17    18    1
   18    17    19    1
   19    17    20    1
   20    20    21    1
   21    20    22    1
   22    22    23    1
   23    22    24    1
   24    22    25    1
   25    20    26    1
   26    26    27    1
   27    26    28    1
   28    26    29    1
@<TRIPOS>SUBSTRUCTURE
       1 MOL1            1 RESIDUE      1      MOL     
@<SCITEGIC>MOL_PROPERTY
VM2 Rank
SciTegic.value.IntegerValue
37

@<SCITEGIC>MOL_PROPERTY
Conf_Id
SciTegic.value.IntegerValue
676

@<SCITEGIC>MOL_PROPERTY
Probability
SciTegic.value.DoubleValue
0.90

@<SCITEGIC>MOL_PROPERTY
Sum Probability
SciTegic.value.DoubleValue
82.37

@<SCITEGIC>MOL_PROPERTY
Delta G
SciTegic.value.DoubleValue
1.459

@<SCITEGIC>MOL_PROPERTY
G
SciTegic.value.DoubleValue
35.161

@<SCITEGIC>MOL_PROPERTY
E
SciTegic.value.DoubleValue
-2.627

@<SCITEGIC>MOL_PROPERTY
-TS
SciTegic.value.DoubleValue
37.789

@<SCITEGIC>MOL_PROPERTY
U+W
SciTegic.value.DoubleValue
-26.772

@<SCITEGIC>MOL_PROPERTY
U
SciTegic.value.DoubleValue
25.505

@<SCITEGIC>MOL_PROPERTY
W
SciTegic.value.DoubleValue
-52.277

@<SCITEGIC>MOL_PROPERTY
W(PB)
SciTegic.value.DoubleValue
-54.758

@<SCITEGIC>MOL_PROPERTY
W(SA)
SciTegic.value.DoubleValue
2.481

@<SCITEGIC>MOL_PROPERTY
Valence
SciTegic.value.DoubleValue
4.471

@<SCITEGIC>MOL_PROPERTY
Coulomb
SciTegic.value.DoubleValue
19.979

@<SCITEGIC>MOL_PROPERTY
VdW
SciTegic.value.DoubleValue
1.055

@<SCITEGIC>MOL_PROPERTY
VdW6
SciTegic.value.DoubleValue
-9.825

@<SCITEGIC>MOL_PROPERTY
VdW12
SciTegic.value.DoubleValue
10.880

@<SCITEGIC>MOL_PROPERTY
Bond
SciTegic.value.DoubleValue
0.268

@<SCITEGIC>MOL_PROPERTY
Angle
SciTegic.value.DoubleValue
1.632

@<SCITEGIC>MOL_PROPERTY
Pdih
SciTegic.value.DoubleValue
2.571

@<SCITEGIC>MOL_PROPERTY
Idih
SciTegic.value.DoubleValue
0.000

@<SCITEGIC>MOL_PROPERTY
Tether
SciTegic.value.DoubleValue
0.000

@<TRIPOS>MOLECULE
guest-s15_vm2.mol2 : vm2 ligand conformer 38
          29          28           1
SMALL
USER_CHARGES
 
@<TRIPOS>ATOM
       1    C1      19.418112   20.442566   19.856724 C.3        1 MOL1        -0.2426
       2    H1      19.772806   21.098250   19.050998 H          1 MOL1         0.0959
       3    H2      18.522689   19.920498   19.495214 H          1 MOL1         0.0959
       4    H3      19.127046   21.082818   20.698645 H          1 MOL1         0.0959
       5    C2      20.521014   19.438578   20.261791 C.3        1 MOL1        -0.1410
       6    H4      21.393427   19.983972   20.647998 H          1 MOL1         0.0948
       7    H5      20.863733   18.907343   19.362854 H          1 MOL1         0.0948
       8    C3      20.051068   18.396613   21.305268 C.3        1 MOL1        -0.1435
       9    H6      19.193838   17.837892   20.905005 H          1 MOL1         0.0948
      10    H7      20.856220   17.663686   21.453063 H          1 MOL1         0.0948
      11    C4      19.677117   19.018567   22.671832 C.3        1 MOL1        -0.1435
      12    H8      18.822049   19.696635   22.551770 H          1 MOL1         0.0948
      13    H9      20.518864   19.623878   23.033391 H          1 MOL1         0.0948
      14    C5      19.320237   17.932907   23.715140 C.3        1 MOL1        -0.1435
      15    H10     18.516969   17.299698   23.313789 H          1 MOL1         0.0948
      16    H11     20.179715   17.267290   23.869879 H          1 MOL1         0.0948
      17    C6      18.850697   18.519782   25.071359 C.3        1 MOL1        -0.1500
      18    H12     18.603323   17.693890   25.751411 H          1 MOL1         0.0948
      19    H13     17.914091   19.068296   24.905533 H          1 MOL1         0.0948
      20    C7      19.862000   19.464579   25.762522 C.3        1 MOL1         0.1162
      21    H14     20.093933   20.284215   25.076117 H          1 MOL1         0.0910
      22    C8      21.173701   18.744584   26.122433 C.3        1 MOL1        -0.2491
      23    H15     21.696413   18.397709   25.223438 H          1 MOL1         0.0959
      24    H16     21.853986   19.422506   26.652440 H          1 MOL1         0.0959
      25    H17     20.986010   17.877332   26.767634 H          1 MOL1         0.0959
      26    N1      19.262053   20.097823   26.986932 N.4        1 MOL1        -0.5987
      27    H18     19.913753   20.754463   27.426022 H          1 MOL1         0.3605
      28    H19     19.017319   19.394843   27.689552 H          1 MOL1         0.3605
      29    H20     18.409285   20.618807   26.762800 H          1 MOL1         0.3605
@<TRIPOS>BOND
    1     1     2    1
    2     1     3    1
    3     1     4    1
    4     1     5    1
    5     5     6    1
    6     5     7    1
    7     5     8    1
    8     8     9    1
    9     8    10    1
   10     8    11    1
   11    11    12    1
   12    11    13    1
   13    11    14    1
   14    14    15    1
   15    14    16    1
   16    14    17    1
   17    17    18    1
   18    17    19    1
   19    17    20    1
   20    20    21    1
   21    20    22    1
   22    22    23    1
   23    22    24    1
   24    22    25    1
   25    20    26    1
   26    26    27    1
   27    26    28    1
   28    26    29    1
@<TRIPOS>SUBSTRUCTURE
       1 MOL1            1 RESIDUE      1      MOL     
@<SCITEGIC>MOL_PROPERTY
VM2 Rank
SciTegic.value.IntegerValue
38

@<SCITEGIC>MOL_PROPERTY
Conf_Id
SciTegic.value.IntegerValue
675

@<SCITEGIC>MOL_PROPERTY
Probability
SciTegic.value.DoubleValue
0.86

@<SCITEGIC>MOL_PROPERTY
Sum Probability
SciTegic.value.DoubleValue
83.23

@<SCITEGIC>MOL_PROPERTY
Delta G
SciTegic.value.DoubleValue
1.484

@<SCITEGIC>MOL_PROPERTY
G
SciTegic.value.DoubleValue
35.187

@<SCITEGIC>MOL_PROPERTY
E
SciTegic.value.DoubleValue
-2.602

@<SCITEGIC>MOL_PROPERTY
-TS
SciTegic.value.DoubleValue
37.789

@<SCITEGIC>MOL_PROPERTY
U+W
SciTegic.value.DoubleValue
-26.747

@<SCITEGIC>MOL_PROPERTY
U
SciTegic.value.DoubleValue
25.489

@<SCITEGIC>MOL_PROPERTY
W
SciTegic.value.DoubleValue
-52.236

@<SCITEGIC>MOL_PROPERTY
W(PB)
SciTegic.value.DoubleValue
-54.720

@<SCITEGIC>MOL_PROPERTY
W(SA)
SciTegic.value.DoubleValue
2.485

@<SCITEGIC>MOL_PROPERTY
Valence
SciTegic.value.DoubleValue
4.461

@<SCITEGIC>MOL_PROPERTY
Coulomb
SciTegic.value.DoubleValue
19.910

@<SCITEGIC>MOL_PROPERTY
VdW
SciTegic.value.DoubleValue
1.118

@<SCITEGIC>MOL_PROPERTY
VdW6
SciTegic.value.DoubleValue
-9.713

@<SCITEGIC>MOL_PROPERTY
VdW12
SciTegic.value.DoubleValue
10.831

@<SCITEGIC>MOL_PROPERTY
Bond
SciTegic.value.DoubleValue
0.263

@<SCITEGIC>MOL_PROPERTY
Angle
SciTegic.value.DoubleValue
1.656

@<SCITEGIC>MOL_PROPERTY
Pdih
SciTegic.value.DoubleValue
2.542

@<SCITEGIC>MOL_PROPERTY
Idih
SciTegic.value.DoubleValue
0.000

@<SCITEGIC>MOL_PROPERTY
Tether
SciTegic.value.DoubleValue
0.000

@<TRIPOS>MOLECULE
guest-s15_vm2.mol2 : vm2 ligand conformer 39
          29          28           1
SMALL
USER_CHARGES
 
@<TRIPOS>ATOM
       1    C1      18.267137   19.078334   19.982033 C.3        1 MOL1        -0.2426
       2    H1      17.418563   19.740676   19.767020 H          1 MOL1         0.0959
       3    H2      18.811819   18.913164   19.043285 H          1 MOL1         0.0959
       4    H3      17.865255   18.113771   20.318660 H          1 MOL1         0.0959
       5    C2      19.185731   19.700572   21.054730 C.3        1 MOL1        -0.1410
       6    H4      18.597035   19.886956   21.962681 H          1 MOL1         0.0948
       7    H5      19.548355   20.676526   20.703136 H          1 MOL1         0.0948
       8    C3      20.387927   18.782544   21.377786 C.3        1 MOL1        -0.1435
       9    H6      20.027117   17.821554   21.767496 H          1 MOL1         0.0948
      10    H7      20.918396   18.548385   20.444539 H          1 MOL1         0.0948
      11    C4      21.401121   19.411123   22.369169 C.3        1 MOL1        -0.1435
      12    H8      21.840806   20.306599   21.908751 H          1 MOL1         0.0948
      13    H9      22.233771   18.709116   22.514221 H          1 MOL1         0.0948
      14    C5      20.821601   19.796888   23.754590 C.3        1 MOL1        -0.1435
      15    H10     21.632016   20.225252   24.360563 H          1 MOL1         0.0948
      16    H11     20.079260   20.595859   23.633140 H          1 MOL1         0.0948
      17    C6      20.201367   18.599028   24.517901 C.3        1 MOL1        -0.1500
      18    H12     20.930832   17.778631   24.543739 H          1 MOL1         0.0948
      19    H13     19.322008   18.222615   23.979896 H          1 MOL1         0.0948
      20    C7      19.799031   18.954549   25.965216 C.3        1 MOL1         0.1162
      21    H14     20.682166   19.344032   26.480964 H          1 MOL1         0.0910
      22    C8      19.319161   17.698949   26.710449 C.3        1 MOL1        -0.2491
      23    H15     20.103158   16.931581   26.726181 H          1 MOL1         0.0959
      24    H16     19.066545   17.937753   27.750905 H          1 MOL1         0.0959
      25    H17     18.429869   17.269127   26.232591 H          1 MOL1         0.0959
      26    N1      18.752925   20.034013   26.022127 N.4        1 MOL1        -0.5987
      27    H18     17.889942   19.741806   25.555999 H          1 MOL1         0.3605
      28    H19     19.076194   20.891404   25.566039 H          1 MOL1         0.3605
      29    H20     18.514146   20.272376   26.988998 H          1 MOL1         0.3605
@<TRIPOS>BOND
    1     1     2    1
    2     1     3    1
    3     1     4    1
    4     1     5    1
    5     5     6    1
    6     5     7    1
    7     5     8    1
    8     8     9    1
    9     8    10    1
   10     8    11    1
   11    11    12    1
   12    11    13    1
   13    11    14    1
   14    14    15    1
   15    14    16    1
   16    14    17    1
   17    17    18    1
   18    17    19    1
   19    17    20    1
   20    20    21    1
   21    20    22    1
   22    22    23    1
   23    22    24    1
   24    22    25    1
   25    20    26    1
   26    26    27    1
   27    26    28    1
   28    26    29    1
@<TRIPOS>SUBSTRUCTURE
       1 MOL1            1 RESIDUE      1      MOL     
@<SCITEGIC>MOL_PROPERTY
VM2 Rank
SciTegic.value.IntegerValue
39

@<SCITEGIC>MOL_PROPERTY
Conf_Id
SciTegic.value.IntegerValue
1330

@<SCITEGIC>MOL_PROPERTY
Probability
SciTegic.value.DoubleValue
0.85

@<SCITEGIC>MOL_PROPERTY
Sum Probability
SciTegic.value.DoubleValue
84.08

@<SCITEGIC>MOL_PROPERTY
Delta G
SciTegic.value.DoubleValue
1.488

@<SCITEGIC>MOL_PROPERTY
G
SciTegic.value.DoubleValue
35.190

@<SCITEGIC>MOL_PROPERTY
E
SciTegic.value.DoubleValue
-2.656

@<SCITEGIC>MOL_PROPERTY
-TS
SciTegic.value.DoubleValue
37.846

@<SCITEGIC>MOL_PROPERTY
U+W
SciTegic.value.DoubleValue
-26.801

@<SCITEGIC>MOL_PROPERTY
U
SciTegic.value.DoubleValue
25.620

@<SCITEGIC>MOL_PROPERTY
W
SciTegic.value.DoubleValue
-52.421

@<SCITEGIC>MOL_PROPERTY
W(PB)
SciTegic.value.DoubleValue
-54.905

@<SCITEGIC>MOL_PROPERTY
W(SA)
SciTegic.value.DoubleValue
2.484

@<SCITEGIC>MOL_PROPERTY
Valence
SciTegic.value.DoubleValue
4.137

@<SCITEGIC>MOL_PROPERTY
Coulomb
SciTegic.value.DoubleValue
20.478

@<SCITEGIC>MOL_PROPERTY
VdW
SciTegic.value.DoubleValue
1.005

@<SCITEGIC>MOL_PROPERTY
VdW6
SciTegic.value.DoubleValue
-9.764

@<SCITEGIC>MOL_PROPERTY
VdW12
SciTegic.value.DoubleValue
10.769

@<SCITEGIC>MOL_PROPERTY
Bond
SciTegic.value.DoubleValue
0.272

@<SCITEGIC>MOL_PROPERTY
Angle
SciTegic.value.DoubleValue
1.510

@<SCITEGIC>MOL_PROPERTY
Pdih
SciTegic.value.DoubleValue
2.354

@<SCITEGIC>MOL_PROPERTY
Idih
SciTegic.value.DoubleValue
0.000

@<SCITEGIC>MOL_PROPERTY
Tether
SciTegic.value.DoubleValue
0.000

@<TRIPOS>MOLECULE
guest-s15_vm2.mol2 : vm2 ligand conformer 40
          29          28           1
SMALL
USER_CHARGES
 
@<TRIPOS>ATOM
       1    C1      19.402281   20.554943   19.764047 C.3        1 MOL1        -0.2426
       2    H1      18.545054   20.004468   19.354924 H          1 MOL1         0.0959
       3    H2      19.018041   21.401765   20.347554 H          1 MOL1         0.0959
       4    H3      19.976603   20.959708   18.920631 H          1 MOL1         0.0959
       5    C2      20.286263   19.637054   20.634598 C.3        1 MOL1        -0.1410
       6    H4      21.151669   20.206096   21.002211 H          1 MOL1         0.0948
       7    H5      20.683324   18.820095   20.015905 H          1 MOL1         0.0948
       8    C3      19.500928   19.052883   21.829426 C.3        1 MOL1        -0.1435
       9    H6      19.101696   19.878479   22.432976 H          1 MOL1         0.0948
      10    H7      18.638587   18.482649   21.457439 H          1 MOL1         0.0948
      11    C4      20.387548   18.136629   22.706161 C.3        1 MOL1        -0.1435
      12    H8      21.230565   18.713116   23.109883 H          1 MOL1         0.0948
      13    H9      20.830957   17.355875   22.072846 H          1 MOL1         0.0948
      14    C5      19.614598   17.448052   23.860436 C.3        1 MOL1        -0.1435
      15    H10     18.843494   16.792339   23.433174 H          1 MOL1         0.0948
      16    H11     20.300758   16.781908   24.400291 H          1 MOL1         0.0948
      17    C6      18.940355   18.419775   24.866002 C.3        1 MOL1        -0.1500
      18    H12     18.482832   17.834249   25.674402 H          1 MOL1         0.0948
      19    H13     18.109976   18.930057   24.361623 H          1 MOL1         0.0948
      20    C7      19.883542   19.482471   25.476476 C.3        1 MOL1         0.1162
      21    H14     20.342346   20.046141   24.658675 H          1 MOL1         0.0910
      22    C8      21.003023   18.843761   26.317415 C.3        1 MOL1        -0.2491
      23    H15     21.650115   18.208474   25.701477 H          1 MOL1         0.0959
      24    H16     21.638080   19.617058   26.766817 H          1 MOL1         0.0959
      25    H17     20.589391   18.229752   27.127064 H          1 MOL1         0.0959
      26    N1      19.117464   20.480433   26.299438 N.4        1 MOL1        -0.5987
      27    H18     18.655634   20.032178   27.095385 H          1 MOL1         0.3605
      28    H19     18.393360   20.948785   25.747136 H          1 MOL1         0.3605
      29    H20     19.733463   21.207723   26.673968 H          1 MOL1         0.3605
@<TRIPOS>BOND
    1     1     2    1
    2     1     3    1
    3     1     4    1
    4     1     5    1
    5     5     6    1
    6     5     7    1
    7     5     8    1
    8     8     9    1
    9     8    10    1
   10     8    11    1
   11    11    12    1
   12    11    13    1
   13    11    14    1
   14    14    15    1
   15    14    16    1
   16    14    17    1
   17    17    18    1
   18    17    19    1
   19    17    20    1
   20    20    21    1
   21    20    22    1
   22    22    23    1
   23    22    24    1
   24    22    25    1
   25    20    26    1
   26    26    27    1
   27    26    28    1
   28    26    29    1
@<TRIPOS>SUBSTRUCTURE
       1 MOL1            1 RESIDUE      1      MOL     
@<SCITEGIC>MOL_PROPERTY
VM2 Rank
SciTegic.value.IntegerValue
40

@<SCITEGIC>MOL_PROPERTY
Conf_Id
SciTegic.value.IntegerValue
587

@<SCITEGIC>MOL_PROPERTY
Probability
SciTegic.value.DoubleValue
0.83

@<SCITEGIC>MOL_PROPERTY
Sum Probability
SciTegic.value.DoubleValue
84.91

@<SCITEGIC>MOL_PROPERTY
Delta G
SciTegic.value.DoubleValue
1.504

@<SCITEGIC>MOL_PROPERTY
G
SciTegic.value.DoubleValue
35.206

@<SCITEGIC>MOL_PROPERTY
E
SciTegic.value.DoubleValue
-2.772

@<SCITEGIC>MOL_PROPERTY
-TS
SciTegic.value.DoubleValue
37.978

@<SCITEGIC>MOL_PROPERTY
U+W
SciTegic.value.DoubleValue
-26.917

@<SCITEGIC>MOL_PROPERTY
U
SciTegic.value.DoubleValue
25.707

@<SCITEGIC>MOL_PROPERTY
W
SciTegic.value.DoubleValue
-52.624

@<SCITEGIC>MOL_PROPERTY
W(PB)
SciTegic.value.DoubleValue
-55.090

@<SCITEGIC>MOL_PROPERTY
W(SA)
SciTegic.value.DoubleValue
2.466

@<SCITEGIC>MOL_PROPERTY
Valence
SciTegic.value.DoubleValue
4.405

@<SCITEGIC>MOL_PROPERTY
Coulomb
SciTegic.value.DoubleValue
20.449

@<SCITEGIC>MOL_PROPERTY
VdW
SciTegic.value.DoubleValue
0.853

@<SCITEGIC>MOL_PROPERTY
VdW6
SciTegic.value.DoubleValue
-10.191

@<SCITEGIC>MOL_PROPERTY
VdW12
SciTegic.value.DoubleValue
11.043

@<SCITEGIC>MOL_PROPERTY
Bond
SciTegic.value.DoubleValue
0.273

@<SCITEGIC>MOL_PROPERTY
Angle
SciTegic.value.DoubleValue
1.693

@<SCITEGIC>MOL_PROPERTY
Pdih
SciTegic.value.DoubleValue
2.439

@<SCITEGIC>MOL_PROPERTY
Idih
SciTegic.value.DoubleValue
0.000

@<SCITEGIC>MOL_PROPERTY
Tether
SciTegic.value.DoubleValue
0.000

@<TRIPOS>MOLECULE
guest-s15_vm2.mol2 : vm2 ligand conformer 41
          29          28           1
SMALL
USER_CHARGES
 
@<TRIPOS>ATOM
       1    C1      18.355326   18.922412   19.941478 C.3        1 MOL1        -0.2426
       2    H1      17.888894   17.985849   19.609367 H          1 MOL1         0.0959
       3    H2      17.570086   19.554708   20.375995 H          1 MOL1         0.0959
       4    H3      18.754203   19.432851   19.055160 H          1 MOL1         0.0959
       5    C2      19.471655   18.640567   20.969117 C.3        1 MOL1        -0.1410
       6    H4      20.226650   17.982692   20.516589 H          1 MOL1         0.0948
       7    H5      19.042450   18.095635   21.820435 H          1 MOL1         0.0948
       8    C3      20.141857   19.947048   21.455448 C.3        1 MOL1        -0.1435
       9    H6      20.496975   20.511957   20.582552 H          1 MOL1         0.0948
      10    H7      19.395723   20.587126   21.944514 H          1 MOL1         0.0948
      11    C4      21.344468   19.712109   22.405775 C.3        1 MOL1        -0.1435
      12    H8      21.777339   20.685748   22.673750 H          1 MOL1         0.0948
      13    H9      22.131129   19.174715   21.858462 H          1 MOL1         0.0948
      14    C5      21.019250   18.931187   23.705216 C.3        1 MOL1        -0.1435
      15    H10     20.712663   17.909172   23.449887 H          1 MOL1         0.0948
      16    H11     21.943598   18.833543   24.291157 H          1 MOL1         0.0948
      17    C6      19.937643   19.615532   24.579985 C.3        1 MOL1        -0.1500
      18    H12     18.972814   19.612002   24.056982 H          1 MOL1         0.0948
      19    H13     20.215482   20.668652   24.718568 H          1 MOL1         0.0948
      20    C7      19.765120   18.965556   25.971398 C.3        1 MOL1         0.1162
      21    H14     20.743065   18.939154   26.461832 H          1 MOL1         0.0910
      22    C8      19.228782   17.526031   25.874681 C.3        1 MOL1        -0.2491
      23    H15     19.938890   16.869782   25.358432 H          1 MOL1         0.0959
      24    H16     19.067542   17.105909   26.875099 H          1 MOL1         0.0959
      25    H17     18.274551   17.493545   25.334208 H          1 MOL1         0.0959
      26    N1      18.871900   19.795557   26.850901 N.4        1 MOL1        -0.5987
      27    H18     19.233245   20.747112   26.964258 H          1 MOL1         0.3605
      28    H19     18.786495   19.388881   27.786863 H          1 MOL1         0.3605
      29    H20     17.927808   19.868926   26.462336 H          1 MOL1         0.3605
@<TRIPOS>BOND
    1     1     2    1
    2     1     3    1
    3     1     4    1
    4     1     5    1
    5     5     6    1
    6     5     7    1
    7     5     8    1
    8     8     9    1
    9     8    10    1
   10     8    11    1
   11    11    12    1
   12    11    13    1
   13    11    14    1
   14    14    15    1
   15    14    16    1
   16    14    17    1
   17    17    18    1
   18    17    19    1
   19    17    20    1
   20    20    21    1
   21    20    22    1
   22    22    23    1
   23    22    24    1
   24    22    25    1
   25    20    26    1
   26    26    27    1
   27    26    28    1
   28    26    29    1
@<TRIPOS>SUBSTRUCTURE
       1 MOL1            1 RESIDUE      1      MOL     
@<SCITEGIC>MOL_PROPERTY
VM2 Rank
SciTegic.value.IntegerValue
41

@<SCITEGIC>MOL_PROPERTY
Conf_Id
SciTegic.value.IntegerValue
892

@<SCITEGIC>MOL_PROPERTY
Probability
SciTegic.value.DoubleValue
0.67

@<SCITEGIC>MOL_PROPERTY
Sum Probability
SciTegic.value.DoubleValue
85.58

@<SCITEGIC>MOL_PROPERTY
Delta G
SciTegic.value.DoubleValue
1.636

@<SCITEGIC>MOL_PROPERTY
G
SciTegic.value.DoubleValue
35.338

@<SCITEGIC>MOL_PROPERTY
E
SciTegic.value.DoubleValue
-2.533

@<SCITEGIC>MOL_PROPERTY
-TS
SciTegic.value.DoubleValue
37.871

@<SCITEGIC>MOL_PROPERTY
U+W
SciTegic.value.DoubleValue
-26.678

@<SCITEGIC>MOL_PROPERTY
U
SciTegic.value.DoubleValue
25.699

@<SCITEGIC>MOL_PROPERTY
W
SciTegic.value.DoubleValue
-52.377

@<SCITEGIC>MOL_PROPERTY
W(PB)
SciTegic.value.DoubleValue
-54.832

@<SCITEGIC>MOL_PROPERTY
W(SA)
SciTegic.value.DoubleValue
2.455

@<SCITEGIC>MOL_PROPERTY
Valence
SciTegic.value.DoubleValue
4.645

@<SCITEGIC>MOL_PROPERTY
Coulomb
SciTegic.value.DoubleValue
19.935

@<SCITEGIC>MOL_PROPERTY
VdW
SciTegic.value.DoubleValue
1.119

@<SCITEGIC>MOL_PROPERTY
VdW6
SciTegic.value.DoubleValue
-9.959

@<SCITEGIC>MOL_PROPERTY
VdW12
SciTegic.value.DoubleValue
11.077

@<SCITEGIC>MOL_PROPERTY
Bond
SciTegic.value.DoubleValue
0.284

@<SCITEGIC>MOL_PROPERTY
Angle
SciTegic.value.DoubleValue
1.754

@<SCITEGIC>MOL_PROPERTY
Pdih
SciTegic.value.DoubleValue
2.608

@<SCITEGIC>MOL_PROPERTY
Idih
SciTegic.value.DoubleValue
0.000

@<SCITEGIC>MOL_PROPERTY
Tether
SciTegic.value.DoubleValue
0.000

@<TRIPOS>MOLECULE
guest-s15_vm2.mol2 : vm2 ligand conformer 42
          29          28           1
SMALL
USER_CHARGES
 
@<TRIPOS>ATOM
       1    C1      19.996536   19.211294   18.997368 C.3        1 MOL1        -0.2426
       2    H1      20.243633   20.239399   18.702120 H          1 MOL1         0.0959
       3    H2      20.911648   18.608064   18.934650 H          1 MOL1         0.0959
       4    H3      19.280089   18.814079   18.266642 H          1 MOL1         0.0959
       5    C2      19.402138   19.169996   20.421108 C.3        1 MOL1        -0.1410
       6    H4      19.130294   18.134052   20.662540 H          1 MOL1         0.0948
       7    H5      18.473847   19.757665   20.445231 H          1 MOL1         0.0948
       8    C3      20.397013   19.721268   21.469718 C.3        1 MOL1        -0.1435
       9    H6      21.302652   19.099333   21.484642 H          1 MOL1         0.0948
      10    H7      20.718443   20.725553   21.160801 H          1 MOL1         0.0948
      11    C4      19.807442   19.814741   22.898524 C.3        1 MOL1        -0.1435
      12    H8      18.902581   20.437749   22.882558 H          1 MOL1         0.0948
      13    H9      20.534529   20.341495   23.530303 H          1 MOL1         0.0948
      14    C5      19.482407   18.434918   23.525056 C.3        1 MOL1        -0.1435
      15    H10     18.739982   17.915702   22.905654 H          1 MOL1         0.0948
      16    H11     20.379019   17.801330   23.516987 H          1 MOL1         0.0948
      17    C6      18.914174   18.536036   24.964517 C.3        1 MOL1        -0.1500
      18    H12     18.682774   17.525807   25.327387 H          1 MOL1         0.0948
      19    H13     17.955985   19.070480   24.921650 H          1 MOL1         0.0948
      20    C7      19.831732   19.245736   25.988221 C.3        1 MOL1         0.1162
      21    H14     20.043831   20.254432   25.622054 H          1 MOL1         0.0910
      22    C8      21.167608   18.505813   26.179027 C.3        1 MOL1        -0.2491
      23    H15     21.004545   17.467006   26.491963 H          1 MOL1         0.0959
      24    H16     21.753561   18.498141   25.252562 H          1 MOL1         0.0959
      25    H17     21.777619   19.000464   26.944850 H          1 MOL1         0.0959
      26    N1      19.136949   19.416197   27.310461 N.4        1 MOL1        -0.5987
      27    H18     18.904165   18.511921   27.729788 H          1 MOL1         0.3605
      28    H19     18.264655   19.943897   27.212897 H          1 MOL1         0.3605
      29    H20     19.725113   19.920882   27.979824 H          1 MOL1         0.3605
@<TRIPOS>BOND
    1     1     2    1
    2     1     3    1
    3     1     4    1
    4     1     5    1
    5     5     6    1
    6     5     7    1
    7     5     8    1
    8     8     9    1
    9     8    10    1
   10     8    11    1
   11    11    12    1
   12    11    13    1
   13    11    14    1
   14    14    15    1
   15    14    16    1
   16    14    17    1
   17    17    18    1
   18    17    19    1
   19    17    20    1
   20    20    21    1
   21    20    22    1
   22    22    23    1
   23    22    24    1
   24    22    25    1
   25    20    26    1
   26    26    27    1
   27    26    28    1
   28    26    29    1
@<TRIPOS>SUBSTRUCTURE
       1 MOL1            1 RESIDUE      1      MOL     
@<SCITEGIC>MOL_PROPERTY
VM2 Rank
SciTegic.value.IntegerValue
42

@<SCITEGIC>MOL_PROPERTY
Conf_Id
SciTegic.value.IntegerValue
1346

@<SCITEGIC>MOL_PROPERTY
Probability
SciTegic.value.DoubleValue
0.67

@<SCITEGIC>MOL_PROPERTY
Sum Probability
SciTegic.value.DoubleValue
86.24

@<SCITEGIC>MOL_PROPERTY
Delta G
SciTegic.value.DoubleValue
1.636

@<SCITEGIC>MOL_PROPERTY
G
SciTegic.value.DoubleValue
35.339

@<SCITEGIC>MOL_PROPERTY
E
SciTegic.value.DoubleValue
-2.401

@<SCITEGIC>MOL_PROPERTY
-TS
SciTegic.value.DoubleValue
37.739

@<SCITEGIC>MOL_PROPERTY
U+W
SciTegic.value.DoubleValue
-26.545

@<SCITEGIC>MOL_PROPERTY
U
SciTegic.value.DoubleValue
25.622

@<SCITEGIC>MOL_PROPERTY
W
SciTegic.value.DoubleValue
-52.167

@<SCITEGIC>MOL_PROPERTY
W(PB)
SciTegic.value.DoubleValue
-54.630

@<SCITEGIC>MOL_PROPERTY
W(SA)
SciTegic.value.DoubleValue
2.462

@<SCITEGIC>MOL_PROPERTY
Valence
SciTegic.value.DoubleValue
4.553

@<SCITEGIC>MOL_PROPERTY
Coulomb
SciTegic.value.DoubleValue
19.890

@<SCITEGIC>MOL_PROPERTY
VdW
SciTegic.value.DoubleValue
1.179

@<SCITEGIC>MOL_PROPERTY
VdW6
SciTegic.value.DoubleValue
-9.673

@<SCITEGIC>MOL_PROPERTY
VdW12
SciTegic.value.DoubleValue
10.852

@<SCITEGIC>MOL_PROPERTY
Bond
SciTegic.value.DoubleValue
0.276

@<SCITEGIC>MOL_PROPERTY
Angle
SciTegic.value.DoubleValue
1.749

@<SCITEGIC>MOL_PROPERTY
Pdih
SciTegic.value.DoubleValue
2.528

@<SCITEGIC>MOL_PROPERTY
Idih
SciTegic.value.DoubleValue
0.000

@<SCITEGIC>MOL_PROPERTY
Tether
SciTegic.value.DoubleValue
0.000

@<TRIPOS>MOLECULE
guest-s15_vm2.mol2 : vm2 ligand conformer 43
          29          28           1
SMALL
USER_CHARGES
 
@<TRIPOS>ATOM
       1    C1      19.243111   20.183382   19.629087 C.3        1 MOL1        -0.2426
       2    H1      18.323841   20.584976   20.074820 H          1 MOL1         0.0959
       3    H2      20.078378   20.832871   19.919034 H          1 MOL1         0.0959
       4    H3      19.141430   20.243561   18.537778 H          1 MOL1         0.0959
       5    C2      19.481850   18.721645   20.070340 C.3        1 MOL1        -0.1410
       6    H4      20.419824   18.352094   19.632907 H          1 MOL1         0.0948
       7    H5      18.681215   18.091534   19.658416 H          1 MOL1         0.0948
       8    C3      19.514461   18.542730   21.607205 C.3        1 MOL1        -0.1435
       9    H6      18.561195   18.887785   22.028783 H          1 MOL1         0.0948
      10    H7      19.584581   17.469704   21.832557 H          1 MOL1         0.0948
      11    C4      20.695453   19.281468   22.285825 C.3        1 MOL1        -0.1435
      12    H8      20.576396   20.366961   22.171222 H          1 MOL1         0.0948
      13    H9      21.628537   19.015661   21.770276 H          1 MOL1         0.0948
      14    C5      20.849524   18.941904   23.788557 C.3        1 MOL1        -0.1435
      15    H10     21.009363   17.861040   23.896980 H          1 MOL1         0.0948
      16    H11     21.758705   19.430466   24.165498 H          1 MOL1         0.0948
      17    C6      19.639848   19.393300   24.646930 C.3        1 MOL1        -0.1500
      18    H12     18.747631   18.815639   24.373836 H          1 MOL1         0.0948
      19    H13     19.417375   20.442876   24.413625 H          1 MOL1         0.0948
      20    C7      19.881090   19.270031   26.168544 C.3        1 MOL1         0.1162
      21    H14     20.792990   19.821561   26.417267 H          1 MOL1         0.0910
      22    C8      20.061350   17.806329   26.609208 C.3        1 MOL1        -0.2491
      23    H15     20.955370   17.361319   26.157302 H          1 MOL1         0.0959
      24    H16     20.182203   17.742675   27.697638 H          1 MOL1         0.0959
      25    H17     19.193540   17.197241   26.327031 H          1 MOL1         0.0959
      26    N1      18.769313   19.915210   26.948303 N.4        1 MOL1        -0.5987
      27    H18     18.659799   20.903183   26.701725 H          1 MOL1         0.3605
      28    H19     18.944896   19.870684   27.956226 H          1 MOL1         0.3605
      29    H20     17.872825   19.453105   26.773720 H          1 MOL1         0.3605
@<TRIPOS>BOND
    1     1     2    1
    2     1     3    1
    3     1     4    1
    4     1     5    1
    5     5     6    1
    6     5     7    1
    7     5     8    1
    8     8     9    1
    9     8    10    1
   10     8    11    1
   11    11    12    1
   12    11    13    1
   13    11    14    1
   14    14    15    1
   15    14    16    1
   16    14    17    1
   17    17    18    1
   18    17    19    1
   19    17    20    1
   20    20    21    1
   21    20    22    1
   22    22    23    1
   23    22    24    1
   24    22    25    1
   25    20    26    1
   26    26    27    1
   27    26    28    1
   28    26    29    1
@<TRIPOS>SUBSTRUCTURE
       1 MOL1            1 RESIDUE      1      MOL     
@<SCITEGIC>MOL_PROPERTY
VM2 Rank
SciTegic.value.IntegerValue
43

@<SCITEGIC>MOL_PROPERTY
Conf_Id
SciTegic.value.IntegerValue
678

@<SCITEGIC>MOL_PROPERTY
Probability
SciTegic.value.DoubleValue
0.65

@<SCITEGIC>MOL_PROPERTY
Sum Probability
SciTegic.value.DoubleValue
86.90

@<SCITEGIC>MOL_PROPERTY
Delta G
SciTegic.value.DoubleValue
1.646

@<SCITEGIC>MOL_PROPERTY
G
SciTegic.value.DoubleValue
35.348

@<SCITEGIC>MOL_PROPERTY
E
SciTegic.value.DoubleValue
-2.317

@<SCITEGIC>MOL_PROPERTY
-TS
SciTegic.value.DoubleValue
37.666

@<SCITEGIC>MOL_PROPERTY
U+W
SciTegic.value.DoubleValue
-26.462

@<SCITEGIC>MOL_PROPERTY
U
SciTegic.value.DoubleValue
25.687

@<SCITEGIC>MOL_PROPERTY
W
SciTegic.value.DoubleValue
-52.149

@<SCITEGIC>MOL_PROPERTY
W(PB)
SciTegic.value.DoubleValue
-54.640

@<SCITEGIC>MOL_PROPERTY
W(SA)
SciTegic.value.DoubleValue
2.491

@<SCITEGIC>MOL_PROPERTY
Valence
SciTegic.value.DoubleValue
4.682

@<SCITEGIC>MOL_PROPERTY
Coulomb
SciTegic.value.DoubleValue
19.653

@<SCITEGIC>MOL_PROPERTY
VdW
SciTegic.value.DoubleValue
1.352

@<SCITEGIC>MOL_PROPERTY
VdW6
SciTegic.value.DoubleValue
-9.478

@<SCITEGIC>MOL_PROPERTY
VdW12
SciTegic.value.DoubleValue
10.830

@<SCITEGIC>MOL_PROPERTY
Bond
SciTegic.value.DoubleValue
0.274

@<SCITEGIC>MOL_PROPERTY
Angle
SciTegic.value.DoubleValue
1.550

@<SCITEGIC>MOL_PROPERTY
Pdih
SciTegic.value.DoubleValue
2.858

@<SCITEGIC>MOL_PROPERTY
Idih
SciTegic.value.DoubleValue
0.000

@<SCITEGIC>MOL_PROPERTY
Tether
SciTegic.value.DoubleValue
0.000

@<TRIPOS>MOLECULE
guest-s15_vm2.mol2 : vm2 ligand conformer 44
          29          28           1
SMALL
USER_CHARGES
 
@<TRIPOS>ATOM
       1    C1      21.002702   18.927216   19.785440 C.3        1 MOL1        -0.2426
       2    H1      21.787887   19.633169   20.085972 H          1 MOL1         0.0959
       3    H2      21.490812   18.004713   19.445233 H          1 MOL1         0.0959
       4    H3      20.463991   19.357964   18.931359 H          1 MOL1         0.0959
       5    C2      20.042145   18.635006   20.957453 C.3        1 MOL1        -0.1410
       6    H4      20.609141   18.169738   21.774734 H          1 MOL1         0.0948
       7    H5      19.286455   17.904546   20.636594 H          1 MOL1         0.0948
       8    C3      19.344821   19.921992   21.457469 C.3        1 MOL1        -0.1435
       9    H6      20.097196   20.636322   21.816799 H          1 MOL1         0.0948
      10    H7      18.847955   20.411112   20.608317 H          1 MOL1         0.0948
      11    C4      18.284862   19.666721   22.560275 C.3        1 MOL1        -0.1435
      12    H8      17.474723   19.055518   22.139232 H          1 MOL1         0.0948
      13    H9      17.824687   20.625680   22.835545 H          1 MOL1         0.0948
      14    C5      18.813156   18.975518   23.843863 C.3        1 MOL1        -0.1435
      15    H10     17.967650   18.847792   24.532218 H          1 MOL1         0.0948
      16    H11     19.159011   17.963697   23.598113 H          1 MOL1         0.0948
      17    C6      19.942405   19.772726   24.551695 C.3        1 MOL1        -0.1500
      18    H12     19.608487   20.806115   24.712270 H          1 MOL1         0.0948
      19    H13     20.818339   19.835026   23.893870 H          1 MOL1         0.0948
      20    C7      20.397998   19.187165   25.908917 C.3        1 MOL1         0.1162
      21    H14     21.176861   19.847475   26.302761 H          1 MOL1         0.0910
      22    C8      21.010844   17.784234   25.755426 C.3        1 MOL1        -0.2491
      23    H15     20.259978   17.044661   25.452920 H          1 MOL1         0.0959
      24    H16     21.811504   17.788460   25.005406 H          1 MOL1         0.0959
      25    H17     21.446439   17.450092   26.705053 H          1 MOL1         0.0959
      26    N1      19.297066   19.185422   26.933462 N.4        1 MOL1        -0.5987
      27    H18     19.632473   18.853776   27.842376 H          1 MOL1         0.3605
      28    H19     18.526475   18.575607   26.649316 H          1 MOL1         0.3605
      29    H20     18.912655   20.124307   27.072750 H          1 MOL1         0.3605
@<TRIPOS>BOND
    1     1     2    1
    2     1     3    1
    3     1     4    1
    4     1     5    1
    5     5     6    1
    6     5     7    1
    7     5     8    1
    8     8     9    1
    9     8    10    1
   10     8    11    1
   11    11    12    1
   12    11    13    1
   13    11    14    1
   14    14    15    1
   15    14    16    1
   16    14    17    1
   17    17    18    1
   18    17    19    1
   19    17    20    1
   20    20    21    1
   21    20    22    1
   22    22    23    1
   23    22    24    1
   24    22    25    1
   25    20    26    1
   26    26    27    1
   27    26    28    1
   28    26    29    1
@<TRIPOS>SUBSTRUCTURE
       1 MOL1            1 RESIDUE      1      MOL     
@<SCITEGIC>MOL_PROPERTY
VM2 Rank
SciTegic.value.IntegerValue
44

@<SCITEGIC>MOL_PROPERTY
Conf_Id
SciTegic.value.IntegerValue
659

@<SCITEGIC>MOL_PROPERTY
Probability
SciTegic.value.DoubleValue
0.61

@<SCITEGIC>MOL_PROPERTY
Sum Probability
SciTegic.value.DoubleValue
87.51

@<SCITEGIC>MOL_PROPERTY
Delta G
SciTegic.value.DoubleValue
1.688

@<SCITEGIC>MOL_PROPERTY
G
SciTegic.value.DoubleValue
35.391

@<SCITEGIC>MOL_PROPERTY
E
SciTegic.value.DoubleValue
-2.611

@<SCITEGIC>MOL_PROPERTY
-TS
SciTegic.value.DoubleValue
38.002

@<SCITEGIC>MOL_PROPERTY
U+W
SciTegic.value.DoubleValue
-26.756

@<SCITEGIC>MOL_PROPERTY
U
SciTegic.value.DoubleValue
25.698

@<SCITEGIC>MOL_PROPERTY
W
SciTegic.value.DoubleValue
-52.454

@<SCITEGIC>MOL_PROPERTY
W(PB)
SciTegic.value.DoubleValue
-54.881

@<SCITEGIC>MOL_PROPERTY
W(SA)
SciTegic.value.DoubleValue
2.427

@<SCITEGIC>MOL_PROPERTY
Valence
SciTegic.value.DoubleValue
4.638

@<SCITEGIC>MOL_PROPERTY
Coulomb
SciTegic.value.DoubleValue
19.916

@<SCITEGIC>MOL_PROPERTY
VdW
SciTegic.value.DoubleValue
1.144

@<SCITEGIC>MOL_PROPERTY
VdW6
SciTegic.value.DoubleValue
-10.434

@<SCITEGIC>MOL_PROPERTY
VdW12
SciTegic.value.DoubleValue
11.578

@<SCITEGIC>MOL_PROPERTY
Bond
SciTegic.value.DoubleValue
0.315

@<SCITEGIC>MOL_PROPERTY
Angle
SciTegic.value.DoubleValue
1.852

@<SCITEGIC>MOL_PROPERTY
Pdih
SciTegic.value.DoubleValue
2.471

@<SCITEGIC>MOL_PROPERTY
Idih
SciTegic.value.DoubleValue
0.000

@<SCITEGIC>MOL_PROPERTY
Tether
SciTegic.value.DoubleValue
0.000

@<TRIPOS>MOLECULE
guest-s15_vm2.mol2 : vm2 ligand conformer 45
          29          28           1
SMALL
USER_CHARGES
 
@<TRIPOS>ATOM
       1    C1      20.402446   20.730477   20.611195 C.3        1 MOL1        -0.2426
       2    H1      19.565574   21.255361   21.088268 H          1 MOL1         0.0959
       3    H2      21.298510   20.878773   21.227706 H          1 MOL1         0.0959
       4    H3      20.580640   21.208576   19.639304 H          1 MOL1         0.0959
       5    C2      20.097839   19.226622   20.426134 C.3        1 MOL1        -0.1410
       6    H4      20.908096   18.770452   19.840371 H          1 MOL1         0.0948
       7    H5      19.182000   19.105037   19.831030 H          1 MOL1         0.0948
       8    C3      19.959632   18.460611   21.763513 C.3        1 MOL1        -0.1435
       9    H6      19.855119   17.389121   21.544303 H          1 MOL1         0.0948
      10    H7      20.889239   18.571730   22.337054 H          1 MOL1         0.0948
      11    C4      18.749386   18.923276   22.613070 C.3        1 MOL1        -0.1435
      12    H8      17.845363   18.901288   21.989100 H          1 MOL1         0.0948
      13    H9      18.881936   19.968665   22.918606 H          1 MOL1         0.0948
      14    C5      18.502845   18.041011   23.864044 C.3        1 MOL1        -0.1435
      15    H10     17.609010   18.407133   24.386697 H          1 MOL1         0.0948
      16    H11     18.258217   17.020210   23.539587 H          1 MOL1         0.0948
      17    C6      19.691888   17.976032   24.859546 C.3        1 MOL1        -0.1500
      18    H12     20.524063   17.435034   24.391071 H          1 MOL1         0.0948
      19    H13     19.396097   17.375475   25.729938 H          1 MOL1         0.0948
      20    C7      20.190754   19.357722   25.337158 C.3        1 MOL1         0.1162
      21    H14     20.482312   19.940648   24.458332 H          1 MOL1         0.0910
      22    C8      21.424946   19.199738   26.238869 C.3        1 MOL1        -0.2491
      23    H15     21.186357   18.622766   27.141131 H          1 MOL1         0.0959
      24    H16     22.232825   18.682723   25.706185 H          1 MOL1         0.0959
      25    H17     21.805903   20.180050   26.550682 H          1 MOL1         0.0959
      26    N1      19.116264   20.140512   26.040470 N.4        1 MOL1        -0.5987
      27    H18     19.450368   21.066390   26.322699 H          1 MOL1         0.3605
      28    H19     18.797037   19.658455   26.884955 H          1 MOL1         0.3605
      29    H20     18.301353   20.276934   25.436253 H          1 MOL1         0.3605
@<TRIPOS>BOND
    1     1     2    1
    2     1     3    1
    3     1     4    1
    4     1     5    1
    5     5     6    1
    6     5     7    1
    7     5     8    1
    8     8     9    1
    9     8    10    1
   10     8    11    1
   11    11    12    1
   12    11    13    1
   13    11    14    1
   14    14    15    1
   15    14    16    1
   16    14    17    1
   17    17    18    1
   18    17    19    1
   19    17    20    1
   20    20    21    1
   21    20    22    1
   22    22    23    1
   23    22    24    1
   24    22    25    1
   25    20    26    1
   26    26    27    1
   27    26    28    1
   28    26    29    1
@<TRIPOS>SUBSTRUCTURE
       1 MOL1            1 RESIDUE      1      MOL     
@<SCITEGIC>MOL_PROPERTY
VM2 Rank
SciTegic.value.IntegerValue
45

@<SCITEGIC>MOL_PROPERTY
Conf_Id
SciTegic.value.IntegerValue
185

@<SCITEGIC>MOL_PROPERTY
Probability
SciTegic.value.DoubleValue
0.60

@<SCITEGIC>MOL_PROPERTY
Sum Probability
SciTegic.value.DoubleValue
88.10

@<SCITEGIC>MOL_PROPERTY
Delta G
SciTegic.value.DoubleValue
1.703

@<SCITEGIC>MOL_PROPERTY
G
SciTegic.value.DoubleValue
35.405

@<SCITEGIC>MOL_PROPERTY
E
SciTegic.value.DoubleValue
-2.580

@<SCITEGIC>MOL_PROPERTY
-TS
SciTegic.value.DoubleValue
37.985

@<SCITEGIC>MOL_PROPERTY
U+W
SciTegic.value.DoubleValue
-26.725

@<SCITEGIC>MOL_PROPERTY
U
SciTegic.value.DoubleValue
25.698

@<SCITEGIC>MOL_PROPERTY
W
SciTegic.value.DoubleValue
-52.423

@<SCITEGIC>MOL_PROPERTY
W(PB)
SciTegic.value.DoubleValue
-54.855

@<SCITEGIC>MOL_PROPERTY
W(SA)
SciTegic.value.DoubleValue
2.432

@<SCITEGIC>MOL_PROPERTY
Valence
SciTegic.value.DoubleValue
4.391

@<SCITEGIC>MOL_PROPERTY
Coulomb
SciTegic.value.DoubleValue
20.476

@<SCITEGIC>MOL_PROPERTY
VdW
SciTegic.value.DoubleValue
0.832

@<SCITEGIC>MOL_PROPERTY
VdW6
SciTegic.value.DoubleValue
-10.722

@<SCITEGIC>MOL_PROPERTY
VdW12
SciTegic.value.DoubleValue
11.554

@<SCITEGIC>MOL_PROPERTY
Bond
SciTegic.value.DoubleValue
0.298

@<SCITEGIC>MOL_PROPERTY
Angle
SciTegic.value.DoubleValue
1.586

@<SCITEGIC>MOL_PROPERTY
Pdih
SciTegic.value.DoubleValue
2.506

@<SCITEGIC>MOL_PROPERTY
Idih
SciTegic.value.DoubleValue
0.000

@<SCITEGIC>MOL_PROPERTY
Tether
SciTegic.value.DoubleValue
0.000

@<TRIPOS>MOLECULE
guest-s15_vm2.mol2 : vm2 ligand conformer 46
          29          28           1
SMALL
USER_CHARGES
 
@<TRIPOS>ATOM
       1    C1      19.675465   20.581709   20.155408 C.3        1 MOL1        -0.2426
       2    H1      18.850492   20.327981   19.477185 H          1 MOL1         0.0959
       3    H2      19.248263   20.992534   21.078685 H          1 MOL1         0.0959
       4    H3      20.267211   21.376275   19.682826 H          1 MOL1         0.0959
       5    C2      20.558608   19.346346   20.441649 C.3        1 MOL1        -0.1410
       6    H4      21.363645   19.619244   21.136953 H          1 MOL1         0.0948
       7    H5      21.056558   19.044112   19.509807 H          1 MOL1         0.0948
       8    C3      19.763699   18.134464   20.991085 C.3        1 MOL1        -0.1435
       9    H6      19.047910   17.803525   20.226085 H          1 MOL1         0.0948
      10    H7      20.456362   17.294344   21.137784 H          1 MOL1         0.0948
      11    C4      18.994905   18.390390   22.313071 C.3        1 MOL1        -0.1435
      12    H8      18.463581   17.468611   22.587311 H          1 MOL1         0.0948
      13    H9      18.218366   19.150003   22.152743 H          1 MOL1         0.0948
      14    C5      19.908714   18.813418   23.488069 C.3        1 MOL1        -0.1435
      15    H10     20.711175   18.072861   23.600658 H          1 MOL1         0.0948
      16    H11     20.386917   19.775350   23.260950 H          1 MOL1         0.0948
      17    C6      19.115103   18.943177   24.811262 C.3        1 MOL1        -0.1500
      18    H12     18.692249   17.967977   25.087061 H          1 MOL1         0.0948
      19    H13     18.263425   19.615485   24.642823 H          1 MOL1         0.0948
      20    C7      19.951172   19.498484   25.986803 C.3        1 MOL1         0.1162
      21    H14     20.392951   20.449774   25.674553 H          1 MOL1         0.0910
      22    C8      21.087798   18.543354   26.393019 C.3        1 MOL1        -0.2491
      23    H15     20.698245   17.551652   26.654713 H          1 MOL1         0.0959
      24    H16     21.817026   18.423978   25.583466 H          1 MOL1         0.0959
      25    H17     21.630102   18.935883   27.262025 H          1 MOL1         0.0959
      26    N1      19.080537   19.804658   27.173634 N.4        1 MOL1        -0.5987
      27    H18     19.623763   20.209966   27.941320 H          1 MOL1         0.3605
      28    H19     18.627398   18.959998   27.532768 H          1 MOL1         0.3605
      29    H20     18.341873   20.473446   26.937025 H          1 MOL1         0.3605
@<TRIPOS>BOND
    1     1     2    1
    2     1     3    1
    3     1     4    1
    4     1     5    1
    5     5     6    1
    6     5     7    1
    7     5     8    1
    8     8     9    1
    9     8    10    1
   10     8    11    1
   11    11    12    1
   12    11    13    1
   13    11    14    1
   14    14    15    1
   15    14    16    1
   16    14    17    1
   17    17    18    1
   18    17    19    1
   19    17    20    1
   20    20    21    1
   21    20    22    1
   22    22    23    1
   23    22    24    1
   24    22    25    1
   25    20    26    1
   26    26    27    1
   27    26    28    1
   28    26    29    1
@<TRIPOS>SUBSTRUCTURE
       1 MOL1            1 RESIDUE      1      MOL     
@<SCITEGIC>MOL_PROPERTY
VM2 Rank
SciTegic.value.IntegerValue
46

@<SCITEGIC>MOL_PROPERTY
Conf_Id
SciTegic.value.IntegerValue
333

@<SCITEGIC>MOL_PROPERTY
Probability
SciTegic.value.DoubleValue
0.59

@<SCITEGIC>MOL_PROPERTY
Sum Probability
SciTegic.value.DoubleValue
88.70

@<SCITEGIC>MOL_PROPERTY
Delta G
SciTegic.value.DoubleValue
1.706

@<SCITEGIC>MOL_PROPERTY
G
SciTegic.value.DoubleValue
35.408

@<SCITEGIC>MOL_PROPERTY
E
SciTegic.value.DoubleValue
-2.427

@<SCITEGIC>MOL_PROPERTY
-TS
SciTegic.value.DoubleValue
37.835

@<SCITEGIC>MOL_PROPERTY
U+W
SciTegic.value.DoubleValue
-26.571

@<SCITEGIC>MOL_PROPERTY
U
SciTegic.value.DoubleValue
25.529

@<SCITEGIC>MOL_PROPERTY
W
SciTegic.value.DoubleValue
-52.100

@<SCITEGIC>MOL_PROPERTY
W(PB)
SciTegic.value.DoubleValue
-54.578

@<SCITEGIC>MOL_PROPERTY
W(SA)
SciTegic.value.DoubleValue
2.478

@<SCITEGIC>MOL_PROPERTY
Valence
SciTegic.value.DoubleValue
4.665

@<SCITEGIC>MOL_PROPERTY
Coulomb
SciTegic.value.DoubleValue
19.602

@<SCITEGIC>MOL_PROPERTY
VdW
SciTegic.value.DoubleValue
1.262

@<SCITEGIC>MOL_PROPERTY
VdW6
SciTegic.value.DoubleValue
-9.718

@<SCITEGIC>MOL_PROPERTY
VdW12
SciTegic.value.DoubleValue
10.980

@<SCITEGIC>MOL_PROPERTY
Bond
SciTegic.value.DoubleValue
0.278

@<SCITEGIC>MOL_PROPERTY
Angle
SciTegic.value.DoubleValue
1.798

@<SCITEGIC>MOL_PROPERTY
Pdih
SciTegic.value.DoubleValue
2.589

@<SCITEGIC>MOL_PROPERTY
Idih
SciTegic.value.DoubleValue
0.000

@<SCITEGIC>MOL_PROPERTY
Tether
SciTegic.value.DoubleValue
0.000

@<TRIPOS>MOLECULE
guest-s15_vm2.mol2 : vm2 ligand conformer 47
          29          28           1
SMALL
USER_CHARGES
 
@<TRIPOS>ATOM
       1    C1      19.925138   17.984504   20.181747 C.3        1 MOL1        -0.2426
       2    H1      19.407636   17.143157   19.703048 H          1 MOL1         0.0959
       3    H2      20.633056   18.402002   19.454086 H          1 MOL1         0.0959
       4    H3      20.497276   17.582599   21.027244 H          1 MOL1         0.0959
       5    C2      18.908913   19.053196   20.643486 C.3        1 MOL1        -0.1410
       6    H4      18.225155   18.618681   21.384863 H          1 MOL1         0.0948
       7    H5      18.281425   19.337729   19.787378 H          1 MOL1         0.0948
       8    C3      19.574770   20.331907   21.212853 C.3        1 MOL1        -0.1435
       9    H6      20.151633   20.817014   20.413487 H          1 MOL1         0.0948
      10    H7      18.787910   21.046325   21.491320 H          1 MOL1         0.0948
      11    C4      20.506789   20.108391   22.431774 C.3        1 MOL1        -0.1435
      12    H8      20.925941   21.079938   22.727609 H          1 MOL1         0.0948
      13    H9      21.363317   19.486953   22.138687 H          1 MOL1         0.0948
      14    C5      19.792231   19.475120   23.649450 C.3        1 MOL1        -0.1435
      15    H10     18.911077   20.078542   23.903803 H          1 MOL1         0.0948
      16    H11     19.431466   18.475170   23.379076 H          1 MOL1         0.0948
      17    C6      20.737484   19.372691   24.874683 C.3        1 MOL1        -0.1500
      18    H12     21.127809   20.370620   25.113793 H          1 MOL1         0.0948
      19    H13     21.610828   18.762545   24.608690 H          1 MOL1         0.0948
      20    C7      20.089525   18.783847   26.150029 C.3        1 MOL1         0.1162
      21    H14     20.849474   18.799304   26.937431 H          1 MOL1         0.0910
      22    C8      19.651745   17.321683   25.955234 C.3        1 MOL1        -0.2491
      23    H15     18.818302   17.238151   25.247712 H          1 MOL1         0.0959
      24    H16     20.483583   16.712143   25.580958 H          1 MOL1         0.0959
      25    H17     19.325487   16.889115   26.908980 H          1 MOL1         0.0959
      26    N1      18.949405   19.624661   26.654744 N.4        1 MOL1        -0.5987
      27    H18     18.572042   19.255381   27.532163 H          1 MOL1         0.3605
      28    H19     18.182431   19.653975   25.978425 H          1 MOL1         0.3605
      29    H20     19.243818   20.589713   26.829960 H          1 MOL1         0.3605
@<TRIPOS>BOND
    1     1     2    1
    2     1     3    1
    3     1     4    1
    4     1     5    1
    5     5     6    1
    6     5     7    1
    7     5     8    1
    8     8     9    1
    9     8    10    1
   10     8    11    1
   11    11    12    1
   12    11    13    1
   13    11    14    1
   14    14    15    1
   15    14    16    1
   16    14    17    1
   17    17    18    1
   18    17    19    1
   19    17    20    1
   20    20    21    1
   21    20    22    1
   22    22    23    1
   23    22    24    1
   24    22    25    1
   25    20    26    1
   26    26    27    1
   27    26    28    1
   28    26    29    1
@<TRIPOS>SUBSTRUCTURE
       1 MOL1            1 RESIDUE      1      MOL     
@<SCITEGIC>MOL_PROPERTY
VM2 Rank
SciTegic.value.IntegerValue
47

@<SCITEGIC>MOL_PROPERTY
Conf_Id
SciTegic.value.IntegerValue
1229

@<SCITEGIC>MOL_PROPERTY
Probability
SciTegic.value.DoubleValue
0.58

@<SCITEGIC>MOL_PROPERTY
Sum Probability
SciTegic.value.DoubleValue
89.28

@<SCITEGIC>MOL_PROPERTY
Delta G
SciTegic.value.DoubleValue
1.714

@<SCITEGIC>MOL_PROPERTY
G
SciTegic.value.DoubleValue
35.416

@<SCITEGIC>MOL_PROPERTY
E
SciTegic.value.DoubleValue
-2.556

@<SCITEGIC>MOL_PROPERTY
-TS
SciTegic.value.DoubleValue
37.972

@<SCITEGIC>MOL_PROPERTY
U+W
SciTegic.value.DoubleValue
-26.700

@<SCITEGIC>MOL_PROPERTY
U
SciTegic.value.DoubleValue
25.727

@<SCITEGIC>MOL_PROPERTY
W
SciTegic.value.DoubleValue
-52.428

@<SCITEGIC>MOL_PROPERTY
W(PB)
SciTegic.value.DoubleValue
-54.889

@<SCITEGIC>MOL_PROPERTY
W(SA)
SciTegic.value.DoubleValue
2.461

@<SCITEGIC>MOL_PROPERTY
Valence
SciTegic.value.DoubleValue
4.631

@<SCITEGIC>MOL_PROPERTY
Coulomb
SciTegic.value.DoubleValue
19.868

@<SCITEGIC>MOL_PROPERTY
VdW
SciTegic.value.DoubleValue
1.228

@<SCITEGIC>MOL_PROPERTY
VdW6
SciTegic.value.DoubleValue
-10.252

@<SCITEGIC>MOL_PROPERTY
VdW12
SciTegic.value.DoubleValue
11.480

@<SCITEGIC>MOL_PROPERTY
Bond
SciTegic.value.DoubleValue
0.304

@<SCITEGIC>MOL_PROPERTY
Angle
SciTegic.value.DoubleValue
1.851

@<SCITEGIC>MOL_PROPERTY
Pdih
SciTegic.value.DoubleValue
2.476

@<SCITEGIC>MOL_PROPERTY
Idih
SciTegic.value.DoubleValue
0.000

@<SCITEGIC>MOL_PROPERTY
Tether
SciTegic.value.DoubleValue
0.000

@<TRIPOS>MOLECULE
guest-s15_vm2.mol2 : vm2 ligand conformer 48
          29          28           1
SMALL
USER_CHARGES
 
@<TRIPOS>ATOM
       1    C1      19.442181   17.937185   20.146891 C.3        1 MOL1        -0.2426
       2    H1      19.889547   17.075100   19.635516 H          1 MOL1         0.0959
       3    H2      18.970589   17.567884   21.066104 H          1 MOL1         0.0959
       4    H3      18.657171   18.344032   19.496367 H          1 MOL1         0.0959
       5    C2      20.518002   19.003692   20.452173 C.3        1 MOL1        -0.1410
       6    H4      21.042024   19.254434   19.519348 H          1 MOL1         0.0948
       7    H5      21.280498   18.580638   21.119701 H          1 MOL1         0.0948
       8    C3      19.939058   20.307788   21.057829 C.3        1 MOL1        -0.1435
       9    H6      20.761471   21.018176   21.219356 H          1 MOL1         0.0948
      10    H7      19.276685   20.778300   20.318244 H          1 MOL1         0.0948
      11    C4      19.156227   20.133164   22.384893 C.3        1 MOL1        -0.1435
      12    H8      18.264616   19.515179   22.214955 H          1 MOL1         0.0948
      13    H9      18.785099   21.118844   22.697629 H          1 MOL1         0.0948
      14    C5      20.003924   19.526123   23.528468 C.3        1 MOL1        -0.1435
      15    H10     20.322665   18.515250   23.246480 H          1 MOL1         0.0948
      16    H11     20.914626   20.124862   23.667425 H          1 MOL1         0.0948
      17    C6      19.213607   19.470050   24.858883 C.3        1 MOL1        -0.1500
      18    H12     18.333942   18.823600   24.739720 H          1 MOL1         0.0948
      19    H13     18.833023   20.475474   25.082319 H          1 MOL1         0.0948
      20    C7      20.054314   18.987703   26.063055 C.3        1 MOL1         0.1162
      21    H14     20.945418   19.618939   26.134447 H          1 MOL1         0.0910
      22    C8      20.504808   17.523951   25.908295 C.3        1 MOL1        -0.2491
      23    H15     21.050112   17.191408   26.800153 H          1 MOL1         0.0959
      24    H16     19.645194   16.857020   25.766954 H          1 MOL1         0.0959
      25    H17     21.179240   17.402108   25.052935 H          1 MOL1         0.0959
      26    N1      19.303880   19.166344   27.353513 N.4        1 MOL1        -0.5987
      27    H18     19.871508   18.885294   28.158197 H          1 MOL1         0.3605
      28    H19     18.449618   18.602694   27.370457 H          1 MOL1         0.3605
      29    H20     19.031448   20.142783   27.499264 H          1 MOL1         0.3605
@<TRIPOS>BOND
    1     1     2    1
    2     1     3    1
    3     1     4    1
    4     1     5    1
    5     5     6    1
    6     5     7    1
    7     5     8    1
    8     8     9    1
    9     8    10    1
   10     8    11    1
   11    11    12    1
   12    11    13    1
   13    11    14    1
   14    14    15    1
   15    14    16    1
   16    14    17    1
   17    17    18    1
   18    17    19    1
   19    17    20    1
   20    20    21    1
   21    20    22    1
   22    22    23    1
   23    22    24    1
   24    22    25    1
   25    20    26    1
   26    26    27    1
   27    26    28    1
   28    26    29    1
@<TRIPOS>SUBSTRUCTURE
       1 MOL1            1 RESIDUE      1      MOL     
@<SCITEGIC>MOL_PROPERTY
VM2 Rank
SciTegic.value.IntegerValue
48

@<SCITEGIC>MOL_PROPERTY
Conf_Id
SciTegic.value.IntegerValue
588

@<SCITEGIC>MOL_PROPERTY
Probability
SciTegic.value.DoubleValue
0.57

@<SCITEGIC>MOL_PROPERTY
Sum Probability
SciTegic.value.DoubleValue
89.85

@<SCITEGIC>MOL_PROPERTY
Delta G
SciTegic.value.DoubleValue
1.732

@<SCITEGIC>MOL_PROPERTY
G
SciTegic.value.DoubleValue
35.435

@<SCITEGIC>MOL_PROPERTY
E
SciTegic.value.DoubleValue
-2.402

@<SCITEGIC>MOL_PROPERTY
-TS
SciTegic.value.DoubleValue
37.836

@<SCITEGIC>MOL_PROPERTY
U+W
SciTegic.value.DoubleValue
-26.546

@<SCITEGIC>MOL_PROPERTY
U
SciTegic.value.DoubleValue
25.494

@<SCITEGIC>MOL_PROPERTY
W
SciTegic.value.DoubleValue
-52.040

@<SCITEGIC>MOL_PROPERTY
W(PB)
SciTegic.value.DoubleValue
-54.512

@<SCITEGIC>MOL_PROPERTY
W(SA)
SciTegic.value.DoubleValue
2.472

@<SCITEGIC>MOL_PROPERTY
Valence
SciTegic.value.DoubleValue
4.662

@<SCITEGIC>MOL_PROPERTY
Coulomb
SciTegic.value.DoubleValue
19.569

@<SCITEGIC>MOL_PROPERTY
VdW
SciTegic.value.DoubleValue
1.262

@<SCITEGIC>MOL_PROPERTY
VdW6
SciTegic.value.DoubleValue
-9.758

@<SCITEGIC>MOL_PROPERTY
VdW12
SciTegic.value.DoubleValue
11.020

@<SCITEGIC>MOL_PROPERTY
Bond
SciTegic.value.DoubleValue
0.281

@<SCITEGIC>MOL_PROPERTY
Angle
SciTegic.value.DoubleValue
1.806

@<SCITEGIC>MOL_PROPERTY
Pdih
SciTegic.value.DoubleValue
2.576

@<SCITEGIC>MOL_PROPERTY
Idih
SciTegic.value.DoubleValue
0.000

@<SCITEGIC>MOL_PROPERTY
Tether
SciTegic.value.DoubleValue
0.000

@<TRIPOS>MOLECULE
guest-s15_vm2.mol2 : vm2 ligand conformer 49
          29          28           1
SMALL
USER_CHARGES
 
@<TRIPOS>ATOM
       1    C1      19.736260   20.242798   19.595580 C.3        1 MOL1        -0.2426
       2    H1      18.776012   20.599850   19.988042 H          1 MOL1         0.0959
       3    H2      20.522177   20.933516   19.927624 H          1 MOL1         0.0959
       4    H3      19.684903   20.293814   18.500286 H          1 MOL1         0.0959
       5    C2      20.035192   18.798285   20.056447 C.3        1 MOL1        -0.1410
       6    H4      20.942667   18.444215   19.547665 H          1 MOL1         0.0948
       7    H5      19.222519   18.132133   19.734721 H          1 MOL1         0.0948
       8    C3      20.241079   18.672817   21.585146 C.3        1 MOL1        -0.1435
       9    H6      20.546834   17.642448   21.813012 H          1 MOL1         0.0948
      10    H7      21.074805   19.319536   21.888415 H          1 MOL1         0.0948
      11    C4      18.972447   19.018495   22.405088 C.3        1 MOL1        -0.1435
      12    H8      18.120865   18.453587   22.001633 H          1 MOL1         0.0948
      13    H9      18.724199   20.081273   22.284711 H          1 MOL1         0.0948
      14    C5      19.106395   18.694555   23.913252 C.3        1 MOL1        -0.1435
      15    H10     18.131607   18.867183   24.387685 H          1 MOL1         0.0948
      16    H11     19.324655   17.625038   24.032220 H          1 MOL1         0.0948
      17    C6      20.191188   19.544769   24.629145 C.3        1 MOL1        -0.1500
      18    H12     20.019118   20.607132   24.412260 H          1 MOL1         0.0948
      19    H13     21.179273   19.306602   24.215980 H          1 MOL1         0.0948
      20    C7      20.251164   19.361537   26.164008 C.3        1 MOL1         0.1162
      21    H14     21.041511   20.019014   26.539291 H          1 MOL1         0.0910
      22    C8      20.617143   17.920432   26.559586 C.3        1 MOL1        -0.2491
      23    H15     20.783125   17.850035   27.641568 H          1 MOL1         0.0959
      24    H16     19.821502   17.213431   26.296037 H          1 MOL1         0.0959
      25    H17     21.540320   17.601562   26.059937 H          1 MOL1         0.0959
      26    N1      18.985133   19.802312   26.845749 N.4        1 MOL1        -0.5987
      27    H18     18.757287   20.775210   26.621593 H          1 MOL1         0.3605
      28    H19     19.065319   19.733394   27.864306 H          1 MOL1         0.3605
      29    H20     18.189755   19.225622   26.560695 H          1 MOL1         0.3605
@<TRIPOS>BOND
    1     1     2    1
    2     1     3    1
    3     1     4    1
    4     1     5    1
    5     5     6    1
    6     5     7    1
    7     5     8    1
    8     8     9    1
    9     8    10    1
   10     8    11    1
   11    11    12    1
   12    11    13    1
   13    11    14    1
   14    14    15    1
   15    14    16    1
   16    14    17    1
   17    17    18    1
   18    17    19    1
   19    17    20    1
   20    20    21    1
   21    20    22    1
   22    22    23    1
   23    22    24    1
   24    22    25    1
   25    20    26    1
   26    26    27    1
   27    26    28    1
   28    26    29    1
@<TRIPOS>SUBSTRUCTURE
       1 MOL1            1 RESIDUE      1      MOL     
@<SCITEGIC>MOL_PROPERTY
VM2 Rank
SciTegic.value.IntegerValue
49

@<SCITEGIC>MOL_PROPERTY
Conf_Id
SciTegic.value.IntegerValue
1582

@<SCITEGIC>MOL_PROPERTY
Probability
SciTegic.value.DoubleValue
0.56

@<SCITEGIC>MOL_PROPERTY
Sum Probability
SciTegic.value.DoubleValue
90.40

@<SCITEGIC>MOL_PROPERTY
Delta G
SciTegic.value.DoubleValue
1.744

@<SCITEGIC>MOL_PROPERTY
G
SciTegic.value.DoubleValue
35.447

@<SCITEGIC>MOL_PROPERTY
E
SciTegic.value.DoubleValue
-2.333

@<SCITEGIC>MOL_PROPERTY
-TS
SciTegic.value.DoubleValue
37.780

@<SCITEGIC>MOL_PROPERTY
U+W
SciTegic.value.DoubleValue
-26.477

@<SCITEGIC>MOL_PROPERTY
U
SciTegic.value.DoubleValue
25.725

@<SCITEGIC>MOL_PROPERTY
W
SciTegic.value.DoubleValue
-52.203

@<SCITEGIC>MOL_PROPERTY
W(PB)
SciTegic.value.DoubleValue
-54.669

@<SCITEGIC>MOL_PROPERTY
W(SA)
SciTegic.value.DoubleValue
2.467

@<SCITEGIC>MOL_PROPERTY
Valence
SciTegic.value.DoubleValue
4.677

@<SCITEGIC>MOL_PROPERTY
Coulomb
SciTegic.value.DoubleValue
19.669

@<SCITEGIC>MOL_PROPERTY
VdW
SciTegic.value.DoubleValue
1.379

@<SCITEGIC>MOL_PROPERTY
VdW6
SciTegic.value.DoubleValue
-9.934

@<SCITEGIC>MOL_PROPERTY
VdW12
SciTegic.value.DoubleValue
11.313

@<SCITEGIC>MOL_PROPERTY
Bond
SciTegic.value.DoubleValue
0.305

@<SCITEGIC>MOL_PROPERTY
Angle
SciTegic.value.DoubleValue
1.629

@<SCITEGIC>MOL_PROPERTY
Pdih
SciTegic.value.DoubleValue
2.742

@<SCITEGIC>MOL_PROPERTY
Idih
SciTegic.value.DoubleValue
0.000

@<SCITEGIC>MOL_PROPERTY
Tether
SciTegic.value.DoubleValue
0.000

@<TRIPOS>MOLECULE
guest-s15_vm2.mol2 : vm2 ligand conformer 50
          29          28           1
SMALL
USER_CHARGES
 
@<TRIPOS>ATOM
       1    C1      18.725795   18.968587   19.590515 C.3        1 MOL1        -0.2426
       2    H1      18.830780   17.913534   19.872384 H          1 MOL1         0.0959
       3    H2      17.794077   19.350635   20.027502 H          1 MOL1         0.0959
       4    H3      18.626406   19.010318   18.498133 H          1 MOL1         0.0959
       5    C2      19.940575   19.803138   20.055508 C.3        1 MOL1        -0.1410
       6    H4      19.846884   20.821208   19.652397 H          1 MOL1         0.0948
       7    H5      20.861859   19.385830   19.625617 H          1 MOL1         0.0948
       8    C3      20.072603   19.887995   21.595158 C.3        1 MOL1        -0.1435
       9    H6      20.894547   20.575477   21.837717 H          1 MOL1         0.0948
      10    H7      19.159272   20.336094   22.007490 H          1 MOL1         0.0948
      11    C4      20.344281   18.516224   22.263165 C.3        1 MOL1        -0.1435
      12    H8      21.178864   18.026272   21.743016 H          1 MOL1         0.0948
      13    H9      19.473898   17.858144   22.140431 H          1 MOL1         0.0948
      14    C5      20.697870   18.617763   23.767582 C.3        1 MOL1        -0.1435
      15    H10     21.003987   17.620499   24.108355 H          1 MOL1         0.0948
      16    H11     21.571676   19.271214   23.896872 H          1 MOL1         0.0948
      17    C6      19.526065   19.130783   24.644624 C.3        1 MOL1        -0.1500
      18    H12     18.656663   18.470887   24.524690 H          1 MOL1         0.0948
      19    H13     19.218297   20.120352   24.285881 H          1 MOL1         0.0948
      20    C7      19.879861   19.257044   26.144388 C.3        1 MOL1         0.1162
      21    H14     20.783243   19.868208   26.233835 H          1 MOL1         0.0910
      22    C8      20.148981   17.889243   26.797445 C.3        1 MOL1        -0.2491
      23    H15     19.292727   17.214681   26.672938 H          1 MOL1         0.0959
      24    H16     21.033068   17.406591   26.365647 H          1 MOL1         0.0959
      25    H17     20.336849   18.004913   27.872012 H          1 MOL1         0.0959
      26    N1      18.799970   19.985223   26.895616 N.4        1 MOL1        -0.5987
      27    H18     18.633542   20.918144   26.507271 H          1 MOL1         0.3605
      28    H19     19.047083   20.105811   27.882086 H          1 MOL1         0.3605
      29    H20     17.912971   19.475369   26.863080 H          1 MOL1         0.3605
@<TRIPOS>BOND
    1     1     2    1
    2     1     3    1
    3     1     4    1
    4     1     5    1
    5     5     6    1
    6     5     7    1
    7     5     8    1
    8     8     9    1
    9     8    10    1
   10     8    11    1
   11    11    12    1
   12    11    13    1
   13    11    14    1
   14    14    15    1
   15    14    16    1
   16    14    17    1
   17    17    18    1
   18    17    19    1
   19    17    20    1
   20    20    21    1
   21    20    22    1
   22    22    23    1
   23    22    24    1
   24    22    25    1
   25    20    26    1
   26    26    27    1
   27    26    28    1
   28    26    29    1
@<TRIPOS>SUBSTRUCTURE
       1 MOL1            1 RESIDUE      1      MOL     
@<SCITEGIC>MOL_PROPERTY
VM2 Rank
SciTegic.value.IntegerValue
50

@<SCITEGIC>MOL_PROPERTY
Conf_Id
SciTegic.value.IntegerValue
66

@<SCITEGIC>MOL_PROPERTY
Probability
SciTegic.value.DoubleValue
0.53

@<SCITEGIC>MOL_PROPERTY
Sum Probability
SciTegic.value.DoubleValue
90.93

@<SCITEGIC>MOL_PROPERTY
Delta G
SciTegic.value.DoubleValue
1.771

@<SCITEGIC>MOL_PROPERTY
G
SciTegic.value.DoubleValue
35.473

@<SCITEGIC>MOL_PROPERTY
E
SciTegic.value.DoubleValue
-2.097

@<SCITEGIC>MOL_PROPERTY
-TS
SciTegic.value.DoubleValue
37.570

@<SCITEGIC>MOL_PROPERTY
U+W
SciTegic.value.DoubleValue
-26.241

@<SCITEGIC>MOL_PROPERTY
U
SciTegic.value.DoubleValue
25.974

@<SCITEGIC>MOL_PROPERTY
W
SciTegic.value.DoubleValue
-52.215

@<SCITEGIC>MOL_PROPERTY
W(PB)
SciTegic.value.DoubleValue
-54.707

@<SCITEGIC>MOL_PROPERTY
W(SA)
SciTegic.value.DoubleValue
2.492

@<SCITEGIC>MOL_PROPERTY
Valence
SciTegic.value.DoubleValue
4.812

@<SCITEGIC>MOL_PROPERTY
Coulomb
SciTegic.value.DoubleValue
19.700

@<SCITEGIC>MOL_PROPERTY
VdW
SciTegic.value.DoubleValue
1.463

@<SCITEGIC>MOL_PROPERTY
VdW6
SciTegic.value.DoubleValue
-9.391

@<SCITEGIC>MOL_PROPERTY
VdW12
SciTegic.value.DoubleValue
10.854

@<SCITEGIC>MOL_PROPERTY
Bond
SciTegic.value.DoubleValue
0.285

@<SCITEGIC>MOL_PROPERTY
Angle
SciTegic.value.DoubleValue
1.671

@<SCITEGIC>MOL_PROPERTY
Pdih
SciTegic.value.DoubleValue
2.856

@<SCITEGIC>MOL_PROPERTY
Idih
SciTegic.value.DoubleValue
0.000

@<SCITEGIC>MOL_PROPERTY
Tether
SciTegic.value.DoubleValue
0.000

@<TRIPOS>MOLECULE
guest-s15_vm2.mol2 : vm2 ligand conformer 51
          29          28           1
SMALL
USER_CHARGES
 
@<TRIPOS>ATOM
       1    C1      20.140285   19.162229   19.204050 C.3        1 MOL1        -0.2426
       2    H1      20.955558   19.850282   19.459215 H          1 MOL1         0.0959
       3    H2      20.541357   18.140420   19.196051 H          1 MOL1         0.0959
       4    H3      19.814054   19.402602   18.183891 H          1 MOL1         0.0959
       5    C2      18.958822   19.287854   20.192620 C.3        1 MOL1        -0.1410
       6    H4      18.123206   18.677747   19.822098 H          1 MOL1         0.0948
       7    H5      18.598008   20.325774   20.208470 H          1 MOL1         0.0948
       8    C3      19.305093   18.831671   21.630689 C.3        1 MOL1        -0.1435
       9    H6      18.377549   18.828202   22.217354 H          1 MOL1         0.0948
      10    H7      19.663138   17.793230   21.609610 H          1 MOL1         0.0948
      11    C4      20.355347   19.733536   22.327628 C.3        1 MOL1        -0.1435
      12    H8      19.996464   20.771659   22.349864 H          1 MOL1         0.0948
      13    H9      21.280980   19.739329   21.737884 H          1 MOL1         0.0948
      14    C5      20.706807   19.274280   23.764229 C.3        1 MOL1        -0.1435
      15    H10     21.078850   18.241798   23.729192 H          1 MOL1         0.0948
      16    H11     21.537473   19.891900   24.132966 H          1 MOL1         0.0948
      17    C6      19.520252   19.383137   24.756510 C.3        1 MOL1        -0.1500
      18    H12     18.735738   18.664622   24.487789 H          1 MOL1         0.0948
      19    H13     19.075936   20.382814   24.663074 H          1 MOL1         0.0948
      20    C7      19.926677   19.163692   26.231439 C.3        1 MOL1         0.1162
      21    H14     20.732462   19.863605   26.473188 H          1 MOL1         0.0910
      22    C8      20.432117   17.732213   26.485414 C.3        1 MOL1        -0.2491
      23    H15     21.347607   17.526488   25.918748 H          1 MOL1         0.0959
      24    H16     20.668485   17.588632   27.546947 H          1 MOL1         0.0959
      25    H17     19.677125   16.988579   26.201329 H          1 MOL1         0.0959
      26    N1      18.790600   19.487388   27.161421 N.4        1 MOL1        -0.5987
      27    H18     17.989453   18.870510   27.002242 H          1 MOL1         0.3605
      28    H19     18.466301   20.451144   27.039368 H          1 MOL1         0.3605
      29    H20     19.067950   19.381365   28.141501 H          1 MOL1         0.3605
@<TRIPOS>BOND
    1     1     2    1
    2     1     3    1
    3     1     4    1
    4     1     5    1
    5     5     6    1
    6     5     7    1
    7     5     8    1
    8     8     9    1
    9     8    10    1
   10     8    11    1
   11    11    12    1
   12    11    13    1
   13    11    14    1
   14    14    15    1
   15    14    16    1
   16    14    17    1
   17    17    18    1
   18    17    19    1
   19    17    20    1
   20    20    21    1
   21    20    22    1
   22    22    23    1
   23    22    24    1
   24    22    25    1
   25    20    26    1
   26    26    27    1
   27    26    28    1
   28    26    29    1
@<TRIPOS>SUBSTRUCTURE
       1 MOL1            1 RESIDUE      1      MOL     
@<SCITEGIC>MOL_PROPERTY
VM2 Rank
SciTegic.value.IntegerValue
51

@<SCITEGIC>MOL_PROPERTY
Conf_Id
SciTegic.value.IntegerValue
1341

@<SCITEGIC>MOL_PROPERTY
Probability
SciTegic.value.DoubleValue
0.51

@<SCITEGIC>MOL_PROPERTY
Sum Probability
SciTegic.value.DoubleValue
91.45

@<SCITEGIC>MOL_PROPERTY
Delta G
SciTegic.value.DoubleValue
1.793

@<SCITEGIC>MOL_PROPERTY
G
SciTegic.value.DoubleValue
35.495

@<SCITEGIC>MOL_PROPERTY
E
SciTegic.value.DoubleValue
-2.102

@<SCITEGIC>MOL_PROPERTY
-TS
SciTegic.value.DoubleValue
37.597

@<SCITEGIC>MOL_PROPERTY
U+W
SciTegic.value.DoubleValue
-26.247

@<SCITEGIC>MOL_PROPERTY
U
SciTegic.value.DoubleValue
25.821

@<SCITEGIC>MOL_PROPERTY
W
SciTegic.value.DoubleValue
-52.068

@<SCITEGIC>MOL_PROPERTY
W(PB)
SciTegic.value.DoubleValue
-54.582

@<SCITEGIC>MOL_PROPERTY
W(SA)
SciTegic.value.DoubleValue
2.514

@<SCITEGIC>MOL_PROPERTY
Valence
SciTegic.value.DoubleValue
4.779

@<SCITEGIC>MOL_PROPERTY
Coulomb
SciTegic.value.DoubleValue
19.614

@<SCITEGIC>MOL_PROPERTY
VdW
SciTegic.value.DoubleValue
1.428

@<SCITEGIC>MOL_PROPERTY
VdW6
SciTegic.value.DoubleValue
-9.390

@<SCITEGIC>MOL_PROPERTY
VdW12
SciTegic.value.DoubleValue
10.818

@<SCITEGIC>MOL_PROPERTY
Bond
SciTegic.value.DoubleValue
0.283

@<SCITEGIC>MOL_PROPERTY
Angle
SciTegic.value.DoubleValue
1.640

@<SCITEGIC>MOL_PROPERTY
Pdih
SciTegic.value.DoubleValue
2.856

@<SCITEGIC>MOL_PROPERTY
Idih
SciTegic.value.DoubleValue
0.000

@<SCITEGIC>MOL_PROPERTY
Tether
SciTegic.value.DoubleValue
0.000

@<TRIPOS>MOLECULE
guest-s15_vm2.mol2 : vm2 ligand conformer 52
          29          28           1
SMALL
USER_CHARGES
 
@<TRIPOS>ATOM
       1    C1      19.326988   20.625891   19.868595 C.3        1 MOL1        -0.2426
       2    H1      19.904276   21.508533   19.564145 H          1 MOL1         0.0959
       3    H2      19.121833   20.030904   18.969087 H          1 MOL1         0.0959
       4    H3      18.368199   20.973647   20.274796 H          1 MOL1         0.0959
       5    C2      20.105183   19.800254   20.914770 C.3        1 MOL1        -0.1410
       6    H4      20.325670   20.439299   21.780153 H          1 MOL1         0.0948
       7    H5      21.071022   19.491555   20.491129 H          1 MOL1         0.0948
       8    C3      19.308991   18.552238   21.362982 C.3        1 MOL1        -0.1435
       9    H6      18.361880   18.861298   21.824167 H          1 MOL1         0.0948
      10    H7      19.032367   17.968267   20.474356 H          1 MOL1         0.0948
      11    C4      20.094462   17.626094   22.327610 C.3        1 MOL1        -0.1435
      12    H8      20.964424   17.217929   21.794902 H          1 MOL1         0.0948
      13    H9      19.463979   16.761670   22.577463 H          1 MOL1         0.0948
      14    C5      20.584855   18.287023   23.642399 C.3        1 MOL1        -0.1435
      15    H10     21.138839   17.527857   24.208951 H          1 MOL1         0.0948
      16    H11     21.307515   19.082079   23.416110 H          1 MOL1         0.0948
      17    C6      19.437281   18.854780   24.517512 C.3        1 MOL1        -0.1500
      18    H12     18.722383   18.056149   24.755695 H          1 MOL1         0.0948
      19    H13     18.886029   19.605307   23.938064 H          1 MOL1         0.0948
      20    C7      19.923152   19.525387   25.823007 C.3        1 MOL1         0.1162
      21    H14     20.679052   20.273219   25.564225 H          1 MOL1         0.0910
      22    C8      20.550608   18.514366   26.799666 C.3        1 MOL1        -0.2491
      23    H15     20.829593   19.007364   27.739072 H          1 MOL1         0.0959
      24    H16     19.849936   17.703964   27.036340 H          1 MOL1         0.0959
      25    H17     21.462836   18.070545   26.385120 H          1 MOL1         0.0959
      26    N1      18.804480   20.269968   26.497460 N.4        1 MOL1        -0.5987
      27    H18     19.129941   20.748330   27.342422 H          1 MOL1         0.3605
      28    H19     18.049357   19.637619   26.776209 H          1 MOL1         0.3605
      29    H20     18.399441   20.981109   25.881797 H          1 MOL1         0.3605
@<TRIPOS>BOND
    1     1     2    1
    2     1     3    1
    3     1     4    1
    4     1     5    1
    5     5     6    1
    6     5     7    1
    7     5     8    1
    8     8     9    1
    9     8    10    1
   10     8    11    1
   11    11    12    1
   12    11    13    1
   13    11    14    1
   14    14    15    1
   15    14    16    1
   16    14    17    1
   17    17    18    1
   18    17    19    1
   19    17    20    1
   20    20    21    1
   21    20    22    1
   22    22    23    1
   23    22    24    1
   24    22    25    1
   25    20    26    1
   26    26    27    1
   27    26    28    1
   28    26    29    1
@<TRIPOS>SUBSTRUCTURE
       1 MOL1            1 RESIDUE      1      MOL     
@<SCITEGIC>MOL_PROPERTY
VM2 Rank
SciTegic.value.IntegerValue
52

@<SCITEGIC>MOL_PROPERTY
Conf_Id
SciTegic.value.IntegerValue
1279

@<SCITEGIC>MOL_PROPERTY
Probability
SciTegic.value.DoubleValue
0.47

@<SCITEGIC>MOL_PROPERTY
Sum Probability
SciTegic.value.DoubleValue
91.92

@<SCITEGIC>MOL_PROPERTY
Delta G
SciTegic.value.DoubleValue
1.842

@<SCITEGIC>MOL_PROPERTY
G
SciTegic.value.DoubleValue
35.544

@<SCITEGIC>MOL_PROPERTY
E
SciTegic.value.DoubleValue
-2.258

@<SCITEGIC>MOL_PROPERTY
-TS
SciTegic.value.DoubleValue
37.802

@<SCITEGIC>MOL_PROPERTY
U+W
SciTegic.value.DoubleValue
-26.403

@<SCITEGIC>MOL_PROPERTY
U
SciTegic.value.DoubleValue
26.111

@<SCITEGIC>MOL_PROPERTY
W
SciTegic.value.DoubleValue
-52.514

@<SCITEGIC>MOL_PROPERTY
W(PB)
SciTegic.value.DoubleValue
-54.997

@<SCITEGIC>MOL_PROPERTY
W(SA)
SciTegic.value.DoubleValue
2.483

@<SCITEGIC>MOL_PROPERTY
Valence
SciTegic.value.DoubleValue
4.790

@<SCITEGIC>MOL_PROPERTY
Coulomb
SciTegic.value.DoubleValue
20.049

@<SCITEGIC>MOL_PROPERTY
VdW
SciTegic.value.DoubleValue
1.273

@<SCITEGIC>MOL_PROPERTY
VdW6
SciTegic.value.DoubleValue
-9.803

@<SCITEGIC>MOL_PROPERTY
VdW12
SciTegic.value.DoubleValue
11.076

@<SCITEGIC>MOL_PROPERTY
Bond
SciTegic.value.DoubleValue
0.295

@<SCITEGIC>MOL_PROPERTY
Angle
SciTegic.value.DoubleValue
1.941

@<SCITEGIC>MOL_PROPERTY
Pdih
SciTegic.value.DoubleValue
2.554

@<SCITEGIC>MOL_PROPERTY
Idih
SciTegic.value.DoubleValue
0.000

@<SCITEGIC>MOL_PROPERTY
Tether
SciTegic.value.DoubleValue
0.000

@<TRIPOS>MOLECULE
guest-s15_vm2.mol2 : vm2 ligand conformer 53
          29          28           1
SMALL
USER_CHARGES
 
@<TRIPOS>ATOM
       1    C1      19.003627   20.470498   20.378596 C.3        1 MOL1        -0.2426
       2    H1      18.044113   20.843612   19.997885 H          1 MOL1         0.0959
       3    H2      19.236584   21.030368   21.292910 H          1 MOL1         0.0959
       4    H3      19.773756   20.697519   19.630062 H          1 MOL1         0.0959
       5    C2      18.924483   18.951288   20.650166 C.3        1 MOL1        -0.1410
       6    H4      18.574499   18.446916   19.738716 H          1 MOL1         0.0948
       7    H5      18.162528   18.750572   21.415060 H          1 MOL1         0.0948
       8    C3      20.280823   18.328243   21.068152 C.3        1 MOL1        -0.1435
       9    H6      20.143517   17.248104   21.214918 H          1 MOL1         0.0948
      10    H7      20.989629   18.430422   20.234940 H          1 MOL1         0.0948
      11    C4      20.923538   18.932339   22.343420 C.3        1 MOL1        -0.1435
      12    H8      21.173559   19.987720   22.172005 H          1 MOL1         0.0948
      13    H9      21.879263   18.421044   22.523141 H          1 MOL1         0.0948
      14    C5      20.036850   18.801574   23.604765 C.3        1 MOL1        -0.1435
      15    H10     19.109706   19.369971   23.461054 H          1 MOL1         0.0948
      16    H11     19.753379   17.748986   23.734616 H          1 MOL1         0.0948
      17    C6      20.769710   19.314670   24.871579 C.3        1 MOL1        -0.1500
      18    H12     21.097148   20.349168   24.704106 H          1 MOL1         0.0948
      19    H13     21.685861   18.728697   25.023311 H          1 MOL1         0.0948
      20    C7      19.932031   19.271581   26.171411 C.3        1 MOL1         0.1162
      21    H14     20.554590   19.681018   26.972998 H          1 MOL1         0.0910
      22    C8      19.550503   17.834425   26.566742 C.3        1 MOL1        -0.2491
      23    H15     18.844960   17.391286   25.853948 H          1 MOL1         0.0959
      24    H16     20.439971   17.193977   26.614162 H          1 MOL1         0.0959
      25    H17     19.078457   17.821708   27.556793 H          1 MOL1         0.0959
      26    N1      18.714435   20.151382   26.099171 N.4        1 MOL1        -0.5987
      27    H18     18.963990   21.120100   25.880051 H          1 MOL1         0.3605
      28    H19     18.205981   20.159654   26.988039 H          1 MOL1         0.3605
      29    H20     18.065757   19.828506   25.377063 H          1 MOL1         0.3605
@<TRIPOS>BOND
    1     1     2    1
    2     1     3    1
    3     1     4    1
    4     1     5    1
    5     5     6    1
    6     5     7    1
    7     5     8    1
    8     8     9    1
    9     8    10    1
   10     8    11    1
   11    11    12    1
   12    11    13    1
   13    11    14    1
   14    14    15    1
   15    14    16    1
   16    14    17    1
   17    17    18    1
   18    17    19    1
   19    17    20    1
   20    20    21    1
   21    20    22    1
   22    22    23    1
   23    22    24    1
   24    22    25    1
   25    20    26    1
   26    26    27    1
   27    26    28    1
   28    26    29    1
@<TRIPOS>SUBSTRUCTURE
       1 MOL1            1 RESIDUE      1      MOL     
@<SCITEGIC>MOL_PROPERTY
VM2 Rank
SciTegic.value.IntegerValue
53

@<SCITEGIC>MOL_PROPERTY
Conf_Id
SciTegic.value.IntegerValue
218

@<SCITEGIC>MOL_PROPERTY
Probability
SciTegic.value.DoubleValue
0.47

@<SCITEGIC>MOL_PROPERTY
Sum Probability
SciTegic.value.DoubleValue
92.38

@<SCITEGIC>MOL_PROPERTY
Delta G
SciTegic.value.DoubleValue
1.847

@<SCITEGIC>MOL_PROPERTY
G
SciTegic.value.DoubleValue
35.550

@<SCITEGIC>MOL_PROPERTY
E
SciTegic.value.DoubleValue
-2.422

@<SCITEGIC>MOL_PROPERTY
-TS
SciTegic.value.DoubleValue
37.972

@<SCITEGIC>MOL_PROPERTY
U+W
SciTegic.value.DoubleValue
-26.566

@<SCITEGIC>MOL_PROPERTY
U
SciTegic.value.DoubleValue
25.998

@<SCITEGIC>MOL_PROPERTY
W
SciTegic.value.DoubleValue
-52.564

@<SCITEGIC>MOL_PROPERTY
W(PB)
SciTegic.value.DoubleValue
-55.004

@<SCITEGIC>MOL_PROPERTY
W(SA)
SciTegic.value.DoubleValue
2.440

@<SCITEGIC>MOL_PROPERTY
Valence
SciTegic.value.DoubleValue
4.627

@<SCITEGIC>MOL_PROPERTY
Coulomb
SciTegic.value.DoubleValue
20.145

@<SCITEGIC>MOL_PROPERTY
VdW
SciTegic.value.DoubleValue
1.225

@<SCITEGIC>MOL_PROPERTY
VdW6
SciTegic.value.DoubleValue
-10.242

@<SCITEGIC>MOL_PROPERTY
VdW12
SciTegic.value.DoubleValue
11.467

@<SCITEGIC>MOL_PROPERTY
Bond
SciTegic.value.DoubleValue
0.303

@<SCITEGIC>MOL_PROPERTY
Angle
SciTegic.value.DoubleValue
1.847

@<SCITEGIC>MOL_PROPERTY
Pdih
SciTegic.value.DoubleValue
2.477

@<SCITEGIC>MOL_PROPERTY
Idih
SciTegic.value.DoubleValue
0.000

@<SCITEGIC>MOL_PROPERTY
Tether
SciTegic.value.DoubleValue
0.000

@<TRIPOS>MOLECULE
guest-s15_vm2.mol2 : vm2 ligand conformer 54
          29          28           1
SMALL
USER_CHARGES
 
@<TRIPOS>ATOM
       1    C1      20.895917   19.018670   19.797870 C.3        1 MOL1        -0.2426
       2    H1      20.949417   20.007415   19.323818 H          1 MOL1         0.0959
       3    H2      21.856125   18.824380   20.293302 H          1 MOL1         0.0959
       4    H3      20.768581   18.271067   19.004219 H          1 MOL1         0.0959
       5    C2      19.728587   18.948344   20.804874 C.3        1 MOL1        -0.1410
       6    H4      19.682676   17.935851   21.227349 H          1 MOL1         0.0948
       7    H5      18.779987   19.116452   20.276206 H          1 MOL1         0.0948
       8    C3      19.887704   19.991774   21.935379 C.3        1 MOL1        -0.1435
       9    H6      20.820158   19.805171   22.484183 H          1 MOL1         0.0948
      10    H7      19.996329   20.988844   21.486811 H          1 MOL1         0.0948
      11    C4      18.689337   20.027071   22.918483 C.3        1 MOL1        -0.1435
      12    H8      17.784365   20.312745   22.364776 H          1 MOL1         0.0948
      13    H9      18.854548   20.831605   23.647396 H          1 MOL1         0.0948
      14    C5      18.411629   18.697692   23.670962 C.3        1 MOL1        -0.1435
      15    H10     17.563456   18.848385   24.352045 H          1 MOL1         0.0948
      16    H11     18.074955   17.936113   22.955155 H          1 MOL1         0.0948
      17    C6      19.618821   18.137495   24.469180 C.3        1 MOL1        -0.1500
      18    H12     20.401252   17.825107   23.765695 H          1 MOL1         0.0948
      19    H13     19.306861   17.225893   24.995808 H          1 MOL1         0.0948
      20    C7      20.219021   19.134706   25.484527 C.3        1 MOL1         0.1162
      21    H14     20.520988   20.036424   24.943509 H          1 MOL1         0.0910
      22    C8      21.466581   18.534589   26.151435 C.3        1 MOL1        -0.2491
      23    H15     21.218107   17.625298   26.712996 H          1 MOL1         0.0959
      24    H16     22.223540   18.276369   25.400385 H          1 MOL1         0.0959
      25    H17     21.918717   19.252854   26.846441 H          1 MOL1         0.0959
      26    N1      19.218402   19.565659   26.521291 N.4        1 MOL1        -0.5987
      27    H18     18.893053   18.770687   27.077684 H          1 MOL1         0.3605
      28    H19     18.396988   19.995590   26.087482 H          1 MOL1         0.3605
      29    H20     19.619843   20.250165   27.168449 H          1 MOL1         0.3605
@<TRIPOS>BOND
    1     1     2    1
    2     1     3    1
    3     1     4    1
    4     1     5    1
    5     5     6    1
    6     5     7    1
    7     5     8    1
    8     8     9    1
    9     8    10    1
   10     8    11    1
   11    11    12    1
   12    11    13    1
   13    11    14    1
   14    14    15    1
   15    14    16    1
   16    14    17    1
   17    17    18    1
   18    17    19    1
   19    17    20    1
   20    20    21    1
   21    20    22    1
   22    22    23    1
   23    22    24    1
   24    22    25    1
   25    20    26    1
   26    26    27    1
   27    26    28    1
   28    26    29    1
@<TRIPOS>SUBSTRUCTURE
       1 MOL1            1 RESIDUE      1      MOL     
@<SCITEGIC>MOL_PROPERTY
VM2 Rank
SciTegic.value.IntegerValue
54

@<SCITEGIC>MOL_PROPERTY
Conf_Id
SciTegic.value.IntegerValue
926

@<SCITEGIC>MOL_PROPERTY
Probability
SciTegic.value.DoubleValue
0.44

@<SCITEGIC>MOL_PROPERTY
Sum Probability
SciTegic.value.DoubleValue
92.82

@<SCITEGIC>MOL_PROPERTY
Delta G
SciTegic.value.DoubleValue
1.884

@<SCITEGIC>MOL_PROPERTY
G
SciTegic.value.DoubleValue
35.587

@<SCITEGIC>MOL_PROPERTY
E
SciTegic.value.DoubleValue
-2.611

@<SCITEGIC>MOL_PROPERTY
-TS
SciTegic.value.DoubleValue
38.197

@<SCITEGIC>MOL_PROPERTY
U+W
SciTegic.value.DoubleValue
-26.755

@<SCITEGIC>MOL_PROPERTY
U
SciTegic.value.DoubleValue
25.507

@<SCITEGIC>MOL_PROPERTY
W
SciTegic.value.DoubleValue
-52.262

@<SCITEGIC>MOL_PROPERTY
W(PB)
SciTegic.value.DoubleValue
-54.690

@<SCITEGIC>MOL_PROPERTY
W(SA)
SciTegic.value.DoubleValue
2.428

@<SCITEGIC>MOL_PROPERTY
Valence
SciTegic.value.DoubleValue
4.386

@<SCITEGIC>MOL_PROPERTY
Coulomb
SciTegic.value.DoubleValue
20.418

@<SCITEGIC>MOL_PROPERTY
VdW
SciTegic.value.DoubleValue
0.702

@<SCITEGIC>MOL_PROPERTY
VdW6
SciTegic.value.DoubleValue
-10.963

@<SCITEGIC>MOL_PROPERTY
VdW12
SciTegic.value.DoubleValue
11.666

@<SCITEGIC>MOL_PROPERTY
Bond
SciTegic.value.DoubleValue
0.307

@<SCITEGIC>MOL_PROPERTY
Angle
SciTegic.value.DoubleValue
1.748

@<SCITEGIC>MOL_PROPERTY
Pdih
SciTegic.value.DoubleValue
2.331

@<SCITEGIC>MOL_PROPERTY
Idih
SciTegic.value.DoubleValue
0.000

@<SCITEGIC>MOL_PROPERTY
Tether
SciTegic.value.DoubleValue
0.000

@<TRIPOS>MOLECULE
guest-s15_vm2.mol2 : vm2 ligand conformer 55
          29          28           1
SMALL
USER_CHARGES
 
@<TRIPOS>ATOM
       1    C1      20.606193   19.282625   19.516362 C.3        1 MOL1        -0.2426
       2    H1      21.396791   19.969351   19.845563 H          1 MOL1         0.0959
       3    H2      20.895764   18.263195   19.800102 H          1 MOL1         0.0959
       4    H3      20.563049   19.320718   18.420186 H          1 MOL1         0.0959
       5    C2      19.240955   19.674428   20.125460 C.3        1 MOL1        -0.1410
       6    H4      18.472834   18.958104   19.802075 H          1 MOL1         0.0948
       7    H5      18.939709   20.651293   19.722072 H          1 MOL1         0.0948
       8    C3      19.260810   19.759123   21.670626 C.3        1 MOL1        -0.1435
       9    H6      20.009802   20.500355   21.978363 H          1 MOL1         0.0948
      10    H7      18.287877   20.138418   22.012051 H          1 MOL1         0.0948
      11    C4      19.543535   18.397978   22.355333 C.3        1 MOL1        -0.1435
      12    H8      20.564069   18.064866   22.124711 H          1 MOL1         0.0948
      13    H9      18.867900   17.640227   21.935292 H          1 MOL1         0.0948
      14    C5      19.352368   18.427254   23.891697 C.3        1 MOL1        -0.1435
      15    H10     18.326033   18.742320   24.121832 H          1 MOL1         0.0948
      16    H11     19.452446   17.399492   24.263548 H          1 MOL1         0.0948
      17    C6      20.370919   19.346259   24.620186 C.3        1 MOL1        -0.1500
      18    H12     20.250856   20.378554   24.269683 H          1 MOL1         0.0948
      19    H13     21.391204   19.048917   24.344192 H          1 MOL1         0.0948
      20    C7      20.254165   19.352206   26.162819 C.3        1 MOL1         0.1162
      21    H14     20.983776   20.075284   26.540427 H          1 MOL1         0.0910
      22    C8      20.597847   17.983966   26.777238 C.3        1 MOL1        -0.2491
      23    H15     21.575277   17.632302   26.424358 H          1 MOL1         0.0959
      24    H16     20.645955   18.056658   27.870672 H          1 MOL1         0.0959
      25    H17     19.847652   17.225043   26.525898 H          1 MOL1         0.0959
      26    N1      18.909209   19.832161   26.634280 N.4        1 MOL1        -0.5987
      27    H18     18.163553   19.200393   26.331869 H          1 MOL1         0.3605
      28    H19     18.693119   20.763328   26.267047 H          1 MOL1         0.3605
      29    H20     18.869141   19.888631   27.655962 H          1 MOL1         0.3605
@<TRIPOS>BOND
    1     1     2    1
    2     1     3    1
    3     1     4    1
    4     1     5    1
    5     5     6    1
    6     5     7    1
    7     5     8    1
    8     8     9    1
    9     8    10    1
   10     8    11    1
   11    11    12    1
   12    11    13    1
   13    11    14    1
   14    14    15    1
   15    14    16    1
   16    14    17    1
   17    17    18    1
   18    17    19    1
   19    17    20    1
   20    20    21    1
   21    20    22    1
   22    22    23    1
   23    22    24    1
   24    22    25    1
   25    20    26    1
   26    26    27    1
   27    26    28    1
   28    26    29    1
@<TRIPOS>SUBSTRUCTURE
       1 MOL1            1 RESIDUE      1      MOL     
@<SCITEGIC>MOL_PROPERTY
VM2 Rank
SciTegic.value.IntegerValue
55

@<SCITEGIC>MOL_PROPERTY
Conf_Id
SciTegic.value.IntegerValue
505

@<SCITEGIC>MOL_PROPERTY
Probability
SciTegic.value.DoubleValue
0.44

@<SCITEGIC>MOL_PROPERTY
Sum Probability
SciTegic.value.DoubleValue
93.26

@<SCITEGIC>MOL_PROPERTY
Delta G
SciTegic.value.DoubleValue
1.890

@<SCITEGIC>MOL_PROPERTY
G
SciTegic.value.DoubleValue
35.592

@<SCITEGIC>MOL_PROPERTY
E
SciTegic.value.DoubleValue
-2.143

@<SCITEGIC>MOL_PROPERTY
-TS
SciTegic.value.DoubleValue
37.735

@<SCITEGIC>MOL_PROPERTY
U+W
SciTegic.value.DoubleValue
-26.287

@<SCITEGIC>MOL_PROPERTY
U
SciTegic.value.DoubleValue
25.995

@<SCITEGIC>MOL_PROPERTY
W
SciTegic.value.DoubleValue
-52.282

@<SCITEGIC>MOL_PROPERTY
W(PB)
SciTegic.value.DoubleValue
-54.749

@<SCITEGIC>MOL_PROPERTY
W(SA)
SciTegic.value.DoubleValue
2.466

@<SCITEGIC>MOL_PROPERTY
Valence
SciTegic.value.DoubleValue
4.756

@<SCITEGIC>MOL_PROPERTY
Coulomb
SciTegic.value.DoubleValue
19.829

@<SCITEGIC>MOL_PROPERTY
VdW
SciTegic.value.DoubleValue
1.410

@<SCITEGIC>MOL_PROPERTY
VdW6
SciTegic.value.DoubleValue
-9.885

@<SCITEGIC>MOL_PROPERTY
VdW12
SciTegic.value.DoubleValue
11.295

@<SCITEGIC>MOL_PROPERTY
Bond
SciTegic.value.DoubleValue
0.310

@<SCITEGIC>MOL_PROPERTY
Angle
SciTegic.value.DoubleValue
1.687

@<SCITEGIC>MOL_PROPERTY
Pdih
SciTegic.value.DoubleValue
2.759

@<SCITEGIC>MOL_PROPERTY
Idih
SciTegic.value.DoubleValue
0.000

@<SCITEGIC>MOL_PROPERTY
Tether
SciTegic.value.DoubleValue
0.000

@<TRIPOS>MOLECULE
guest-s15_vm2.mol2 : vm2 ligand conformer 56
          29          28           1
SMALL
USER_CHARGES
 
@<TRIPOS>ATOM
       1    C1      20.178550   20.322869   20.079709 C.3        1 MOL1        -0.2426
       2    H1      19.575328   20.002823   19.220281 H          1 MOL1         0.0959
       3    H2      19.573014   21.004624   20.689747 H          1 MOL1         0.0959
       4    H3      21.034401   20.893189   19.696226 H          1 MOL1         0.0959
       5    C2      20.662383   19.106836   20.901328 C.3        1 MOL1        -0.1410
       6    H4      21.253098   19.451244   21.760642 H          1 MOL1         0.0948
       7    H5      21.349040   18.512484   20.282629 H          1 MOL1         0.0948
       8    C3      19.507665   18.189856   21.378148 C.3        1 MOL1        -0.1435
       9    H6      18.996522   17.778119   20.497122 H          1 MOL1         0.0948
      10    H7      19.932674   17.323185   21.901326 H          1 MOL1         0.0948
      11    C4      18.451090   18.875378   22.286130 C.3        1 MOL1        -0.1435
      12    H8      17.705890   18.125380   22.584742 H          1 MOL1         0.0948
      13    H9      17.898672   19.620089   21.697740 H          1 MOL1         0.0948
      14    C5      19.011518   19.560100   23.559508 C.3        1 MOL1        -0.1435
      15    H10     19.685860   20.379571   23.277525 H          1 MOL1         0.0948
      16    H11     18.170752   20.027979   24.087976 H          1 MOL1         0.0948
      17    C6      19.744838   18.583291   24.514099 C.3        1 MOL1        -0.1500
      18    H12     20.593923   18.131335   23.986493 H          1 MOL1         0.0948
      19    H13     19.072767   17.760701   24.792184 H          1 MOL1         0.0948
      20    C7      20.276662   19.273622   25.788743 C.3        1 MOL1         0.1162
      21    H14     20.912898   20.110772   25.485409 H          1 MOL1         0.0910
      22    C8      21.128381   18.293532   26.611224 C.3        1 MOL1        -0.2491
      23    H15     21.973243   17.919459   26.019587 H          1 MOL1         0.0959
      24    H16     21.538395   18.787371   27.500837 H          1 MOL1         0.0959
      25    H17     20.534436   17.432060   26.941443 H          1 MOL1         0.0959
      26    N1      19.174913   19.850516   26.635111 N.4        1 MOL1        -0.5987
      27    H18     18.531502   19.122249   26.956292 H          1 MOL1         0.3605
      28    H19     18.625831   20.540078   26.114956 H          1 MOL1         0.3605
      29    H20     19.547645   20.319054   27.465860 H          1 MOL1         0.3605
@<TRIPOS>BOND
    1     1     2    1
    2     1     3    1
    3     1     4    1
    4     1     5    1
    5     5     6    1
    6     5     7    1
    7     5     8    1
    8     8     9    1
    9     8    10    1
   10     8    11    1
   11    11    12    1
   12    11    13    1
   13    11    14    1
   14    14    15    1
   15    14    16    1
   16    14    17    1
   17    17    18    1
   18    17    19    1
   19    17    20    1
   20    20    21    1
   21    20    22    1
   22    22    23    1
   23    22    24    1
   24    22    25    1
   25    20    26    1
   26    26    27    1
   27    26    28    1
   28    26    29    1
@<TRIPOS>SUBSTRUCTURE
       1 MOL1            1 RESIDUE      1      MOL     
@<SCITEGIC>MOL_PROPERTY
VM2 Rank
SciTegic.value.IntegerValue
56

@<SCITEGIC>MOL_PROPERTY
Conf_Id
SciTegic.value.IntegerValue
507

@<SCITEGIC>MOL_PROPERTY
Probability
SciTegic.value.DoubleValue
0.43

@<SCITEGIC>MOL_PROPERTY
Sum Probability
SciTegic.value.DoubleValue
93.69

@<SCITEGIC>MOL_PROPERTY
Delta G
SciTegic.value.DoubleValue
1.899

@<SCITEGIC>MOL_PROPERTY
G
SciTegic.value.DoubleValue
35.601

@<SCITEGIC>MOL_PROPERTY
E
SciTegic.value.DoubleValue
-2.555

@<SCITEGIC>MOL_PROPERTY
-TS
SciTegic.value.DoubleValue
38.156

@<SCITEGIC>MOL_PROPERTY
U+W
SciTegic.value.DoubleValue
-26.699

@<SCITEGIC>MOL_PROPERTY
U
SciTegic.value.DoubleValue
25.696

@<SCITEGIC>MOL_PROPERTY
W
SciTegic.value.DoubleValue
-52.395

@<SCITEGIC>MOL_PROPERTY
W(PB)
SciTegic.value.DoubleValue
-54.863

@<SCITEGIC>MOL_PROPERTY
W(SA)
SciTegic.value.DoubleValue
2.468

@<SCITEGIC>MOL_PROPERTY
Valence
SciTegic.value.DoubleValue
4.599

@<SCITEGIC>MOL_PROPERTY
Coulomb
SciTegic.value.DoubleValue
20.006

@<SCITEGIC>MOL_PROPERTY
VdW
SciTegic.value.DoubleValue
1.091

@<SCITEGIC>MOL_PROPERTY
VdW6
SciTegic.value.DoubleValue
-10.569

@<SCITEGIC>MOL_PROPERTY
VdW12
SciTegic.value.DoubleValue
11.659

@<SCITEGIC>MOL_PROPERTY
Bond
SciTegic.value.DoubleValue
0.319

@<SCITEGIC>MOL_PROPERTY
Angle
SciTegic.value.DoubleValue
1.895

@<SCITEGIC>MOL_PROPERTY
Pdih
SciTegic.value.DoubleValue
2.384

@<SCITEGIC>MOL_PROPERTY
Idih
SciTegic.value.DoubleValue
0.000

@<SCITEGIC>MOL_PROPERTY
Tether
SciTegic.value.DoubleValue
0.000

@<TRIPOS>MOLECULE
guest-s15_vm2.mol2 : vm2 ligand conformer 57
          29          28           1
SMALL
USER_CHARGES
 
@<TRIPOS>ATOM
       1    C1      19.687475   19.915291   19.606891 C.3        1 MOL1        -0.2426
       2    H1      18.868354   20.544380   19.976324 H          1 MOL1         0.0959
       3    H2      20.180063   20.461484   18.792059 H          1 MOL1         0.0959
       4    H3      19.254852   18.999529   19.183533 H          1 MOL1         0.0959
       5    C2      20.701093   19.585219   20.726010 C.3        1 MOL1        -0.1410
       6    H4      21.093129   20.516988   21.157072 H          1 MOL1         0.0948
       7    H5      21.561647   19.067093   20.280190 H          1 MOL1         0.0948
       8    C3      20.114563   18.694998   21.848174 C.3        1 MOL1        -0.1435
       9    H6      19.727561   17.763330   21.413198 H          1 MOL1         0.0948
      10    H7      20.936785   18.407829   22.516115 H          1 MOL1         0.0948
      11    C4      18.999776   19.391942   22.668618 C.3        1 MOL1        -0.1435
      12    H8      18.179386   19.679231   21.998490 H          1 MOL1         0.0948
      13    H9      19.384933   20.327730   23.094491 H          1 MOL1         0.0948
      14    C5      18.406459   18.499636   23.789876 C.3        1 MOL1        -0.1435
      15    H10     17.589130   19.044846   24.280710 H          1 MOL1         0.0948
      16    H11     17.939505   17.615936   23.333589 H          1 MOL1         0.0948
      17    C6      19.424292   18.027440   24.862469 C.3        1 MOL1        -0.1500
      18    H12     20.127048   17.318818   24.405986 H          1 MOL1         0.0948
      19    H13     18.889106   17.460780   25.635926 H          1 MOL1         0.0948
      20    C7      20.218574   19.173529   25.526867 C.3        1 MOL1         0.1162
      21    H14     20.747471   19.724541   24.743467 H          1 MOL1         0.0910
      22    C8      21.261754   18.607254   26.502814 C.3        1 MOL1        -0.2491
      23    H15     21.955207   17.933693   25.984005 H          1 MOL1         0.0959
      24    H16     21.854173   19.415232   26.949558 H          1 MOL1         0.0959
      25    H17     20.782545   18.045558   27.314452 H          1 MOL1         0.0959
      26    N1      19.322013   20.160691   26.222281 N.4        1 MOL1        -0.5987
      27    H18     18.797104   19.716842   26.980500 H          1 MOL1         0.3605
      28    H19     18.642702   20.565928   25.572569 H          1 MOL1         0.3605
      29    H20     19.858093   20.932048   26.629909 H          1 MOL1         0.3605
@<TRIPOS>BOND
    1     1     2    1
    2     1     3    1
    3     1     4    1
    4     1     5    1
    5     5     6    1
    6     5     7    1
    7     5     8    1
    8     8     9    1
    9     8    10    1
   10     8    11    1
   11    11    12    1
   12    11    13    1
   13    11    14    1
   14    14    15    1
   15    14    16    1
   16    14    17    1
   17    17    18    1
   18    17    19    1
   19    17    20    1
   20    20    21    1
   21    20    22    1
   22    22    23    1
   23    22    24    1
   24    22    25    1
   25    20    26    1
   26    26    27    1
   27    26    28    1
   28    26    29    1
@<TRIPOS>SUBSTRUCTURE
       1 MOL1            1 RESIDUE      1      MOL     
@<SCITEGIC>MOL_PROPERTY
VM2 Rank
SciTegic.value.IntegerValue
57

@<SCITEGIC>MOL_PROPERTY
Conf_Id
SciTegic.value.IntegerValue
807

@<SCITEGIC>MOL_PROPERTY
Probability
SciTegic.value.DoubleValue
0.42

@<SCITEGIC>MOL_PROPERTY
Sum Probability
SciTegic.value.DoubleValue
94.10

@<SCITEGIC>MOL_PROPERTY
Delta G
SciTegic.value.DoubleValue
1.914

@<SCITEGIC>MOL_PROPERTY
G
SciTegic.value.DoubleValue
35.617

@<SCITEGIC>MOL_PROPERTY
E
SciTegic.value.DoubleValue
-2.321

@<SCITEGIC>MOL_PROPERTY
-TS
SciTegic.value.DoubleValue
37.938

@<SCITEGIC>MOL_PROPERTY
U+W
SciTegic.value.DoubleValue
-26.466

@<SCITEGIC>MOL_PROPERTY
U
SciTegic.value.DoubleValue
25.816

@<SCITEGIC>MOL_PROPERTY
W
SciTegic.value.DoubleValue
-52.282

@<SCITEGIC>MOL_PROPERTY
W(PB)
SciTegic.value.DoubleValue
-54.729

@<SCITEGIC>MOL_PROPERTY
W(SA)
SciTegic.value.DoubleValue
2.446

@<SCITEGIC>MOL_PROPERTY
Valence
SciTegic.value.DoubleValue
4.504

@<SCITEGIC>MOL_PROPERTY
Coulomb
SciTegic.value.DoubleValue
20.342

@<SCITEGIC>MOL_PROPERTY
VdW
SciTegic.value.DoubleValue
0.971

@<SCITEGIC>MOL_PROPERTY
VdW6
SciTegic.value.DoubleValue
-10.532

@<SCITEGIC>MOL_PROPERTY
VdW12
SciTegic.value.DoubleValue
11.503

@<SCITEGIC>MOL_PROPERTY
Bond
SciTegic.value.DoubleValue
0.307

@<SCITEGIC>MOL_PROPERTY
Angle
SciTegic.value.DoubleValue
1.716

@<SCITEGIC>MOL_PROPERTY
Pdih
SciTegic.value.DoubleValue
2.481

@<SCITEGIC>MOL_PROPERTY
Idih
SciTegic.value.DoubleValue
0.000

@<SCITEGIC>MOL_PROPERTY
Tether
SciTegic.value.DoubleValue
0.000

@<TRIPOS>MOLECULE
guest-s15_vm2.mol2 : vm2 ligand conformer 58
          29          28           1
SMALL
USER_CHARGES
 
@<TRIPOS>ATOM
       1    C1      19.154858   19.073893   19.295526 C.3        1 MOL1        -0.2426
       2    H1      18.993624   17.988162   19.309841 H          1 MOL1         0.0959
       3    H2      18.244113   19.562259   19.663247 H          1 MOL1         0.0959
       4    H3      19.292503   19.378881   18.250075 H          1 MOL1         0.0959
       5    C2      20.390122   19.463506   20.138891 C.3        1 MOL1        -0.1410
       6    H4      20.509657   20.555945   20.137876 H          1 MOL1         0.0948
       7    H5      21.289067   19.055670   19.655837 H          1 MOL1         0.0948
       8    C3      20.332633   18.944218   21.595999 C.3        1 MOL1        -0.1435
       9    H6      20.213917   17.852032   21.591390 H          1 MOL1         0.0948
      10    H7      21.302808   19.148950   22.066212 H          1 MOL1         0.0948
      11    C4      19.202057   19.590326   22.436682 C.3        1 MOL1        -0.1435
      12    H8      18.233926   19.391199   21.959553 H          1 MOL1         0.0948
      13    H9      19.323543   20.682175   22.445210 H          1 MOL1         0.0948
      14    C5      19.133943   19.063742   23.891510 C.3        1 MOL1        -0.1435
      15    H10     18.227522   19.470735   24.358241 H          1 MOL1         0.0948
      16    H11     19.009966   17.972865   23.872416 H          1 MOL1         0.0948
      17    C6      20.372814   19.446958   24.746549 C.3        1 MOL1        -0.1500
      18    H12     20.550316   20.527078   24.662493 H          1 MOL1         0.0948
      19    H13     21.267905   18.959282   24.341255 H          1 MOL1         0.0948
      20    C7      20.263156   19.083985   26.246335 C.3        1 MOL1         0.1162
      21    H14     21.189133   19.412028   26.728742 H          1 MOL1         0.0910
      22    C8      20.136103   17.566371   26.465240 C.3        1 MOL1        -0.2491
      23    H15     20.948830   17.030229   25.959660 H          1 MOL1         0.0959
      24    H16     20.193896   17.326763   27.534089 H          1 MOL1         0.0959
      25    H17     19.181944   17.180913   26.086578 H          1 MOL1         0.0959
      26    N1      19.150314   19.823001   26.937270 N.4        1 MOL1        -0.5987
      27    H18     19.132446   19.619116   27.940641 H          1 MOL1         0.3605
      28    H19     18.237966   19.562628   26.554822 H          1 MOL1         0.3605
      29    H20     19.251203   20.836683   26.832511 H          1 MOL1         0.3605
@<TRIPOS>BOND
    1     1     2    1
    2     1     3    1
    3     1     4    1
    4     1     5    1
    5     5     6    1
    6     5     7    1
    7     5     8    1
    8     8     9    1
    9     8    10    1
   10     8    11    1
   11    11    12    1
   12    11    13    1
   13    11    14    1
   14    14    15    1
   15    14    16    1
   16    14    17    1
   17    17    18    1
   18    17    19    1
   19    17    20    1
   20    20    21    1
   21    20    22    1
   22    22    23    1
   23    22    24    1
   24    22    25    1
   25    20    26    1
   26    26    27    1
   27    26    28    1
   28    26    29    1
@<TRIPOS>SUBSTRUCTURE
       1 MOL1            1 RESIDUE      1      MOL     
@<SCITEGIC>MOL_PROPERTY
VM2 Rank
SciTegic.value.IntegerValue
58

@<SCITEGIC>MOL_PROPERTY
Conf_Id
SciTegic.value.IntegerValue
1552

@<SCITEGIC>MOL_PROPERTY
Probability
SciTegic.value.DoubleValue
0.40

@<SCITEGIC>MOL_PROPERTY
Sum Probability
SciTegic.value.DoubleValue
94.51

@<SCITEGIC>MOL_PROPERTY
Delta G
SciTegic.value.DoubleValue
1.935

@<SCITEGIC>MOL_PROPERTY
G
SciTegic.value.DoubleValue
35.637

@<SCITEGIC>MOL_PROPERTY
E
SciTegic.value.DoubleValue
-2.059

@<SCITEGIC>MOL_PROPERTY
-TS
SciTegic.value.DoubleValue
37.696

@<SCITEGIC>MOL_PROPERTY
U+W
SciTegic.value.DoubleValue
-26.204

@<SCITEGIC>MOL_PROPERTY
U
SciTegic.value.DoubleValue
25.894

@<SCITEGIC>MOL_PROPERTY
W
SciTegic.value.DoubleValue
-52.098

@<SCITEGIC>MOL_PROPERTY
W(PB)
SciTegic.value.DoubleValue
-54.601

@<SCITEGIC>MOL_PROPERTY
W(SA)
SciTegic.value.DoubleValue
2.503

@<SCITEGIC>MOL_PROPERTY
Valence
SciTegic.value.DoubleValue
4.780

@<SCITEGIC>MOL_PROPERTY
Coulomb
SciTegic.value.DoubleValue
19.659

@<SCITEGIC>MOL_PROPERTY
VdW
SciTegic.value.DoubleValue
1.455

@<SCITEGIC>MOL_PROPERTY
VdW6
SciTegic.value.DoubleValue
-9.843

@<SCITEGIC>MOL_PROPERTY
VdW12
SciTegic.value.DoubleValue
11.298

@<SCITEGIC>MOL_PROPERTY
Bond
SciTegic.value.DoubleValue
0.315

@<SCITEGIC>MOL_PROPERTY
Angle
SciTegic.value.DoubleValue
1.725

@<SCITEGIC>MOL_PROPERTY
Pdih
SciTegic.value.DoubleValue
2.740

@<SCITEGIC>MOL_PROPERTY
Idih
SciTegic.value.DoubleValue
0.000

@<SCITEGIC>MOL_PROPERTY
Tether
SciTegic.value.DoubleValue
0.000

@<TRIPOS>MOLECULE
guest-s15_vm2.mol2 : vm2 ligand conformer 59
          29          28           1
SMALL
USER_CHARGES
 
@<TRIPOS>ATOM
       1    C1      18.895027   20.213393   20.247597 C.3        1 MOL1        -0.2426
       2    H1      19.380107   21.022328   20.807855 H          1 MOL1         0.0959
       3    H2      19.454884   20.056166   19.316598 H          1 MOL1         0.0959
       4    H3      17.886529   20.554269   19.980138 H          1 MOL1         0.0959
       5    C2      18.824388   18.912546   21.078646 C.3        1 MOL1        -0.1410
       6    H4      18.237857   18.168531   20.521911 H          1 MOL1         0.0948
       7    H5      18.271158   19.096746   22.009122 H          1 MOL1         0.0948
       8    C3      20.216513   18.308806   21.393651 C.3        1 MOL1        -0.1435
       9    H6      20.080780   17.363419   21.935413 H          1 MOL1         0.0948
      10    H7      20.706704   18.037997   20.448475 H          1 MOL1         0.0948
      11    C4      21.170589   19.232209   22.198229 C.3        1 MOL1        -0.1435
      12    H8      21.445399   20.096988   21.579733 H          1 MOL1         0.0948
      13    H9      22.109403   18.691898   22.381714 H          1 MOL1         0.0948
      14    C5      20.611067   19.740642   23.551575 C.3        1 MOL1        -0.1435
      15    H10     21.366308   20.389377   24.016447 H          1 MOL1         0.0948
      16    H11     19.734583   20.375569   23.370586 H          1 MOL1         0.0948
      17    C6      20.253299   18.598439   24.536160 C.3        1 MOL1        -0.1500
      18    H12     21.118553   17.929199   24.632387 H          1 MOL1         0.0948
      19    H13     19.431151   17.994383   24.131903 H          1 MOL1         0.0948
      20    C7      19.864477   19.115769   25.937621 C.3        1 MOL1         0.1162
      21    H14     20.686970   19.729981   26.316915 H          1 MOL1         0.0910
      22    C8      19.655792   17.938412   26.903252 C.3        1 MOL1        -0.2491
      23    H15     19.415211   18.300306   27.910497 H          1 MOL1         0.0959
      24    H16     18.836412   17.290262   26.567923 H          1 MOL1         0.0959
      25    H17     20.565152   17.329017   26.977083 H          1 MOL1         0.0959
      26    N1      18.644848   19.995783   25.907268 N.4        1 MOL1        -0.5987
      27    H18     17.826892   19.487384   25.561077 H          1 MOL1         0.3605
      28    H19     18.785244   20.807172   25.299342 H          1 MOL1         0.3605
      29    H20     18.414957   20.348122   26.840905 H          1 MOL1         0.3605
@<TRIPOS>BOND
    1     1     2    1
    2     1     3    1
    3     1     4    1
    4     1     5    1
    5     5     6    1
    6     5     7    1
    7     5     8    1
    8     8     9    1
    9     8    10    1
   10     8    11    1
   11    11    12    1
   12    11    13    1
   13    11    14    1
   14    14    15    1
   15    14    16    1
   16    14    17    1
   17    17    18    1
   18    17    19    1
   19    17    20    1
   20    20    21    1
   21    20    22    1
   22    22    23    1
   23    22    24    1
   24    22    25    1
   25    20    26    1
   26    26    27    1
   27    26    28    1
   28    26    29    1
@<TRIPOS>SUBSTRUCTURE
       1 MOL1            1 RESIDUE      1      MOL     
@<SCITEGIC>MOL_PROPERTY
VM2 Rank
SciTegic.value.IntegerValue
59

@<SCITEGIC>MOL_PROPERTY
Conf_Id
SciTegic.value.IntegerValue
1201

@<SCITEGIC>MOL_PROPERTY
Probability
SciTegic.value.DoubleValue
0.38

@<SCITEGIC>MOL_PROPERTY
Sum Probability
SciTegic.value.DoubleValue
94.89

@<SCITEGIC>MOL_PROPERTY
Delta G
SciTegic.value.DoubleValue
1.970

@<SCITEGIC>MOL_PROPERTY
G
SciTegic.value.DoubleValue
35.672

@<SCITEGIC>MOL_PROPERTY
E
SciTegic.value.DoubleValue
-2.499

@<SCITEGIC>MOL_PROPERTY
-TS
SciTegic.value.DoubleValue
38.171

@<SCITEGIC>MOL_PROPERTY
U+W
SciTegic.value.DoubleValue
-26.643

@<SCITEGIC>MOL_PROPERTY
U
SciTegic.value.DoubleValue
26.015

@<SCITEGIC>MOL_PROPERTY
W
SciTegic.value.DoubleValue
-52.659

@<SCITEGIC>MOL_PROPERTY
W(PB)
SciTegic.value.DoubleValue
-55.102

@<SCITEGIC>MOL_PROPERTY
W(SA)
SciTegic.value.DoubleValue
2.443

@<SCITEGIC>MOL_PROPERTY
Valence
SciTegic.value.DoubleValue
4.552

@<SCITEGIC>MOL_PROPERTY
Coulomb
SciTegic.value.DoubleValue
20.495

@<SCITEGIC>MOL_PROPERTY
VdW
SciTegic.value.DoubleValue
0.968

@<SCITEGIC>MOL_PROPERTY
VdW6
SciTegic.value.DoubleValue
-10.659

@<SCITEGIC>MOL_PROPERTY
VdW12
SciTegic.value.DoubleValue
11.627

@<SCITEGIC>MOL_PROPERTY
Bond
SciTegic.value.DoubleValue
0.311

@<SCITEGIC>MOL_PROPERTY
Angle
SciTegic.value.DoubleValue
1.812

@<SCITEGIC>MOL_PROPERTY
Pdih
SciTegic.value.DoubleValue
2.429

@<SCITEGIC>MOL_PROPERTY
Idih
SciTegic.value.DoubleValue
0.000

@<SCITEGIC>MOL_PROPERTY
Tether
SciTegic.value.DoubleValue
0.000

@<TRIPOS>MOLECULE
guest-s15_vm2.mol2 : vm2 ligand conformer 60
          29          28           1
SMALL
USER_CHARGES
 
@<TRIPOS>ATOM
       1    C1      19.090105   19.174086   19.307456 C.3        1 MOL1        -0.2426
       2    H1      18.842474   18.137538   19.567116 H          1 MOL1         0.0959
       3    H2      18.191812   19.788947   19.448986 H          1 MOL1         0.0959
       4    H3      19.345402   19.193795   18.240046 H          1 MOL1         0.0959
       5    C2      20.267871   19.707518   20.154387 C.3        1 MOL1        -0.1410
       6    H4      20.559448   20.694745   19.769495 H          1 MOL1         0.0948
       7    H5      21.143153   19.056020   20.023429 H          1 MOL1         0.0948
       8    C3      19.935626   19.842032   21.660288 C.3        1 MOL1        -0.1435
       9    H6      20.775873   20.353129   22.146828 H          1 MOL1         0.0948
      10    H7      19.060664   20.494522   21.785439 H          1 MOL1         0.0948
      11    C4      19.679086   18.482246   22.358771 C.3        1 MOL1        -0.1435
      12    H8      20.555341   17.830780   22.237390 H          1 MOL1         0.0948
      13    H9      18.843739   17.971248   21.863134 H          1 MOL1         0.0948
      14    C5      19.332431   18.612229   23.862672 C.3        1 MOL1        -0.1435
      15    H10     18.465386   19.276142   23.977084 H          1 MOL1         0.0948
      16    H11     19.015879   17.624161   24.220527 H          1 MOL1         0.0948
      17    C6      20.516800   19.121725   24.729321 C.3        1 MOL1        -0.1500
      18    H12     20.812600   20.124092   24.397507 H          1 MOL1         0.0948
      19    H13     21.390828   18.477646   24.565673 H          1 MOL1         0.0948
      20    C7      20.228155   19.192371   26.247632 C.3        1 MOL1         0.1162
      21    H14     21.115521   19.617515   26.726796 H          1 MOL1         0.0910
      22    C8      19.993352   17.800678   26.860693 C.3        1 MOL1        -0.2491
      23    H15     19.059050   17.351253   26.504317 H          1 MOL1         0.0959
      24    H16     20.818604   17.121306   26.613767 H          1 MOL1         0.0959
      25    H17     19.935206   17.868994   27.953922 H          1 MOL1         0.0959
      26    N1      19.092574   20.123114   26.572779 N.4        1 MOL1        -0.5987
      27    H18     18.213576   19.790326   26.168793 H          1 MOL1         0.3605
      28    H19     19.263082   21.064822   26.208434 H          1 MOL1         0.3605
      29    H20     18.954542   20.205981   27.584071 H          1 MOL1         0.3605
@<TRIPOS>BOND
    1     1     2    1
    2     1     3    1
    3     1     4    1
    4     1     5    1
    5     5     6    1
    6     5     7    1
    7     5     8    1
    8     8     9    1
    9     8    10    1
   10     8    11    1
   11    11    12    1
   12    11    13    1
   13    11    14    1
   14    14    15    1
   15    14    16    1
   16    14    17    1
   17    17    18    1
   18    17    19    1
   19    17    20    1
   20    20    21    1
   21    20    22    1
   22    22    23    1
   23    22    24    1
   24    22    25    1
   25    20    26    1
   26    26    27    1
   27    26    28    1
   28    26    29    1
@<TRIPOS>SUBSTRUCTURE
       1 MOL1            1 RESIDUE      1      MOL     
@<SCITEGIC>MOL_PROPERTY
VM2 Rank
SciTegic.value.IntegerValue
60

@<SCITEGIC>MOL_PROPERTY
Conf_Id
SciTegic.value.IntegerValue
946

@<SCITEGIC>MOL_PROPERTY
Probability
SciTegic.value.DoubleValue
0.38

@<SCITEGIC>MOL_PROPERTY
Sum Probability
SciTegic.value.DoubleValue
95.27

@<SCITEGIC>MOL_PROPERTY
Delta G
SciTegic.value.DoubleValue
1.973

@<SCITEGIC>MOL_PROPERTY
G
SciTegic.value.DoubleValue
35.675

@<SCITEGIC>MOL_PROPERTY
E
SciTegic.value.DoubleValue
-1.955

@<SCITEGIC>MOL_PROPERTY
-TS
SciTegic.value.DoubleValue
37.630

@<SCITEGIC>MOL_PROPERTY
U+W
SciTegic.value.DoubleValue
-26.099

@<SCITEGIC>MOL_PROPERTY
U
SciTegic.value.DoubleValue
26.189

@<SCITEGIC>MOL_PROPERTY
W
SciTegic.value.DoubleValue
-52.288

@<SCITEGIC>MOL_PROPERTY
W(PB)
SciTegic.value.DoubleValue
-54.798

@<SCITEGIC>MOL_PROPERTY
W(SA)
SciTegic.value.DoubleValue
2.510

@<SCITEGIC>MOL_PROPERTY
Valence
SciTegic.value.DoubleValue
4.871

@<SCITEGIC>MOL_PROPERTY
Coulomb
SciTegic.value.DoubleValue
19.831

@<SCITEGIC>MOL_PROPERTY
VdW
SciTegic.value.DoubleValue
1.486

@<SCITEGIC>MOL_PROPERTY
VdW6
SciTegic.value.DoubleValue
-9.787

@<SCITEGIC>MOL_PROPERTY
VdW12
SciTegic.value.DoubleValue
11.273

@<SCITEGIC>MOL_PROPERTY
Bond
SciTegic.value.DoubleValue
0.320

@<SCITEGIC>MOL_PROPERTY
Angle
SciTegic.value.DoubleValue
1.789

@<SCITEGIC>MOL_PROPERTY
Pdih
SciTegic.value.DoubleValue
2.762

@<SCITEGIC>MOL_PROPERTY
Idih
SciTegic.value.DoubleValue
0.000

@<SCITEGIC>MOL_PROPERTY
Tether
SciTegic.value.DoubleValue
0.000

@<TRIPOS>MOLECULE
guest-s15_vm2.mol2 : vm2 ligand conformer 61
          29          28           1
SMALL
USER_CHARGES
 
@<TRIPOS>ATOM
       1    C1      20.286577   18.594291   19.820403 C.3        1 MOL1        -0.2426
       2    H1      19.941381   18.030565   18.944111 H          1 MOL1         0.0959
       3    H2      21.154499   19.192871   19.514860 H          1 MOL1         0.0959
       4    H3      20.617324   17.866651   20.571982 H          1 MOL1         0.0959
       5    C2      19.155037   19.494937   20.364870 C.3        1 MOL1        -0.1410
       6    H4      18.307300   18.873778   20.683211 H          1 MOL1         0.0948
       7    H5      18.776200   20.120915   19.544956 H          1 MOL1         0.0948
       8    C3      19.606896   20.421055   21.522822 C.3        1 MOL1        -0.1435
       9    H6      20.363655   21.120127   21.141059 H          1 MOL1         0.0948
      10    H7      18.754676   21.041328   21.832702 H          1 MOL1         0.0948
      11    C4      20.183690   19.698344   22.767644 C.3        1 MOL1        -0.1435
      12    H8      20.491573   20.466301   23.488999 H          1 MOL1         0.0948
      13    H9      21.098896   19.156592   22.494693 H          1 MOL1         0.0948
      14    C5      19.180342   18.726747   23.439173 C.3        1 MOL1        -0.1435
      15    H10     18.254957   19.261775   23.690130 H          1 MOL1         0.0948
      16    H11     18.895360   17.944214   22.724064 H          1 MOL1         0.0948
      17    C6      19.753500   18.033086   24.701723 C.3        1 MOL1        -0.1500
      18    H12     20.624926   17.432239   24.409237 H          1 MOL1         0.0948
      19    H13     19.008928   17.324566   25.088339 H          1 MOL1         0.0948
      20    C7      20.167216   19.003594   25.830746 C.3        1 MOL1         0.1162
      21    H14     20.928292   19.684796   25.439281 H          1 MOL1         0.0910
      22    C8      20.780686   18.226191   27.005926 C.3        1 MOL1        -0.2491
      23    H15     21.653952   17.648905   26.677456 H          1 MOL1         0.0959
      24    H16     21.112884   18.912789   27.794348 H          1 MOL1         0.0959
      25    H17     20.054903   17.529066   27.443155 H          1 MOL1         0.0959
      26    N1      19.022055   19.857755   26.300693 N.4        1 MOL1        -0.5987
      27    H18     18.630438   20.408222   25.531550 H          1 MOL1         0.3605
      28    H19     19.317676   20.513143   27.029823 H          1 MOL1         0.3605
      29    H20     18.266242   19.286930   26.688436 H          1 MOL1         0.3605
@<TRIPOS>BOND
    1     1     2    1
    2     1     3    1
    3     1     4    1
    4     1     5    1
    5     5     6    1
    6     5     7    1
    7     5     8    1
    8     8     9    1
    9     8    10    1
   10     8    11    1
   11    11    12    1
   12    11    13    1
   13    11    14    1
   14    14    15    1
   15    14    16    1
   16    14    17    1
   17    17    18    1
   18    17    19    1
   19    17    20    1
   20    20    21    1
   21    20    22    1
   22    22    23    1
   23    22    24    1
   24    22    25    1
   25    20    26    1
   26    26    27    1
   27    26    28    1
   28    26    29    1
@<TRIPOS>SUBSTRUCTURE
       1 MOL1            1 RESIDUE      1      MOL     
@<SCITEGIC>MOL_PROPERTY
VM2 Rank
SciTegic.value.IntegerValue
61

@<SCITEGIC>MOL_PROPERTY
Conf_Id
SciTegic.value.IntegerValue
1247

@<SCITEGIC>MOL_PROPERTY
Probability
SciTegic.value.DoubleValue
0.37

@<SCITEGIC>MOL_PROPERTY
Sum Probability
SciTegic.value.DoubleValue
95.64

@<SCITEGIC>MOL_PROPERTY
Delta G
SciTegic.value.DoubleValue
1.984

@<SCITEGIC>MOL_PROPERTY
G
SciTegic.value.DoubleValue
35.686

@<SCITEGIC>MOL_PROPERTY
E
SciTegic.value.DoubleValue
-2.309

@<SCITEGIC>MOL_PROPERTY
-TS
SciTegic.value.DoubleValue
37.996

@<SCITEGIC>MOL_PROPERTY
U+W
SciTegic.value.DoubleValue
-26.454

@<SCITEGIC>MOL_PROPERTY
U
SciTegic.value.DoubleValue
25.812

@<SCITEGIC>MOL_PROPERTY
W
SciTegic.value.DoubleValue
-52.266

@<SCITEGIC>MOL_PROPERTY
W(PB)
SciTegic.value.DoubleValue
-54.734

@<SCITEGIC>MOL_PROPERTY
W(SA)
SciTegic.value.DoubleValue
2.468

@<SCITEGIC>MOL_PROPERTY
Valence
SciTegic.value.DoubleValue
4.469

@<SCITEGIC>MOL_PROPERTY
Coulomb
SciTegic.value.DoubleValue
20.262

@<SCITEGIC>MOL_PROPERTY
VdW
SciTegic.value.DoubleValue
1.081

@<SCITEGIC>MOL_PROPERTY
VdW6
SciTegic.value.DoubleValue
-10.395

@<SCITEGIC>MOL_PROPERTY
VdW12
SciTegic.value.DoubleValue
11.476

@<SCITEGIC>MOL_PROPERTY
Bond
SciTegic.value.DoubleValue
0.305

@<SCITEGIC>MOL_PROPERTY
Angle
SciTegic.value.DoubleValue
1.804

@<SCITEGIC>MOL_PROPERTY
Pdih
SciTegic.value.DoubleValue
2.359

@<SCITEGIC>MOL_PROPERTY
Idih
SciTegic.value.DoubleValue
0.000

@<SCITEGIC>MOL_PROPERTY
Tether
SciTegic.value.DoubleValue
0.000

@<TRIPOS>MOLECULE
guest-s15_vm2.mol2 : vm2 ligand conformer 62
          29          28           1
SMALL
USER_CHARGES
 
@<TRIPOS>ATOM
       1    C1      21.172743   20.044390   20.771016 C.3        1 MOL1        -0.2426
       2    H1      20.788117   21.024350   20.460073 H          1 MOL1         0.0959
       3    H2      21.439636   20.100766   21.833373 H          1 MOL1         0.0959
       4    H3      22.095155   19.851237   20.208271 H          1 MOL1         0.0959
       5    C2      20.134103   18.931193   20.506241 C.3        1 MOL1        -0.1410
       6    H4      20.532637   17.964593   20.842093 H          1 MOL1         0.0948
       7    H5      19.988292   18.835022   19.421293 H          1 MOL1         0.0948
       8    C3      18.758031   19.202490   21.165955 C.3        1 MOL1        -0.1435
       9    H6      18.328643   20.114449   20.728860 H          1 MOL1         0.0948
      10    H7      18.070344   18.388551   20.898203 H          1 MOL1         0.0948
      11    C4      18.783030   19.354450   22.708557 C.3        1 MOL1        -0.1435
      12    H8      17.760704   19.564935   23.051498 H          1 MOL1         0.0948
      13    H9      19.381249   20.233090   22.981330 H          1 MOL1         0.0948
      14    C5      19.311801   18.096647   23.442530 C.3        1 MOL1        -0.1435
      15    H10     18.757772   17.215800   23.090225 H          1 MOL1         0.0948
      16    H11     20.362386   17.918560   23.181089 H          1 MOL1         0.0948
      17    C6      19.165148   18.186302   24.983302 C.3        1 MOL1        -0.1500
      18    H12     19.542938   17.258659   25.433291 H          1 MOL1         0.0948
      19    H13     18.095537   18.229294   25.227540 H          1 MOL1         0.0948
      20    C7      19.872286   19.396567   25.637621 C.3        1 MOL1         0.1162
      21    H14     19.488513   20.311503   25.176803 H          1 MOL1         0.0910
      22    C8      21.397652   19.352833   25.437786 C.3        1 MOL1        -0.2491
      23    H15     21.823625   18.424727   25.838780 H          1 MOL1         0.0959
      24    H16     21.662178   19.421644   24.376420 H          1 MOL1         0.0959
      25    H17     21.878674   20.196471   25.947842 H          1 MOL1         0.0959
      26    N1      19.541207   19.491128   27.100993 N.4        1 MOL1        -0.5987
      27    H18     18.531391   19.564164   27.255246 H          1 MOL1         0.3605
      28    H19     19.975353   20.313154   27.530470 H          1 MOL1         0.3605
      29    H20     19.871859   18.668717   27.612884 H          1 MOL1         0.3605
@<TRIPOS>BOND
    1     1     2    1
    2     1     3    1
    3     1     4    1
    4     1     5    1
    5     5     6    1
    6     5     7    1
    7     5     8    1
    8     8     9    1
    9     8    10    1
   10     8    11    1
   11    11    12    1
   12    11    13    1
   13    11    14    1
   14    14    15    1
   15    14    16    1
   16    14    17    1
   17    17    18    1
   18    17    19    1
   19    17    20    1
   20    20    21    1
   21    20    22    1
   22    22    23    1
   23    22    24    1
   24    22    25    1
   25    20    26    1
   26    26    27    1
   27    26    28    1
   28    26    29    1
@<TRIPOS>SUBSTRUCTURE
       1 MOL1            1 RESIDUE      1      MOL     
@<SCITEGIC>MOL_PROPERTY
VM2 Rank
SciTegic.value.IntegerValue
62

@<SCITEGIC>MOL_PROPERTY
Conf_Id
SciTegic.value.IntegerValue
284

@<SCITEGIC>MOL_PROPERTY
Probability
SciTegic.value.DoubleValue
0.36

@<SCITEGIC>MOL_PROPERTY
Sum Probability
SciTegic.value.DoubleValue
96.00

@<SCITEGIC>MOL_PROPERTY
Delta G
SciTegic.value.DoubleValue
2.004

@<SCITEGIC>MOL_PROPERTY
G
SciTegic.value.DoubleValue
35.707

@<SCITEGIC>MOL_PROPERTY
E
SciTegic.value.DoubleValue
-2.506

@<SCITEGIC>MOL_PROPERTY
-TS
SciTegic.value.DoubleValue
38.212

@<SCITEGIC>MOL_PROPERTY
U+W
SciTegic.value.DoubleValue
-26.650

@<SCITEGIC>MOL_PROPERTY
U
SciTegic.value.DoubleValue
25.905

@<SCITEGIC>MOL_PROPERTY
W
SciTegic.value.DoubleValue
-52.555

@<SCITEGIC>MOL_PROPERTY
W(PB)
SciTegic.value.DoubleValue
-54.967

@<SCITEGIC>MOL_PROPERTY
W(SA)
SciTegic.value.DoubleValue
2.412

@<SCITEGIC>MOL_PROPERTY
Valence
SciTegic.value.DoubleValue
4.893

@<SCITEGIC>MOL_PROPERTY
Coulomb
SciTegic.value.DoubleValue
20.129

@<SCITEGIC>MOL_PROPERTY
VdW
SciTegic.value.DoubleValue
0.883

@<SCITEGIC>MOL_PROPERTY
VdW6
SciTegic.value.DoubleValue
-10.962

@<SCITEGIC>MOL_PROPERTY
VdW12
SciTegic.value.DoubleValue
11.845

@<SCITEGIC>MOL_PROPERTY
Bond
SciTegic.value.DoubleValue
0.307

@<SCITEGIC>MOL_PROPERTY
Angle
SciTegic.value.DoubleValue
2.002

@<SCITEGIC>MOL_PROPERTY
Pdih
SciTegic.value.DoubleValue
2.583

@<SCITEGIC>MOL_PROPERTY
Idih
SciTegic.value.DoubleValue
0.000

@<SCITEGIC>MOL_PROPERTY
Tether
SciTegic.value.DoubleValue
0.000

@<TRIPOS>MOLECULE
guest-s15_vm2.mol2 : vm2 ligand conformer 63
          29          28           1
SMALL
USER_CHARGES
 
@<TRIPOS>ATOM
       1    C1      20.368120   20.735062   20.617546 C.3        1 MOL1        -0.2426
       2    H1      19.915339   21.474337   21.290947 H          1 MOL1         0.0959
       3    H2      21.351999   20.461437   21.018254 H          1 MOL1         0.0959
       4    H3      20.530800   21.220532   19.646588 H          1 MOL1         0.0959
       5    C2      19.456317   19.497515   20.457177 C.3        1 MOL1        -0.1410
       6    H4      19.943481   18.761195   19.802813 H          1 MOL1         0.0948
       7    H5      18.533180   19.801629   19.944286 H          1 MOL1         0.0948
       8    C3      19.081004   18.834679   21.804104 C.3        1 MOL1        -0.1435
       9    H6      18.575444   19.574580   22.438372 H          1 MOL1         0.0948
      10    H7      18.349123   18.038406   21.610817 H          1 MOL1         0.0948
      11    C4      20.297459   18.232608   22.551251 C.3        1 MOL1        -0.1435
      12    H8      20.999022   19.028074   22.832392 H          1 MOL1         0.0948
      13    H9      20.846226   17.571254   21.866810 H          1 MOL1         0.0948
      14    C5      19.904473   17.417808   23.810298 C.3        1 MOL1        -0.1435
      15    H10     19.294071   16.557206   23.503950 H          1 MOL1         0.0948
      16    H11     20.812840   16.990540   24.255619 H          1 MOL1         0.0948
      17    C6      19.128330   18.220624   24.888775 C.3        1 MOL1        -0.1500
      18    H12     18.961622   17.575690   25.761658 H          1 MOL1         0.0948
      19    H13     18.130251   18.459937   24.500270 H          1 MOL1         0.0948
      20    C7      19.814061   19.529787   25.344422 C.3        1 MOL1         0.1162
      21    H14     19.986825   20.153088   24.461947 H          1 MOL1         0.0910
      22    C8      21.167604   19.263619   26.026607 C.3        1 MOL1        -0.2491
      23    H15     21.050594   18.604186   26.895558 H          1 MOL1         0.0959
      24    H16     21.876943   18.795725   25.334073 H          1 MOL1         0.0959
      25    H17     21.618745   20.202671   26.369969 H          1 MOL1         0.0959
      26    N1      18.918633   20.324298   26.253820 N.4        1 MOL1        -0.5987
      27    H18     18.026791   20.548997   25.803449 H          1 MOL1         0.3605
      28    H19     19.354080   21.209981   26.526966 H          1 MOL1         0.3605
      29    H20     18.708273   19.809892   27.113399 H          1 MOL1         0.3605
@<TRIPOS>BOND
    1     1     2    1
    2     1     3    1
    3     1     4    1
    4     1     5    1
    5     5     6    1
    6     5     7    1
    7     5     8    1
    8     8     9    1
    9     8    10    1
   10     8    11    1
   11    11    12    1
   12    11    13    1
   13    11    14    1
   14    14    15    1
   15    14    16    1
   16    14    17    1
   17    17    18    1
   18    17    19    1
   19    17    20    1
   20    20    21    1
   21    20    22    1
   22    22    23    1
   23    22    24    1
   24    22    25    1
   25    20    26    1
   26    26    27    1
   27    26    28    1
   28    26    29    1
@<TRIPOS>SUBSTRUCTURE
       1 MOL1            1 RESIDUE      1      MOL     
@<SCITEGIC>MOL_PROPERTY
VM2 Rank
SciTegic.value.IntegerValue
63

@<SCITEGIC>MOL_PROPERTY
Conf_Id
SciTegic.value.IntegerValue
1228

@<SCITEGIC>MOL_PROPERTY
Probability
SciTegic.value.DoubleValue
0.34

@<SCITEGIC>MOL_PROPERTY
Sum Probability
SciTegic.value.DoubleValue
96.34

@<SCITEGIC>MOL_PROPERTY
Delta G
SciTegic.value.DoubleValue
2.034

@<SCITEGIC>MOL_PROPERTY
G
SciTegic.value.DoubleValue
35.737

@<SCITEGIC>MOL_PROPERTY
E
SciTegic.value.DoubleValue
-2.371

@<SCITEGIC>MOL_PROPERTY
-TS
SciTegic.value.DoubleValue
38.107

@<SCITEGIC>MOL_PROPERTY
U+W
SciTegic.value.DoubleValue
-26.515

@<SCITEGIC>MOL_PROPERTY
U
SciTegic.value.DoubleValue
26.272

@<SCITEGIC>MOL_PROPERTY
W
SciTegic.value.DoubleValue
-52.788

@<SCITEGIC>MOL_PROPERTY
W(PB)
SciTegic.value.DoubleValue
-55.204

@<SCITEGIC>MOL_PROPERTY
W(SA)
SciTegic.value.DoubleValue
2.416

@<SCITEGIC>MOL_PROPERTY
Valence
SciTegic.value.DoubleValue
4.867

@<SCITEGIC>MOL_PROPERTY
Coulomb
SciTegic.value.DoubleValue
20.504

@<SCITEGIC>MOL_PROPERTY
VdW
SciTegic.value.DoubleValue
0.902

@<SCITEGIC>MOL_PROPERTY
VdW6
SciTegic.value.DoubleValue
-10.948

@<SCITEGIC>MOL_PROPERTY
VdW12
SciTegic.value.DoubleValue
11.850

@<SCITEGIC>MOL_PROPERTY
Bond
SciTegic.value.DoubleValue
0.308

@<SCITEGIC>MOL_PROPERTY
Angle
SciTegic.value.DoubleValue
1.874

@<SCITEGIC>MOL_PROPERTY
Pdih
SciTegic.value.DoubleValue
2.685

@<SCITEGIC>MOL_PROPERTY
Idih
SciTegic.value.DoubleValue
0.000

@<SCITEGIC>MOL_PROPERTY
Tether
SciTegic.value.DoubleValue
0.000

@<TRIPOS>MOLECULE
guest-s15_vm2.mol2 : vm2 ligand conformer 64
          29          28           1
SMALL
USER_CHARGES
 
@<TRIPOS>ATOM
       1    C1      19.321759   20.643636   19.937582 C.3        1 MOL1        -0.2426
       2    H1      18.387051   21.178617   19.725176 H          1 MOL1         0.0959
       3    H2      20.073932   21.384876   20.237591 H          1 MOL1         0.0959
       4    H3      19.659130   20.171839   19.005491 H          1 MOL1         0.0959
       5    C2      19.107518   19.591719   21.046294 C.3        1 MOL1        -0.1410
       6    H4      18.330027   18.882082   20.730828 H          1 MOL1         0.0948
       7    H5      18.733398   20.095611   21.947266 H          1 MOL1         0.0948
       8    C3      20.413290   18.827023   21.366581 C.3        1 MOL1        -0.1435
       9    H6      20.810690   18.396003   20.437351 H          1 MOL1         0.0948
      10    H7      21.178159   19.530081   21.721529 H          1 MOL1         0.0948
      11    C4      20.226739   17.680036   22.393499 C.3        1 MOL1        -0.1435
      12    H8      21.193366   17.179318   22.541982 H          1 MOL1         0.0948
      13    H9      19.560239   16.921720   21.960003 H          1 MOL1         0.0948
      14    C5      19.663150   18.104411   23.774552 C.3        1 MOL1        -0.1435
      15    H10     18.645321   18.495527   23.652713 H          1 MOL1         0.0948
      16    H11     19.568489   17.199750   24.388647 H          1 MOL1         0.0948
      17    C6      20.553189   19.142201   24.511539 C.3        1 MOL1        -0.1500
      18    H12     20.624385   20.057031   23.910589 H          1 MOL1         0.0948
      19    H13     21.576045   18.751415   24.592400 H          1 MOL1         0.0948
      20    C7      20.057965   19.539153   25.922316 C.3        1 MOL1         0.1162
      21    H14     20.739609   20.307101   26.300956 H          1 MOL1         0.0910
      22    C8      20.099166   18.357497   26.906998 C.3        1 MOL1        -0.2491
      23    H15     21.093131   17.893308   26.917887 H          1 MOL1         0.0959
      24    H16     19.881600   18.700597   27.925888 H          1 MOL1         0.0959
      25    H17     19.362399   17.587509   26.649663 H          1 MOL1         0.0959
      26    N1      18.693222   20.170324   25.894639 N.4        1 MOL1        -0.5987
      27    H18     18.406756   20.482040   26.827076 H          1 MOL1         0.3605
      28    H19     17.986572   19.510215   25.560825 H          1 MOL1         0.3605
      29    H20     18.670026   20.987306   25.277771 H          1 MOL1         0.3605
@<TRIPOS>BOND
    1     1     2    1
    2     1     3    1
    3     1     4    1
    4     1     5    1
    5     5     6    1
    6     5     7    1
    7     5     8    1
    8     8     9    1
    9     8    10    1
   10     8    11    1
   11    11    12    1
   12    11    13    1
   13    11    14    1
   14    14    15    1
   15    14    16    1
   16    14    17    1
   17    17    18    1
   18    17    19    1
   19    17    20    1
   20    20    21    1
   21    20    22    1
   22    22    23    1
   23    22    24    1
   24    22    25    1
   25    20    26    1
   26    26    27    1
   27    26    28    1
   28    26    29    1
@<TRIPOS>SUBSTRUCTURE
       1 MOL1            1 RESIDUE      1      MOL     
@<SCITEGIC>MOL_PROPERTY
VM2 Rank
SciTegic.value.IntegerValue
64

@<SCITEGIC>MOL_PROPERTY
Conf_Id
SciTegic.value.IntegerValue
1022

@<SCITEGIC>MOL_PROPERTY
Probability
SciTegic.value.DoubleValue
0.34

@<SCITEGIC>MOL_PROPERTY
Sum Probability
SciTegic.value.DoubleValue
96.67

@<SCITEGIC>MOL_PROPERTY
Delta G
SciTegic.value.DoubleValue
2.043

@<SCITEGIC>MOL_PROPERTY
G
SciTegic.value.DoubleValue
35.745

@<SCITEGIC>MOL_PROPERTY
E
SciTegic.value.DoubleValue
-2.216

@<SCITEGIC>MOL_PROPERTY
-TS
SciTegic.value.DoubleValue
37.961

@<SCITEGIC>MOL_PROPERTY
U+W
SciTegic.value.DoubleValue
-26.361

@<SCITEGIC>MOL_PROPERTY
U
SciTegic.value.DoubleValue
26.386

@<SCITEGIC>MOL_PROPERTY
W
SciTegic.value.DoubleValue
-52.747

@<SCITEGIC>MOL_PROPERTY
W(PB)
SciTegic.value.DoubleValue
-55.195

@<SCITEGIC>MOL_PROPERTY
W(SA)
SciTegic.value.DoubleValue
2.448

@<SCITEGIC>MOL_PROPERTY
Valence
SciTegic.value.DoubleValue
4.726

@<SCITEGIC>MOL_PROPERTY
Coulomb
SciTegic.value.DoubleValue
20.483

@<SCITEGIC>MOL_PROPERTY
VdW
SciTegic.value.DoubleValue
1.177

@<SCITEGIC>MOL_PROPERTY
VdW6
SciTegic.value.DoubleValue
-10.349

@<SCITEGIC>MOL_PROPERTY
VdW12
SciTegic.value.DoubleValue
11.526

@<SCITEGIC>MOL_PROPERTY
Bond
SciTegic.value.DoubleValue
0.319

@<SCITEGIC>MOL_PROPERTY
Angle
SciTegic.value.DoubleValue
1.933

@<SCITEGIC>MOL_PROPERTY
Pdih
SciTegic.value.DoubleValue
2.474

@<SCITEGIC>MOL_PROPERTY
Idih
SciTegic.value.DoubleValue
0.000

@<SCITEGIC>MOL_PROPERTY
Tether
SciTegic.value.DoubleValue
0.000

@<TRIPOS>MOLECULE
guest-s15_vm2.mol2 : vm2 ligand conformer 65
          29          28           1
SMALL
USER_CHARGES
 
@<TRIPOS>ATOM
       1    C1      20.236999   19.531282   19.573906 C.3        1 MOL1        -0.2426
       2    H1      20.516146   20.231670   18.776127 H          1 MOL1         0.0959
       3    H2      21.131182   18.948967   19.827976 H          1 MOL1         0.0959
       4    H3      19.482185   18.844839   19.168855 H          1 MOL1         0.0959
       5    C2      19.690087   20.298360   20.799167 C.3        1 MOL1        -0.1410
       6    H4      18.879814   20.962038   20.466381 H          1 MOL1         0.0948
       7    H5      20.474083   20.951456   21.207226 H          1 MOL1         0.0948
       8    C3      19.145670   19.373606   21.914584 C.3        1 MOL1        -0.1435
       9    H6      18.663681   20.005019   22.671935 H          1 MOL1         0.0948
      10    H7      18.359013   18.726246   21.503407 H          1 MOL1         0.0948
      11    C4      20.240635   18.505176   22.584253 C.3        1 MOL1        -0.1435
      12    H8      21.032742   19.151710   22.984497 H          1 MOL1         0.0948
      13    H9      20.719898   17.873267   21.825585 H          1 MOL1         0.0948
      14    C5      19.697511   17.576841   23.701441 C.3        1 MOL1        -0.1435
      15    H10     18.977226   16.872876   23.262445 H          1 MOL1         0.0948
      16    H11     20.521632   16.956734   24.078716 H          1 MOL1         0.0948
      17    C6      19.018217   18.307865   24.890763 C.3        1 MOL1        -0.1500
      18    H12     18.742800   17.566904   25.652863 H          1 MOL1         0.0948
      19    H13     18.072242   18.743400   24.545016 H          1 MOL1         0.0948
      20    C7      19.871620   19.419219   25.545048 C.3        1 MOL1         0.1162
      21    H14     20.150684   20.139925   24.770625 H          1 MOL1         0.0910
      22    C8      21.158054   18.859777   26.177904 C.3        1 MOL1        -0.2491
      23    H15     20.929185   18.098154   26.933663 H          1 MOL1         0.0959
      24    H16     21.809353   18.407115   25.421187 H          1 MOL1         0.0959
      25    H17     21.729843   19.660211   26.663298 H          1 MOL1         0.0959
      26    N1      19.077206   20.183874   26.566933 N.4        1 MOL1        -0.5987
      27    H18     18.236603   20.600873   26.156790 H          1 MOL1         0.3605
      28    H19     19.627261   20.945199   26.974970 H          1 MOL1         0.3605
      29    H20     18.776699   19.578571   27.335724 H          1 MOL1         0.3605
@<TRIPOS>BOND
    1     1     2    1
    2     1     3    1
    3     1     4    1
    4     1     5    1
    5     5     6    1
    6     5     7    1
    7     5     8    1
    8     8     9    1
    9     8    10    1
   10     8    11    1
   11    11    12    1
   12    11    13    1
   13    11    14    1
   14    14    15    1
   15    14    16    1
   16    14    17    1
   17    17    18    1
   18    17    19    1
   19    17    20    1
   20    20    21    1
   21    20    22    1
   22    22    23    1
   23    22    24    1
   24    22    25    1
   25    20    26    1
   26    26    27    1
   27    26    28    1
   28    26    29    1
@<TRIPOS>SUBSTRUCTURE
       1 MOL1            1 RESIDUE      1      MOL     
@<SCITEGIC>MOL_PROPERTY
VM2 Rank
SciTegic.value.IntegerValue
65

@<SCITEGIC>MOL_PROPERTY
Conf_Id
SciTegic.value.IntegerValue
927

@<SCITEGIC>MOL_PROPERTY
Probability
SciTegic.value.DoubleValue
0.27

@<SCITEGIC>MOL_PROPERTY
Sum Probability
SciTegic.value.DoubleValue
96.95

@<SCITEGIC>MOL_PROPERTY
Delta G
SciTegic.value.DoubleValue
2.168

@<SCITEGIC>MOL_PROPERTY
G
SciTegic.value.DoubleValue
35.870

@<SCITEGIC>MOL_PROPERTY
E
SciTegic.value.DoubleValue
-2.192

@<SCITEGIC>MOL_PROPERTY
-TS
SciTegic.value.DoubleValue
38.062

@<SCITEGIC>MOL_PROPERTY
U+W
SciTegic.value.DoubleValue
-26.336

@<SCITEGIC>MOL_PROPERTY
U
SciTegic.value.DoubleValue
26.391

@<SCITEGIC>MOL_PROPERTY
W
SciTegic.value.DoubleValue
-52.727

@<SCITEGIC>MOL_PROPERTY
W(PB)
SciTegic.value.DoubleValue
-55.164

@<SCITEGIC>MOL_PROPERTY
W(SA)
SciTegic.value.DoubleValue
2.436

@<SCITEGIC>MOL_PROPERTY
Valence
SciTegic.value.DoubleValue
4.975

@<SCITEGIC>MOL_PROPERTY
Coulomb
SciTegic.value.DoubleValue
20.373

@<SCITEGIC>MOL_PROPERTY
VdW
SciTegic.value.DoubleValue
1.044

@<SCITEGIC>MOL_PROPERTY
VdW6
SciTegic.value.DoubleValue
-10.751

@<SCITEGIC>MOL_PROPERTY
VdW12
SciTegic.value.DoubleValue
11.795

@<SCITEGIC>MOL_PROPERTY
Bond
SciTegic.value.DoubleValue
0.316

@<SCITEGIC>MOL_PROPERTY
Angle
SciTegic.value.DoubleValue
1.997

@<SCITEGIC>MOL_PROPERTY
Pdih
SciTegic.value.DoubleValue
2.662

@<SCITEGIC>MOL_PROPERTY
Idih
SciTegic.value.DoubleValue
0.000

@<SCITEGIC>MOL_PROPERTY
Tether
SciTegic.value.DoubleValue
0.000

@<TRIPOS>MOLECULE
guest-s15_vm2.mol2 : vm2 ligand conformer 66
          29          28           1
SMALL
USER_CHARGES
 
@<TRIPOS>ATOM
       1    C1      18.946321   20.266390   19.913420 C.3        1 MOL1        -0.2426
       2    H1      18.408431   21.025115   20.496696 H          1 MOL1         0.0959
       3    H2      19.780925   20.759291   19.397974 H          1 MOL1         0.0959
       4    H3      18.259910   19.879284   19.149227 H          1 MOL1         0.0959
       5    C2      19.450949   19.124741   20.820970 C.3        1 MOL1        -0.1410
       6    H4      19.957634   18.367284   20.206871 H          1 MOL1         0.0948
       7    H5      18.587596   18.631548   21.286920 H          1 MOL1         0.0948
       8    C3      20.418563   19.646915   21.908684 C.3        1 MOL1        -0.1435
       9    H6      21.239501   20.192060   21.422861 H          1 MOL1         0.0948
      10    H7      19.903260   20.380445   22.542500 H          1 MOL1         0.0948
      11    C4      21.030131   18.523012   22.784260 C.3        1 MOL1        -0.1435
      12    H8      21.748355   18.970906   23.484002 H          1 MOL1         0.0948
      13    H9      21.621311   17.855016   22.142864 H          1 MOL1         0.0948
      14    C5      20.003839   17.669722   23.577168 C.3        1 MOL1        -0.1435
      15    H10     19.394139   17.085615   22.875238 H          1 MOL1         0.0948
      16    H11     20.548513   16.924967   24.172506 H          1 MOL1         0.0948
      17    C6      19.061187   18.482319   24.504731 C.3        1 MOL1        -0.1500
      18    H12     18.418183   17.785568   25.058515 H          1 MOL1         0.0948
      19    H13     18.385032   19.082052   23.882255 H          1 MOL1         0.0948
      20    C7      19.781262   19.417167   25.504206 C.3        1 MOL1         0.1162
      21    H14     20.433149   20.089430   24.938487 H          1 MOL1         0.0910
      22    C8      20.643640   18.632374   26.508564 C.3        1 MOL1        -0.2491
      23    H15     21.447856   18.086845   26.001350 H          1 MOL1         0.0959
      24    H16     21.115258   19.313133   27.227861 H          1 MOL1         0.0959
      25    H17     20.039112   17.909194   27.069968 H          1 MOL1         0.0959
      26    N1      18.800108   20.293361   26.231997 N.4        1 MOL1        -0.5987
      27    H18     18.149254   19.738239   26.794100 H          1 MOL1         0.3605
      28    H19     18.243325   20.856721   25.582912 H          1 MOL1         0.3605
      29    H20     19.276184   20.940715   26.866782 H          1 MOL1         0.3605
@<TRIPOS>BOND
    1     1     2    1
    2     1     3    1
    3     1     4    1
    4     1     5    1
    5     5     6    1
    6     5     7    1
    7     5     8    1
    8     8     9    1
    9     8    10    1
   10     8    11    1
   11    11    12    1
   12    11    13    1
   13    11    14    1
   14    14    15    1
   15    14    16    1
   16    14    17    1
   17    17    18    1
   18    17    19    1
   19    17    20    1
   20    20    21    1
   21    20    22    1
   22    22    23    1
   23    22    24    1
   24    22    25    1
   25    20    26    1
   26    26    27    1
   27    26    28    1
   28    26    29    1
@<TRIPOS>SUBSTRUCTURE
       1 MOL1            1 RESIDUE      1      MOL     
@<SCITEGIC>MOL_PROPERTY
VM2 Rank
SciTegic.value.IntegerValue
66

@<SCITEGIC>MOL_PROPERTY
Conf_Id
SciTegic.value.IntegerValue
839

@<SCITEGIC>MOL_PROPERTY
Probability
SciTegic.value.DoubleValue
0.27

@<SCITEGIC>MOL_PROPERTY
Sum Probability
SciTegic.value.DoubleValue
97.22

@<SCITEGIC>MOL_PROPERTY
Delta G
SciTegic.value.DoubleValue
2.177

@<SCITEGIC>MOL_PROPERTY
G
SciTegic.value.DoubleValue
35.879

@<SCITEGIC>MOL_PROPERTY
E
SciTegic.value.DoubleValue
-2.424

@<SCITEGIC>MOL_PROPERTY
-TS
SciTegic.value.DoubleValue
38.303

@<SCITEGIC>MOL_PROPERTY
U+W
SciTegic.value.DoubleValue
-26.569

@<SCITEGIC>MOL_PROPERTY
U
SciTegic.value.DoubleValue
26.205

@<SCITEGIC>MOL_PROPERTY
W
SciTegic.value.DoubleValue
-52.774

@<SCITEGIC>MOL_PROPERTY
W(PB)
SciTegic.value.DoubleValue
-55.195

@<SCITEGIC>MOL_PROPERTY
W(SA)
SciTegic.value.DoubleValue
2.421

@<SCITEGIC>MOL_PROPERTY
Valence
SciTegic.value.DoubleValue
4.871

@<SCITEGIC>MOL_PROPERTY
Coulomb
SciTegic.value.DoubleValue
20.548

@<SCITEGIC>MOL_PROPERTY
VdW
SciTegic.value.DoubleValue
0.786

@<SCITEGIC>MOL_PROPERTY
VdW6
SciTegic.value.DoubleValue
-11.159

@<SCITEGIC>MOL_PROPERTY
VdW12
SciTegic.value.DoubleValue
11.945

@<SCITEGIC>MOL_PROPERTY
Bond
SciTegic.value.DoubleValue
0.316

@<SCITEGIC>MOL_PROPERTY
Angle
SciTegic.value.DoubleValue
2.038

@<SCITEGIC>MOL_PROPERTY
Pdih
SciTegic.value.DoubleValue
2.517

@<SCITEGIC>MOL_PROPERTY
Idih
SciTegic.value.DoubleValue
0.000

@<SCITEGIC>MOL_PROPERTY
Tether
SciTegic.value.DoubleValue
0.000

@<TRIPOS>MOLECULE
guest-s15_vm2.mol2 : vm2 ligand conformer 67
          29          28           1
SMALL
USER_CHARGES
 
@<TRIPOS>ATOM
       1    C1      20.169037   18.186068   20.085195 C.3        1 MOL1        -0.2426
       2    H1      20.232828   18.857273   19.218976 H          1 MOL1         0.0959
       3    H2      21.141205   18.187725   20.593594 H          1 MOL1         0.0959
       4    H3      19.992924   17.169434   19.710708 H          1 MOL1         0.0959
       5    C2      19.031363   18.616888   21.038049 C.3        1 MOL1        -0.1410
       6    H4      18.994717   17.939440   21.901613 H          1 MOL1         0.0948
       7    H5      18.070344   18.495592   20.519147 H          1 MOL1         0.0948
       8    C3      19.153269   20.086508   21.514772 C.3        1 MOL1        -0.1435
       9    H6      19.084233   20.748880   20.640999 H          1 MOL1         0.0948
      10    H7      18.283818   20.331941   22.138899 H          1 MOL1         0.0948
      11    C4      20.455803   20.423971   22.289295 C.3        1 MOL1        -0.1435
      12    H8      20.418407   21.478215   22.596131 H          1 MOL1         0.0948
      13    H9      21.313515   20.346484   21.607958 H          1 MOL1         0.0948
      14    C5      20.725945   19.546273   23.538271 C.3        1 MOL1        -0.1435
      15    H10     20.877034   18.505476   23.225942 H          1 MOL1         0.0948
      16    H11     21.673401   19.869200   23.991263 H          1 MOL1         0.0948
      17    C6      19.602558   19.632058   24.603114 C.3        1 MOL1        -0.1500
      18    H12     18.672341   19.207743   24.204494 H          1 MOL1         0.0948
      19    H13     19.399716   20.690696   24.811851 H          1 MOL1         0.0948
      20    C7      19.955533   18.927782   25.932620 C.3        1 MOL1         0.1162
      21    H14     20.906095   19.332231   26.293794 H          1 MOL1         0.0910
      22    C8      20.107433   17.405986   25.758332 C.3        1 MOL1        -0.2491
      23    H15     19.196333   16.961731   25.338526 H          1 MOL1         0.0959
      24    H16     20.945701   17.162160   25.095555 H          1 MOL1         0.0959
      25    H17     20.306928   16.924674   26.723664 H          1 MOL1         0.0959
      26    N1      18.935058   19.230466   26.994352 N.4        1 MOL1        -0.5987
      27    H18     18.848307   20.237801   27.157502 H          1 MOL1         0.3605
      28    H19     19.185834   18.797816   27.888005 H          1 MOL1         0.3605
      29    H20     18.009294   18.879816   26.734222 H          1 MOL1         0.3605
@<TRIPOS>BOND
    1     1     2    1
    2     1     3    1
    3     1     4    1
    4     1     5    1
    5     5     6    1
    6     5     7    1
    7     5     8    1
    8     8     9    1
    9     8    10    1
   10     8    11    1
   11    11    12    1
   12    11    13    1
   13    11    14    1
   14    14    15    1
   15    14    16    1
   16    14    17    1
   17    17    18    1
   18    17    19    1
   19    17    20    1
   20    20    21    1
   21    20    22    1
   22    22    23    1
   23    22    24    1
   24    22    25    1
   25    20    26    1
   26    26    27    1
   27    26    28    1
   28    26    29    1
@<TRIPOS>SUBSTRUCTURE
       1 MOL1            1 RESIDUE      1      MOL     
@<SCITEGIC>MOL_PROPERTY
VM2 Rank
SciTegic.value.IntegerValue
67

@<SCITEGIC>MOL_PROPERTY
Conf_Id
SciTegic.value.IntegerValue
138

@<SCITEGIC>MOL_PROPERTY
Probability
SciTegic.value.DoubleValue
0.26

@<SCITEGIC>MOL_PROPERTY
Sum Probability
SciTegic.value.DoubleValue
97.48

@<SCITEGIC>MOL_PROPERTY
Delta G
SciTegic.value.DoubleValue
2.187

@<SCITEGIC>MOL_PROPERTY
G
SciTegic.value.DoubleValue
35.889

@<SCITEGIC>MOL_PROPERTY
E
SciTegic.value.DoubleValue
-2.306

@<SCITEGIC>MOL_PROPERTY
-TS
SciTegic.value.DoubleValue
38.195

@<SCITEGIC>MOL_PROPERTY
U+W
SciTegic.value.DoubleValue
-26.451

@<SCITEGIC>MOL_PROPERTY
U
SciTegic.value.DoubleValue
26.061

@<SCITEGIC>MOL_PROPERTY
W
SciTegic.value.DoubleValue
-52.512

@<SCITEGIC>MOL_PROPERTY
W(PB)
SciTegic.value.DoubleValue
-54.927

@<SCITEGIC>MOL_PROPERTY
W(SA)
SciTegic.value.DoubleValue
2.416

@<SCITEGIC>MOL_PROPERTY
Valence
SciTegic.value.DoubleValue
5.062

@<SCITEGIC>MOL_PROPERTY
Coulomb
SciTegic.value.DoubleValue
19.918

@<SCITEGIC>MOL_PROPERTY
VdW
SciTegic.value.DoubleValue
1.081

@<SCITEGIC>MOL_PROPERTY
VdW6
SciTegic.value.DoubleValue
-10.858

@<SCITEGIC>MOL_PROPERTY
VdW12
SciTegic.value.DoubleValue
11.938

@<SCITEGIC>MOL_PROPERTY
Bond
SciTegic.value.DoubleValue
0.323

@<SCITEGIC>MOL_PROPERTY
Angle
SciTegic.value.DoubleValue
2.057

@<SCITEGIC>MOL_PROPERTY
Pdih
SciTegic.value.DoubleValue
2.682

@<SCITEGIC>MOL_PROPERTY
Idih
SciTegic.value.DoubleValue
0.000

@<SCITEGIC>MOL_PROPERTY
Tether
SciTegic.value.DoubleValue
0.000

@<TRIPOS>MOLECULE
guest-s15_vm2.mol2 : vm2 ligand conformer 68
          29          28           1
SMALL
USER_CHARGES
 
@<TRIPOS>ATOM
       1    C1      18.969010   18.328956   20.194706 C.3        1 MOL1        -0.2426
       2    H1      18.102458   18.513783   20.841628 H          1 MOL1         0.0959
       3    H2      18.919011   19.023571   19.346221 H          1 MOL1         0.0959
       4    H3      18.876262   17.308863   19.800239 H          1 MOL1         0.0959
       5    C2      20.297185   18.492155   20.967468 C.3        1 MOL1        -0.1410
       6    H4      21.126952   18.193730   20.311759 H          1 MOL1         0.0948
       7    H5      20.319708   17.796520   21.816942 H          1 MOL1         0.0948
       8    C3      20.549496   19.941452   21.455059 C.3        1 MOL1        -0.1435
       9    H6      21.532341   19.987761   21.942338 H          1 MOL1         0.0948
      10    H7      20.624684   20.601118   20.579751 H          1 MOL1         0.0948
      11    C4      19.470398   20.513630   22.413577 C.3        1 MOL1        -0.1435
      12    H8      18.527414   20.636452   21.864383 H          1 MOL1         0.0948
      13    H9      19.769720   21.527098   22.713985 H          1 MOL1         0.0948
      14    C5      19.202283   19.670879   23.686946 C.3        1 MOL1        -0.1435
      15    H10     18.409102   20.166633   24.261419 H          1 MOL1         0.0948
      16    H11     18.801437   18.691330   23.397931 H          1 MOL1         0.0948
      17    C6      20.458929   19.495224   24.582232 C.3        1 MOL1        -0.1500
      18    H12     20.889830   20.481935   24.796404 H          1 MOL1         0.0948
      19    H13     21.229457   18.940350   24.032585 H          1 MOL1         0.0948
      20    C7      20.203742   18.768962   25.923808 C.3        1 MOL1         0.1162
      21    H14     21.157630   18.730019   26.458899 H          1 MOL1         0.0910
      22    C8      19.727922   17.320786   25.714532 C.3        1 MOL1        -0.2491
      23    H15     18.728059   17.283236   25.266055 H          1 MOL1         0.0959
      24    H16     20.418948   16.773939   25.061064 H          1 MOL1         0.0959
      25    H17     19.685274   16.788923   26.672906 H          1 MOL1         0.0959
      26    N1      19.257037   19.523956   26.815672 N.4        1 MOL1        -0.5987
      27    H18     19.148653   19.061529   27.722870 H          1 MOL1         0.3605
      28    H19     18.327648   19.595498   26.394325 H          1 MOL1         0.3605
      29    H20     19.589055   20.475991   26.994735 H          1 MOL1         0.3605
@<TRIPOS>BOND
    1     1     2    1
    2     1     3    1
    3     1     4    1
    4     1     5    1
    5     5     6    1
    6     5     7    1
    7     5     8    1
    8     8     9    1
    9     8    10    1
   10     8    11    1
   11    11    12    1
   12    11    13    1
   13    11    14    1
   14    14    15    1
   15    14    16    1
   16    14    17    1
   17    17    18    1
   18    17    19    1
   19    17    20    1
   20    20    21    1
   21    20    22    1
   22    22    23    1
   23    22    24    1
   24    22    25    1
   25    20    26    1
   26    26    27    1
   27    26    28    1
   28    26    29    1
@<TRIPOS>SUBSTRUCTURE
       1 MOL1            1 RESIDUE      1      MOL     
@<SCITEGIC>MOL_PROPERTY
VM2 Rank
SciTegic.value.IntegerValue
68

@<SCITEGIC>MOL_PROPERTY
Conf_Id
SciTegic.value.IntegerValue
203

@<SCITEGIC>MOL_PROPERTY
Probability
SciTegic.value.DoubleValue
0.23

@<SCITEGIC>MOL_PROPERTY
Sum Probability
SciTegic.value.DoubleValue
97.71

@<SCITEGIC>MOL_PROPERTY
Delta G
SciTegic.value.DoubleValue
2.281

@<SCITEGIC>MOL_PROPERTY
G
SciTegic.value.DoubleValue
35.983

@<SCITEGIC>MOL_PROPERTY
E
SciTegic.value.DoubleValue
-2.346

@<SCITEGIC>MOL_PROPERTY
-TS
SciTegic.value.DoubleValue
38.329

@<SCITEGIC>MOL_PROPERTY
U+W
SciTegic.value.DoubleValue
-26.491

@<SCITEGIC>MOL_PROPERTY
U
SciTegic.value.DoubleValue
26.082

@<SCITEGIC>MOL_PROPERTY
W
SciTegic.value.DoubleValue
-52.573

@<SCITEGIC>MOL_PROPERTY
W(PB)
SciTegic.value.DoubleValue
-54.969

@<SCITEGIC>MOL_PROPERTY
W(SA)
SciTegic.value.DoubleValue
2.396

@<SCITEGIC>MOL_PROPERTY
Valence
SciTegic.value.DoubleValue
5.054

@<SCITEGIC>MOL_PROPERTY
Coulomb
SciTegic.value.DoubleValue
19.931

@<SCITEGIC>MOL_PROPERTY
VdW
SciTegic.value.DoubleValue
1.097

@<SCITEGIC>MOL_PROPERTY
VdW6
SciTegic.value.DoubleValue
-11.342

@<SCITEGIC>MOL_PROPERTY
VdW12
SciTegic.value.DoubleValue
12.439

@<SCITEGIC>MOL_PROPERTY
Bond
SciTegic.value.DoubleValue
0.355

@<SCITEGIC>MOL_PROPERTY
Angle
SciTegic.value.DoubleValue
2.147

@<SCITEGIC>MOL_PROPERTY
Pdih
SciTegic.value.DoubleValue
2.552

@<SCITEGIC>MOL_PROPERTY
Idih
SciTegic.value.DoubleValue
0.000

@<SCITEGIC>MOL_PROPERTY
Tether
SciTegic.value.DoubleValue
0.000

@<TRIPOS>MOLECULE
guest-s15_vm2.mol2 : vm2 ligand conformer 69
          29          28           1
SMALL
USER_CHARGES
 
@<TRIPOS>ATOM
       1    C1      20.501420   20.130039   20.075325 C.3        1 MOL1        -0.2426
       2    H1      20.668145   21.162130   19.740968 H          1 MOL1         0.0959
       3    H2      21.406487   19.802228   20.601633 H          1 MOL1         0.0959
       4    H3      20.376724   19.503301   19.182816 H          1 MOL1         0.0959
       5    C2      19.256385   20.050512   20.987190 C.3        1 MOL1        -0.1410
       6    H4      18.399678   20.486855   20.455029 H          1 MOL1         0.0948
       7    H5      19.407913   20.675648   21.877267 H          1 MOL1         0.0948
       8    C3      18.893385   18.603023   21.404931 C.3        1 MOL1        -0.1435
       9    H6      17.970367   18.623503   21.999047 H          1 MOL1         0.0948
      10    H7      18.647545   18.026093   20.502866 H          1 MOL1         0.0948
      11    C4      19.997942   17.844638   22.189625 C.3        1 MOL1        -0.1435
      12    H8      20.850647   17.660032   21.522689 H          1 MOL1         0.0948
      13    H9      19.616306   16.850616   22.460286 H          1 MOL1         0.0948
      14    C5      20.510947   18.551080   23.471394 C.3        1 MOL1        -0.1435
      15    H10     21.307906   17.929002   23.898083 H          1 MOL1         0.0948
      16    H11     20.980778   19.508188   23.209204 H          1 MOL1         0.0948
      17    C6      19.406222   18.782757   24.534739 C.3        1 MOL1        -0.1500
      18    H12     18.953001   17.822352   24.813680 H          1 MOL1         0.0948
      19    H13     18.606549   19.388290   24.091249 H          1 MOL1         0.0948
      20    C7      19.906490   19.510697   25.803509 C.3        1 MOL1         0.1162
      21    H14     20.405246   20.434666   25.495079 H          1 MOL1         0.0910
      22    C8      20.906947   18.660701   26.607404 C.3        1 MOL1        -0.2491
      23    H15     21.196971   19.176588   27.531039 H          1 MOL1         0.0959
      24    H16     20.473223   17.690976   26.881665 H          1 MOL1         0.0959
      25    H17     21.825289   18.478312   26.037832 H          1 MOL1         0.0959
      26    N1      18.756261   19.922553   26.679884 N.4        1 MOL1        -0.5987
      27    H18     18.098326   20.527230   26.179595 H          1 MOL1         0.3605
      28    H19     19.079627   20.439379   27.502703 H          1 MOL1         0.3605
      29    H20     18.232897   19.109636   27.016078 H          1 MOL1         0.3605
@<TRIPOS>BOND
    1     1     2    1
    2     1     3    1
    3     1     4    1
    4     1     5    1
    5     5     6    1
    6     5     7    1
    7     5     8    1
    8     8     9    1
    9     8    10    1
   10     8    11    1
   11    11    12    1
   12    11    13    1
   13    11    14    1
   14    14    15    1
   15    14    16    1
   16    14    17    1
   17    17    18    1
   18    17    19    1
   19    17    20    1
   20    20    21    1
   21    20    22    1
   22    22    23    1
   23    22    24    1
   24    22    25    1
   25    20    26    1
   26    26    27    1
   27    26    28    1
   28    26    29    1
@<TRIPOS>SUBSTRUCTURE
       1 MOL1            1 RESIDUE      1      MOL     
@<SCITEGIC>MOL_PROPERTY
VM2 Rank
SciTegic.value.IntegerValue
69

@<SCITEGIC>MOL_PROPERTY
Conf_Id
SciTegic.value.IntegerValue
159

@<SCITEGIC>MOL_PROPERTY
Probability
SciTegic.value.DoubleValue
0.19

@<SCITEGIC>MOL_PROPERTY
Sum Probability
SciTegic.value.DoubleValue
97.89

@<SCITEGIC>MOL_PROPERTY
Delta G
SciTegic.value.DoubleValue
2.392

@<SCITEGIC>MOL_PROPERTY
G
SciTegic.value.DoubleValue
36.094

@<SCITEGIC>MOL_PROPERTY
E
SciTegic.value.DoubleValue
-2.044

@<SCITEGIC>MOL_PROPERTY
-TS
SciTegic.value.DoubleValue
38.138

@<SCITEGIC>MOL_PROPERTY
U+W
SciTegic.value.DoubleValue
-26.188

@<SCITEGIC>MOL_PROPERTY
U
SciTegic.value.DoubleValue
26.466

@<SCITEGIC>MOL_PROPERTY
W
SciTegic.value.DoubleValue
-52.654

@<SCITEGIC>MOL_PROPERTY
W(PB)
SciTegic.value.DoubleValue
-55.087

@<SCITEGIC>MOL_PROPERTY
W(SA)
SciTegic.value.DoubleValue
2.432

@<SCITEGIC>MOL_PROPERTY
Valence
SciTegic.value.DoubleValue
5.199

@<SCITEGIC>MOL_PROPERTY
Coulomb
SciTegic.value.DoubleValue
20.030

@<SCITEGIC>MOL_PROPERTY
VdW
SciTegic.value.DoubleValue
1.237

@<SCITEGIC>MOL_PROPERTY
VdW6
SciTegic.value.DoubleValue
-10.692

@<SCITEGIC>MOL_PROPERTY
VdW12
SciTegic.value.DoubleValue
11.929

@<SCITEGIC>MOL_PROPERTY
Bond
SciTegic.value.DoubleValue
0.334

@<SCITEGIC>MOL_PROPERTY
Angle
SciTegic.value.DoubleValue
2.222

@<SCITEGIC>MOL_PROPERTY
Pdih
SciTegic.value.DoubleValue
2.643

@<SCITEGIC>MOL_PROPERTY
Idih
SciTegic.value.DoubleValue
0.000

@<SCITEGIC>MOL_PROPERTY
Tether
SciTegic.value.DoubleValue
0.000

@<TRIPOS>MOLECULE
guest-s15_vm2.mol2 : vm2 ligand conformer 70
          29          28           1
SMALL
USER_CHARGES
 
@<TRIPOS>ATOM
       1    C1      19.366784   19.196417   19.787896 C.3        1 MOL1        -0.2426
       2    H1      19.774251   20.107497   19.330929 H          1 MOL1         0.0959
       3    H2      19.223679   18.455425   18.990866 H          1 MOL1         0.0959
       4    H3      18.378498   19.431715   20.202028 H          1 MOL1         0.0959
       5    C2      20.318909   18.646644   20.873720 C.3        1 MOL1        -0.1410
       6    H4      21.252400   18.321533   20.393691 H          1 MOL1         0.0948
       7    H5      19.883140   17.745948   21.326078 H          1 MOL1         0.0948
       8    C3      20.663711   19.685035   21.971258 C.3        1 MOL1        -0.1435
       9    H6      21.389672   19.241790   22.665611 H          1 MOL1         0.0948
      10    H7      21.182691   20.533485   21.504612 H          1 MOL1         0.0948
      11    C4      19.448562   20.227323   22.770616 C.3        1 MOL1        -0.1435
      12    H8      18.800173   20.803459   22.097274 H          1 MOL1         0.0948
      13    H9      19.810955   20.952319   23.511328 H          1 MOL1         0.0948
      14    C5      18.593557   19.145200   23.483150 C.3        1 MOL1        -0.1435
      15    H10     17.773133   19.639879   24.019841 H          1 MOL1         0.0948
      16    H11     18.106334   18.511595   22.730197 H          1 MOL1         0.0948
      17    C6      19.380766   18.239988   24.467695 C.3        1 MOL1        -0.1500
      18    H12     20.088039   17.621410   23.900647 H          1 MOL1         0.0948
      19    H13     18.682736   17.538890   24.943998 H          1 MOL1         0.0948
      20    C7      20.150013   19.016374   25.559061 C.3        1 MOL1         0.1162
      21    H14     20.839447   19.708890   25.067078 H          1 MOL1         0.0910
      22    C8      20.975470   18.050068   26.422911 C.3        1 MOL1        -0.2491
      23    H15     21.553241   18.599722   27.176186 H          1 MOL1         0.0959
      24    H16     20.329366   17.332513   26.944024 H          1 MOL1         0.0959
      25    H17     21.685308   17.485347   25.805703 H          1 MOL1         0.0959
      26    N1      19.238227   19.848951   26.417692 N.4        1 MOL1        -0.5987
      27    H18     18.707029   20.517965   25.853773 H          1 MOL1         0.3605
      28    H19     19.763983   20.382288   27.115997 H          1 MOL1         0.3605
      29    H20     18.564358   19.265133   26.920127 H          1 MOL1         0.3605
@<TRIPOS>BOND
    1     1     2    1
    2     1     3    1
    3     1     4    1
    4     1     5    1
    5     5     6    1
    6     5     7    1
    7     5     8    1
    8     8     9    1
    9     8    10    1
   10     8    11    1
   11    11    12    1
   12    11    13    1
   13    11    14    1
   14    14    15    1
   15    14    16    1
   16    14    17    1
   17    17    18    1
   18    17    19    1
   19    17    20    1
   20    20    21    1
   21    20    22    1
   22    22    23    1
   23    22    24    1
   24    22    25    1
   25    20    26    1
   26    26    27    1
   27    26    28    1
   28    26    29    1
@<TRIPOS>SUBSTRUCTURE
       1 MOL1            1 RESIDUE      1      MOL     
@<SCITEGIC>MOL_PROPERTY
VM2 Rank
SciTegic.value.IntegerValue
70

@<SCITEGIC>MOL_PROPERTY
Conf_Id
SciTegic.value.IntegerValue
182

@<SCITEGIC>MOL_PROPERTY
Probability
SciTegic.value.DoubleValue
0.17

@<SCITEGIC>MOL_PROPERTY
Sum Probability
SciTegic.value.DoubleValue
98.07

@<SCITEGIC>MOL_PROPERTY
Delta G
SciTegic.value.DoubleValue
2.438

@<SCITEGIC>MOL_PROPERTY
G
SciTegic.value.DoubleValue
36.140

@<SCITEGIC>MOL_PROPERTY
E
SciTegic.value.DoubleValue
-2.351

@<SCITEGIC>MOL_PROPERTY
-TS
SciTegic.value.DoubleValue
38.491

@<SCITEGIC>MOL_PROPERTY
U+W
SciTegic.value.DoubleValue
-26.495

@<SCITEGIC>MOL_PROPERTY
U
SciTegic.value.DoubleValue
25.928

@<SCITEGIC>MOL_PROPERTY
W
SciTegic.value.DoubleValue
-52.423

@<SCITEGIC>MOL_PROPERTY
W(PB)
SciTegic.value.DoubleValue
-54.828

@<SCITEGIC>MOL_PROPERTY
W(SA)
SciTegic.value.DoubleValue
2.405

@<SCITEGIC>MOL_PROPERTY
Valence
SciTegic.value.DoubleValue
4.806

@<SCITEGIC>MOL_PROPERTY
Coulomb
SciTegic.value.DoubleValue
20.407

@<SCITEGIC>MOL_PROPERTY
VdW
SciTegic.value.DoubleValue
0.715

@<SCITEGIC>MOL_PROPERTY
VdW6
SciTegic.value.DoubleValue
-11.781

@<SCITEGIC>MOL_PROPERTY
VdW12
SciTegic.value.DoubleValue
12.496

@<SCITEGIC>MOL_PROPERTY
Bond
SciTegic.value.DoubleValue
0.347

@<SCITEGIC>MOL_PROPERTY
Angle
SciTegic.value.DoubleValue
2.053

@<SCITEGIC>MOL_PROPERTY
Pdih
SciTegic.value.DoubleValue
2.406

@<SCITEGIC>MOL_PROPERTY
Idih
SciTegic.value.DoubleValue
0.000

@<SCITEGIC>MOL_PROPERTY
Tether
SciTegic.value.DoubleValue
0.000

@<TRIPOS>MOLECULE
guest-s15_vm2.mol2 : vm2 ligand conformer 71
          29          28           1
SMALL
USER_CHARGES
 
@<TRIPOS>ATOM
       1    C1      19.203644   20.870133   20.911384 C.3        1 MOL1        -0.2426
       2    H1      20.118038   21.357147   20.548490 H          1 MOL1         0.0959
       3    H2      18.347123   21.372331   20.443358 H          1 MOL1         0.0959
       4    H3      19.132543   21.034963   21.993155 H          1 MOL1         0.0959
       5    C2      19.202957   19.363965   20.565465 C.3        1 MOL1        -0.1410
       6    H4      19.158973   19.252874   19.473055 H          1 MOL1         0.0948
       7    H5      18.288177   18.894696   20.951267 H          1 MOL1         0.0948
       8    C3      20.453562   18.611168   21.086707 C.3        1 MOL1        -0.1435
       9    H6      20.395456   17.562324   20.764744 H          1 MOL1         0.0948
      10    H7      21.346227   19.026053   20.598722 H          1 MOL1         0.0948
      11    C4      20.659968   18.656496   22.622444 C.3        1 MOL1        -0.1435
      12    H8      20.825451   19.693658   22.940105 H          1 MOL1         0.0948
      13    H9      21.585535   18.115309   22.862324 H          1 MOL1         0.0948
      14    C5      19.489146   18.028103   23.419328 C.3        1 MOL1        -0.1435
      15    H10     18.568127   18.601573   23.255650 H          1 MOL1         0.0948
      16    H11     19.292913   17.018740   23.032379 H          1 MOL1         0.0948
      17    C6      19.775463   17.926179   24.939230 C.3        1 MOL1        -0.1500
      18    H12     20.639918   17.266529   25.092594 H          1 MOL1         0.0948
      19    H13     18.925116   17.436515   25.432163 H          1 MOL1         0.0948
      20    C7      20.050225   19.284330   25.622739 C.3        1 MOL1         0.1162
      21    H14     20.907688   19.751432   25.129462 H          1 MOL1         0.0910
      22    C8      20.404342   19.076297   27.103587 C.3        1 MOL1        -0.2491
      23    H15     20.638210   20.033826   27.585069 H          1 MOL1         0.0959
      24    H16     19.572901   18.613110   27.649549 H          1 MOL1         0.0959
      25    H17     21.283764   18.428393   27.206435 H          1 MOL1         0.0959
      26    N1      18.896693   20.239329   25.483115 N.4        1 MOL1        -0.5987
      27    H18     18.672531   20.407872   24.498815 H          1 MOL1         0.3605
      28    H19     19.106047   21.144952   25.912976 H          1 MOL1         0.3605
      29    H20     18.054161   19.872820   25.934197 H          1 MOL1         0.3605
@<TRIPOS>BOND
    1     1     2    1
    2     1     3    1
    3     1     4    1
    4     1     5    1
    5     5     6    1
    6     5     7    1
    7     5     8    1
    8     8     9    1
    9     8    10    1
   10     8    11    1
   11    11    12    1
   12    11    13    1
   13    11    14    1
   14    14    15    1
   15    14    16    1
   16    14    17    1
   17    17    18    1
   18    17    19    1
   19    17    20    1
   20    20    21    1
   21    20    22    1
   22    22    23    1
   23    22    24    1
   24    22    25    1
   25    20    26    1
   26    26    27    1
   27    26    28    1
   28    26    29    1
@<TRIPOS>SUBSTRUCTURE
       1 MOL1            1 RESIDUE      1      MOL     
@<SCITEGIC>MOL_PROPERTY
VM2 Rank
SciTegic.value.IntegerValue
71

@<SCITEGIC>MOL_PROPERTY
Conf_Id
SciTegic.value.IntegerValue
276

@<SCITEGIC>MOL_PROPERTY
Probability
SciTegic.value.DoubleValue
0.17

@<SCITEGIC>MOL_PROPERTY
Sum Probability
SciTegic.value.DoubleValue
98.23

@<SCITEGIC>MOL_PROPERTY
Delta G
SciTegic.value.DoubleValue
2.463

@<SCITEGIC>MOL_PROPERTY
G
SciTegic.value.DoubleValue
36.165

@<SCITEGIC>MOL_PROPERTY
E
SciTegic.value.DoubleValue
-1.827

@<SCITEGIC>MOL_PROPERTY
-TS
SciTegic.value.DoubleValue
37.992

@<SCITEGIC>MOL_PROPERTY
U+W
SciTegic.value.DoubleValue
-25.971

@<SCITEGIC>MOL_PROPERTY
U
SciTegic.value.DoubleValue
26.280

@<SCITEGIC>MOL_PROPERTY
W
SciTegic.value.DoubleValue
-52.252

@<SCITEGIC>MOL_PROPERTY
W(PB)
SciTegic.value.DoubleValue
-54.676

@<SCITEGIC>MOL_PROPERTY
W(SA)
SciTegic.value.DoubleValue
2.424

@<SCITEGIC>MOL_PROPERTY
Valence
SciTegic.value.DoubleValue
4.387

@<SCITEGIC>MOL_PROPERTY
Coulomb
SciTegic.value.DoubleValue
21.061

@<SCITEGIC>MOL_PROPERTY
VdW
SciTegic.value.DoubleValue
0.832

@<SCITEGIC>MOL_PROPERTY
VdW6
SciTegic.value.DoubleValue
-10.644

@<SCITEGIC>MOL_PROPERTY
VdW12
SciTegic.value.DoubleValue
11.476

@<SCITEGIC>MOL_PROPERTY
Bond
SciTegic.value.DoubleValue
0.296

@<SCITEGIC>MOL_PROPERTY
Angle
SciTegic.value.DoubleValue
1.681

@<SCITEGIC>MOL_PROPERTY
Pdih
SciTegic.value.DoubleValue
2.411

@<SCITEGIC>MOL_PROPERTY
Idih
SciTegic.value.DoubleValue
0.000

@<SCITEGIC>MOL_PROPERTY
Tether
SciTegic.value.DoubleValue
0.000

@<TRIPOS>MOLECULE
guest-s15_vm2.mol2 : vm2 ligand conformer 72
          29          28           1
SMALL
USER_CHARGES
 
@<TRIPOS>ATOM
       1    C1      19.310222   19.982546   19.002672 C.3        1 MOL1        -0.2426
       2    H1      18.468579   19.910245   18.301634 H          1 MOL1         0.0959
       3    H2      19.568342   21.044076   19.111207 H          1 MOL1         0.0959
       4    H3      20.168513   19.466095   18.553373 H          1 MOL1         0.0959
       5    C2      18.939482   19.359853   20.365250 C.3        1 MOL1        -0.1410
       6    H4      18.653939   18.308536   20.219975 H          1 MOL1         0.0948
       7    H5      18.058224   19.874413   20.773248 H          1 MOL1         0.0948
       8    C3      20.108272   19.448550   21.371344 C.3        1 MOL1        -0.1435
       9    H6      20.987188   18.935592   20.956838 H          1 MOL1         0.0948
      10    H7      20.391521   20.500939   21.511617 H          1 MOL1         0.0948
      11    C4      19.741551   18.825432   22.737107 C.3        1 MOL1        -0.1435
      12    H8      19.463553   17.772214   22.592584 H          1 MOL1         0.0948
      13    H9      18.855435   19.333599   23.132628 H          1 MOL1         0.0948
      14    C5      20.918612   18.913714   23.739771 C.3        1 MOL1        -0.1435
      15    H10     21.786920   18.413458   23.288786 H          1 MOL1         0.0948
      16    H11     21.216715   19.960705   23.889681 H          1 MOL1         0.0948
      17    C6      20.634257   18.242700   25.109582 C.3        1 MOL1        -0.1500
      18    H12     21.596305   17.910683   25.522319 H          1 MOL1         0.0948
      19    H13     20.036180   17.332144   24.971983 H          1 MOL1         0.0948
      20    C7      19.971003   19.170704   26.154316 C.3        1 MOL1         0.1162
      21    H14     20.591463   20.066327   26.256545 H          1 MOL1         0.0910
      22    C8      19.910466   18.471368   27.521941 C.3        1 MOL1        -0.2491
      23    H15     19.297584   17.562398   27.475963 H          1 MOL1         0.0959
      24    H16     20.914962   18.189346   27.861348 H          1 MOL1         0.0959
      25    H17     19.478784   19.136705   28.279842 H          1 MOL1         0.0959
      26    N1      18.602135   19.641133   25.752016 N.4        1 MOL1        -0.5987
      27    H18     17.960832   18.853975   25.623496 H          1 MOL1         0.3605
      28    H19     18.636029   20.163711   24.872881 H          1 MOL1         0.3605
      29    H20     18.195497   20.257867   26.461219 H          1 MOL1         0.3605
@<TRIPOS>BOND
    1     1     2    1
    2     1     3    1
    3     1     4    1
    4     1     5    1
    5     5     6    1
    6     5     7    1
    7     5     8    1
    8     8     9    1
    9     8    10    1
   10     8    11    1
   11    11    12    1
   12    11    13    1
   13    11    14    1
   14    14    15    1
   15    14    16    1
   16    14    17    1
   17    17    18    1
   18    17    19    1
   19    17    20    1
   20    20    21    1
   21    20    22    1
   22    22    23    1
   23    22    24    1
   24    22    25    1
   25    20    26    1
   26    26    27    1
   27    26    28    1
   28    26    29    1
@<TRIPOS>SUBSTRUCTURE
       1 MOL1            1 RESIDUE      1      MOL     
@<SCITEGIC>MOL_PROPERTY
VM2 Rank
SciTegic.value.IntegerValue
72

@<SCITEGIC>MOL_PROPERTY
Conf_Id
SciTegic.value.IntegerValue
1307

@<SCITEGIC>MOL_PROPERTY
Probability
SciTegic.value.DoubleValue
0.13

@<SCITEGIC>MOL_PROPERTY
Sum Probability
SciTegic.value.DoubleValue
98.36

@<SCITEGIC>MOL_PROPERTY
Delta G
SciTegic.value.DoubleValue
2.614

@<SCITEGIC>MOL_PROPERTY
G
SciTegic.value.DoubleValue
36.316

@<SCITEGIC>MOL_PROPERTY
E
SciTegic.value.DoubleValue
-0.878

@<SCITEGIC>MOL_PROPERTY
-TS
SciTegic.value.DoubleValue
37.193

@<SCITEGIC>MOL_PROPERTY
U+W
SciTegic.value.DoubleValue
-25.022

@<SCITEGIC>MOL_PROPERTY
U
SciTegic.value.DoubleValue
27.084

@<SCITEGIC>MOL_PROPERTY
W
SciTegic.value.DoubleValue
-52.106

@<SCITEGIC>MOL_PROPERTY
W(PB)
SciTegic.value.DoubleValue
-54.623

@<SCITEGIC>MOL_PROPERTY
W(SA)
SciTegic.value.DoubleValue
2.517

@<SCITEGIC>MOL_PROPERTY
Valence
SciTegic.value.DoubleValue
5.156

@<SCITEGIC>MOL_PROPERTY
Coulomb
SciTegic.value.DoubleValue
20.851

@<SCITEGIC>MOL_PROPERTY
VdW
SciTegic.value.DoubleValue
1.077

@<SCITEGIC>MOL_PROPERTY
VdW6
SciTegic.value.DoubleValue
-8.818

@<SCITEGIC>MOL_PROPERTY
VdW12
SciTegic.value.DoubleValue
9.894

@<SCITEGIC>MOL_PROPERTY
Bond
SciTegic.value.DoubleValue
0.258

@<SCITEGIC>MOL_PROPERTY
Angle
SciTegic.value.DoubleValue
1.436

@<SCITEGIC>MOL_PROPERTY
Pdih
SciTegic.value.DoubleValue
3.462

@<SCITEGIC>MOL_PROPERTY
Idih
SciTegic.value.DoubleValue
0.000

@<SCITEGIC>MOL_PROPERTY
Tether
SciTegic.value.DoubleValue
0.000

@<TRIPOS>MOLECULE
guest-s15_vm2.mol2 : vm2 ligand conformer 73
          29          28           1
SMALL
USER_CHARGES
 
@<TRIPOS>ATOM
       1    C1      19.633219   18.983548   19.766844 C.3        1 MOL1        -0.2426
       2    H1      18.856272   18.804063   19.012563 H          1 MOL1         0.0959
       3    H2      20.445123   19.544773   19.286476 H          1 MOL1         0.0959
       4    H3      20.026052   18.006922   20.075818 H          1 MOL1         0.0959
       5    C2      19.052639   19.765143   20.966784 C.3        1 MOL1        -0.1410
       6    H4      18.254490   19.177584   21.439539 H          1 MOL1         0.0948
       7    H5      18.572599   20.680469   20.593606 H          1 MOL1         0.0948
       8    C3      20.121246   20.161054   22.017044 C.3        1 MOL1        -0.1435
       9    H6      20.855627   20.825204   21.541079 H          1 MOL1         0.0948
      10    H7      19.643952   20.763632   22.800988 H          1 MOL1         0.0948
      11    C4      20.878011   18.972097   22.667677 C.3        1 MOL1        -0.1435
      12    H8      21.607156   19.369708   23.386053 H          1 MOL1         0.0948
      13    H9      21.477139   18.461343   21.902292 H          1 MOL1         0.0948
      14    C5      19.976059   17.926575   23.376602 C.3        1 MOL1        -0.1435
      15    H10     19.349866   17.419604   22.630592 H          1 MOL1         0.0948
      16    H11     20.613032   17.139157   23.800692 H          1 MOL1         0.0948
      17    C6      19.061748   18.506116   24.489055 C.3        1 MOL1        -0.1500
      18    H12     18.507520   17.683302   24.959555 H          1 MOL1         0.0948
      19    H13     18.304068   19.149111   24.023701 H          1 MOL1         0.0948
      20    C7      19.799706   19.314959   25.581111 C.3        1 MOL1         0.1162
      21    H14     20.361428   20.117791   25.094469 H          1 MOL1         0.0910
      22    C8      20.786342   18.442413   26.377071 C.3        1 MOL1        -0.2491
      23    H15     20.274704   17.593180   26.846797 H          1 MOL1         0.0959
      24    H16     21.580653   18.050100   25.731474 H          1 MOL1         0.0959
      25    H17     21.269652   19.028774   27.168168 H          1 MOL1         0.0959
      26    N1      18.827030   19.984095   26.511811 N.4        1 MOL1        -0.5987
      27    H18     19.310953   20.551995   27.213211 H          1 MOL1         0.3605
      28    H19     18.258591   19.297251   27.014640 H          1 MOL1         0.3605
      29    H20     18.186572   20.603410   26.006887 H          1 MOL1         0.3605
@<TRIPOS>BOND
    1     1     2    1
    2     1     3    1
    3     1     4    1
    4     1     5    1
    5     5     6    1
    6     5     7    1
    7     5     8    1
    8     8     9    1
    9     8    10    1
   10     8    11    1
   11    11    12    1
   12    11    13    1
   13    11    14    1
   14    14    15    1
   15    14    16    1
   16    14    17    1
   17    17    18    1
   18    17    19    1
   19    17    20    1
   20    20    21    1
   21    20    22    1
   22    22    23    1
   23    22    24    1
   24    22    25    1
   25    20    26    1
   26    26    27    1
   27    26    28    1
   28    26    29    1
@<TRIPOS>SUBSTRUCTURE
       1 MOL1            1 RESIDUE      1      MOL     
@<SCITEGIC>MOL_PROPERTY
VM2 Rank
SciTegic.value.IntegerValue
73

@<SCITEGIC>MOL_PROPERTY
Conf_Id
SciTegic.value.IntegerValue
338

@<SCITEGIC>MOL_PROPERTY
Probability
SciTegic.value.DoubleValue
0.10

@<SCITEGIC>MOL_PROPERTY
Sum Probability
SciTegic.value.DoubleValue
98.46

@<SCITEGIC>MOL_PROPERTY
Delta G
SciTegic.value.DoubleValue
2.763

@<SCITEGIC>MOL_PROPERTY
G
SciTegic.value.DoubleValue
36.466

@<SCITEGIC>MOL_PROPERTY
E
SciTegic.value.DoubleValue
-2.130

@<SCITEGIC>MOL_PROPERTY
-TS
SciTegic.value.DoubleValue
38.596

@<SCITEGIC>MOL_PROPERTY
U+W
SciTegic.value.DoubleValue
-26.275

@<SCITEGIC>MOL_PROPERTY
U
SciTegic.value.DoubleValue
26.596

@<SCITEGIC>MOL_PROPERTY
W
SciTegic.value.DoubleValue
-52.871

@<SCITEGIC>MOL_PROPERTY
W(PB)
SciTegic.value.DoubleValue
-55.273

@<SCITEGIC>MOL_PROPERTY
W(SA)
SciTegic.value.DoubleValue
2.403

@<SCITEGIC>MOL_PROPERTY
Valence
SciTegic.value.DoubleValue
5.292

@<SCITEGIC>MOL_PROPERTY
Coulomb
SciTegic.value.DoubleValue
20.508

@<SCITEGIC>MOL_PROPERTY
VdW
SciTegic.value.DoubleValue
0.796

@<SCITEGIC>MOL_PROPERTY
VdW6
SciTegic.value.DoubleValue
-11.980

@<SCITEGIC>MOL_PROPERTY
VdW12
SciTegic.value.DoubleValue
12.776

@<SCITEGIC>MOL_PROPERTY
Bond
SciTegic.value.DoubleValue
0.357

@<SCITEGIC>MOL_PROPERTY
Angle
SciTegic.value.DoubleValue
2.346

@<SCITEGIC>MOL_PROPERTY
Pdih
SciTegic.value.DoubleValue
2.589

@<SCITEGIC>MOL_PROPERTY
Idih
SciTegic.value.DoubleValue
0.000

@<SCITEGIC>MOL_PROPERTY
Tether
SciTegic.value.DoubleValue
0.000

@<TRIPOS>MOLECULE
guest-s15_vm2.mol2 : vm2 ligand conformer 74
          29          28           1
SMALL
USER_CHARGES
 
@<TRIPOS>ATOM
       1    C1      18.497296   19.673842   20.313583 C.3        1 MOL1        -0.2426
       2    H1      17.817566   20.495613   20.053869 H          1 MOL1         0.0959
       3    H2      18.804651   19.183919   19.380619 H          1 MOL1         0.0959
       4    H3      17.928747   18.950016   20.910569 H          1 MOL1         0.0959
       5    C2      19.722450   20.208736   21.088663 C.3        1 MOL1        -0.1410
       6    H4      19.392277   20.684267   22.021708 H          1 MOL1         0.0948
       7    H5      20.195975   21.004159   20.496547 H          1 MOL1         0.0948
       8    C3      20.782445   19.118868   21.389006 C.3        1 MOL1        -0.1435
       9    H6      21.171463   18.732308   20.437053 H          1 MOL1         0.0948
      10    H7      21.641870   19.584915   21.888634 H          1 MOL1         0.0948
      11    C4      20.277239   17.921314   22.238304 C.3        1 MOL1        -0.1435
      12    H8      21.117760   17.235821   22.413164 H          1 MOL1         0.0948
      13    H9      19.546774   17.346893   21.653145 H          1 MOL1         0.0948
      14    C5      19.642055   18.294923   23.602526 C.3        1 MOL1        -0.1435
      15    H10     18.740796   18.897828   23.435369 H          1 MOL1         0.0948
      16    H11     19.302686   17.366444   24.079181 H          1 MOL1         0.0948
      17    C6      20.619085   19.039914   24.552507 C.3        1 MOL1        -0.1500
      18    H12     20.945282   19.976096   24.083297 H          1 MOL1         0.0948
      19    H13     21.526010   18.435879   24.686988 H          1 MOL1         0.0948
      20    C7      20.037824   19.383506   25.944296 C.3        1 MOL1         0.1162
      21    H14     20.805378   19.943997   26.486930 H          1 MOL1         0.0910
      22    C8      19.715807   18.123764   26.767042 C.3        1 MOL1        -0.2491
      23    H15     18.879001   17.560418   26.337675 H          1 MOL1         0.0959
      24    H16     20.587182   17.459359   26.820198 H          1 MOL1         0.0959
      25    H17     19.442900   18.396582   27.793820 H          1 MOL1         0.0959
      26    N1      18.841800   20.291133   25.858073 N.4        1 MOL1        -0.5987
      27    H18     18.066307   19.836381   25.369870 H          1 MOL1         0.3605
      28    H19     19.061656   21.154680   25.353661 H          1 MOL1         0.3605
      29    H20     18.506338   20.556514   26.788505 H          1 MOL1         0.3605
@<TRIPOS>BOND
    1     1     2    1
    2     1     3    1
    3     1     4    1
    4     1     5    1
    5     5     6    1
    6     5     7    1
    7     5     8    1
    8     8     9    1
    9     8    10    1
   10     8    11    1
   11    11    12    1
   12    11    13    1
   13    11    14    1
   14    14    15    1
   15    14    16    1
   16    14    17    1
   17    17    18    1
   18    17    19    1
   19    17    20    1
   20    20    21    1
   21    20    22    1
   22    22    23    1
   23    22    24    1
   24    22    25    1
   25    20    26    1
   26    26    27    1
   27    26    28    1
   28    26    29    1
@<TRIPOS>SUBSTRUCTURE
       1 MOL1            1 RESIDUE      1      MOL     
@<SCITEGIC>MOL_PROPERTY
VM2 Rank
SciTegic.value.IntegerValue
74

@<SCITEGIC>MOL_PROPERTY
Conf_Id
SciTegic.value.IntegerValue
609

@<SCITEGIC>MOL_PROPERTY
Probability
SciTegic.value.DoubleValue
0.10

@<SCITEGIC>MOL_PROPERTY
Sum Probability
SciTegic.value.DoubleValue
98.56

@<SCITEGIC>MOL_PROPERTY
Delta G
SciTegic.value.DoubleValue
2.784

@<SCITEGIC>MOL_PROPERTY
G
SciTegic.value.DoubleValue
36.486

@<SCITEGIC>MOL_PROPERTY
E
SciTegic.value.DoubleValue
-1.809

@<SCITEGIC>MOL_PROPERTY
-TS
SciTegic.value.DoubleValue
38.296

@<SCITEGIC>MOL_PROPERTY
U+W
SciTegic.value.DoubleValue
-25.954

@<SCITEGIC>MOL_PROPERTY
U
SciTegic.value.DoubleValue
26.775

@<SCITEGIC>MOL_PROPERTY
W
SciTegic.value.DoubleValue
-52.729

@<SCITEGIC>MOL_PROPERTY
W(PB)
SciTegic.value.DoubleValue
-55.142

@<SCITEGIC>MOL_PROPERTY
W(SA)
SciTegic.value.DoubleValue
2.414

@<SCITEGIC>MOL_PROPERTY
Valence
SciTegic.value.DoubleValue
5.136

@<SCITEGIC>MOL_PROPERTY
Coulomb
SciTegic.value.DoubleValue
20.511

@<SCITEGIC>MOL_PROPERTY
VdW
SciTegic.value.DoubleValue
1.129

@<SCITEGIC>MOL_PROPERTY
VdW6
SciTegic.value.DoubleValue
-11.262

@<SCITEGIC>MOL_PROPERTY
VdW12
SciTegic.value.DoubleValue
12.391

@<SCITEGIC>MOL_PROPERTY
Bond
SciTegic.value.DoubleValue
0.358

@<SCITEGIC>MOL_PROPERTY
Angle
SciTegic.value.DoubleValue
2.222

@<SCITEGIC>MOL_PROPERTY
Pdih
SciTegic.value.DoubleValue
2.556

@<SCITEGIC>MOL_PROPERTY
Idih
SciTegic.value.DoubleValue
0.000

@<SCITEGIC>MOL_PROPERTY
Tether
SciTegic.value.DoubleValue
0.000

@<TRIPOS>MOLECULE
guest-s15_vm2.mol2 : vm2 ligand conformer 75
          29          28           1
SMALL
USER_CHARGES
 
@<TRIPOS>ATOM
       1    C1      20.617729   20.659466   20.122572 C.3        1 MOL1        -0.2426
       2    H1      21.612559   20.712965   20.583750 H          1 MOL1         0.0959
       3    H2      20.748206   20.705188   19.033572 H          1 MOL1         0.0959
       4    H3      20.049351   21.546445   20.431536 H          1 MOL1         0.0959
       5    C2      19.886436   19.362781   20.529655 C.3        1 MOL1        -0.1410
       6    H4      20.461427   18.494125   20.179294 H          1 MOL1         0.0948
       7    H5      18.910652   19.321731   20.025644 H          1 MOL1         0.0948
       8    C3      19.688952   19.274722   22.059027 C.3        1 MOL1        -0.1435
       9    H6      20.672371   19.324900   22.543363 H          1 MOL1         0.0948
      10    H7      19.108243   20.141507   22.403197 H          1 MOL1         0.0948
      11    C4      18.971494   17.968227   22.471163 C.3        1 MOL1        -0.1435
      12    H8      19.616823   17.109824   22.238832 H          1 MOL1         0.0948
      13    H9      18.070064   17.846794   21.854654 H          1 MOL1         0.0948
      14    C5      18.546293   17.906236   23.961160 C.3        1 MOL1        -0.1435
      15    H10     17.804359   18.687157   24.171175 H          1 MOL1         0.0948
      16    H11     18.018475   16.954338   24.111691 H          1 MOL1         0.0948
      17    C6      19.717355   17.968045   24.979406 C.3        1 MOL1        -0.1500
      18    H12     20.568172   17.397824   24.583372 H          1 MOL1         0.0948
      19    H13     19.411813   17.451731   25.899194 H          1 MOL1         0.0948
      20    C7      20.172404   19.397624   25.354874 C.3        1 MOL1         0.1162
      21    H14     20.408662   19.947179   24.441193 H          1 MOL1         0.0910
      22    C8      21.441648   19.342131   26.219534 C.3        1 MOL1        -0.2491
      23    H15     21.259336   18.805017   27.158803 H          1 MOL1         0.0959
      24    H16     22.254074   18.832541   25.686571 H          1 MOL1         0.0959
      25    H17     21.788541   20.353316   26.465661 H          1 MOL1         0.0959
      26    N1      19.093688   20.176768   26.056609 N.4        1 MOL1        -0.5987
      27    H18     18.819274   19.726116   26.933626 H          1 MOL1         0.3605
      28    H19     18.254394   20.259612   25.476859 H          1 MOL1         0.3605
      29    H20     19.404773   21.125540   26.283908 H          1 MOL1         0.3605
@<TRIPOS>BOND
    1     1     2    1
    2     1     3    1
    3     1     4    1
    4     1     5    1
    5     5     6    1
    6     5     7    1
    7     5     8    1
    8     8     9    1
    9     8    10    1
   10     8    11    1
   11    11    12    1
   12    11    13    1
   13    11    14    1
   14    14    15    1
   15    14    16    1
   16    14    17    1
   17    17    18    1
   18    17    19    1
   19    17    20    1
   20    20    21    1
   21    20    22    1
   22    22    23    1
   23    22    24    1
   24    22    25    1
   25    20    26    1
   26    26    27    1
   27    26    28    1
   28    26    29    1
@<TRIPOS>SUBSTRUCTURE
       1 MOL1            1 RESIDUE      1      MOL     
@<SCITEGIC>MOL_PROPERTY
VM2 Rank
SciTegic.value.IntegerValue
75

@<SCITEGIC>MOL_PROPERTY
Conf_Id
SciTegic.value.IntegerValue
698

@<SCITEGIC>MOL_PROPERTY
Probability
SciTegic.value.DoubleValue
0.06

@<SCITEGIC>MOL_PROPERTY
Sum Probability
SciTegic.value.DoubleValue
98.63

@<SCITEGIC>MOL_PROPERTY
Delta G
SciTegic.value.DoubleValue
3.025

@<SCITEGIC>MOL_PROPERTY
G
SciTegic.value.DoubleValue
36.727

@<SCITEGIC>MOL_PROPERTY
E
SciTegic.value.DoubleValue
-0.999

@<SCITEGIC>MOL_PROPERTY
-TS
SciTegic.value.DoubleValue
37.726

@<SCITEGIC>MOL_PROPERTY
U+W
SciTegic.value.DoubleValue
-25.143

@<SCITEGIC>MOL_PROPERTY
U
SciTegic.value.DoubleValue
27.273

@<SCITEGIC>MOL_PROPERTY
W
SciTegic.value.DoubleValue
-52.417

@<SCITEGIC>MOL_PROPERTY
W(PB)
SciTegic.value.DoubleValue
-54.885

@<SCITEGIC>MOL_PROPERTY
W(SA)
SciTegic.value.DoubleValue
2.468

@<SCITEGIC>MOL_PROPERTY
Valence
SciTegic.value.DoubleValue
5.665

@<SCITEGIC>MOL_PROPERTY
Coulomb
SciTegic.value.DoubleValue
20.783

@<SCITEGIC>MOL_PROPERTY
VdW
SciTegic.value.DoubleValue
0.825

@<SCITEGIC>MOL_PROPERTY
VdW6
SciTegic.value.DoubleValue
-9.945

@<SCITEGIC>MOL_PROPERTY
VdW12
SciTegic.value.DoubleValue
10.770

@<SCITEGIC>MOL_PROPERTY
Bond
SciTegic.value.DoubleValue
0.273

@<SCITEGIC>MOL_PROPERTY
Angle
SciTegic.value.DoubleValue
1.789

@<SCITEGIC>MOL_PROPERTY
Pdih
SciTegic.value.DoubleValue
3.603

@<SCITEGIC>MOL_PROPERTY
Idih
SciTegic.value.DoubleValue
0.000

@<SCITEGIC>MOL_PROPERTY
Tether
SciTegic.value.DoubleValue
0.000

@<TRIPOS>MOLECULE
guest-s15_vm2.mol2 : vm2 ligand conformer 76
          29          28           1
SMALL
USER_CHARGES
 
@<TRIPOS>ATOM
       1    C1      20.302897   19.187872   18.915769 C.3        1 MOL1        -0.2426
       2    H1      19.685257   20.040085   18.603513 H          1 MOL1         0.0959
       3    H2      21.342425   19.531046   18.998587 H          1 MOL1         0.0959
       4    H3      20.259891   18.431411   18.121439 H          1 MOL1         0.0959
       5    C2      19.804009   18.602150   20.253615 C.3        1 MOL1        -0.1410
       6    H4      20.419152   17.731981   20.522487 H          1 MOL1         0.0948
       7    H5      18.774693   18.237116   20.130533 H          1 MOL1         0.0948
       8    C3      19.854261   19.647586   21.389619 C.3        1 MOL1        -0.1435
       9    H6      20.884564   20.010937   21.507230 H          1 MOL1         0.0948
      10    H7      19.240102   20.516446   21.115217 H          1 MOL1         0.0948
      11    C4      19.355953   19.064770   22.731159 C.3        1 MOL1        -0.1435
      12    H8      19.964069   18.190884   22.993879 H          1 MOL1         0.0948
      13    H9      18.325291   18.703482   22.610501 H          1 MOL1         0.0948
      14    C5      19.400255   20.117597   23.865772 C.3        1 MOL1        -0.1435
      15    H10     20.409729   20.541698   23.958288 H          1 MOL1         0.0948
      16    H11     18.746036   20.953486   23.581429 H          1 MOL1         0.0948
      17    C6      18.926103   19.566874   25.236876 C.3        1 MOL1        -0.1500
      18    H12     18.215790   18.742167   25.091562 H          1 MOL1         0.0948
      19    H13     18.360710   20.362697   25.739601 H          1 MOL1         0.0948
      20    C7      20.063568   19.130881   26.191655 C.3        1 MOL1         0.1162
      21    H14     20.721719   19.990459   26.351482 H          1 MOL1         0.0910
      22    C8      20.909993   17.977992   25.626378 C.3        1 MOL1        -0.2491
      23    H15     21.464857   18.297366   24.736681 H          1 MOL1         0.0959
      24    H16     21.649657   17.643176   26.364004 H          1 MOL1         0.0959
      25    H17     20.283115   17.118556   25.358106 H          1 MOL1         0.0959
      26    N1      19.518960   18.760277   27.543157 N.4        1 MOL1        -0.5987
      27    H18     18.891448   17.953704   27.484889 H          1 MOL1         0.3605
      28    H19     18.991007   19.531639   27.961662 H          1 MOL1         0.3605
      29    H20     20.270209   18.516514   28.194983 H          1 MOL1         0.3605
@<TRIPOS>BOND
    1     1     2    1
    2     1     3    1
    3     1     4    1
    4     1     5    1
    5     5     6    1
    6     5     7    1
    7     5     8    1
    8     8     9    1
    9     8    10    1
   10     8    11    1
   11    11    12    1
   12    11    13    1
   13    11    14    1
   14    14    15    1
   15    14    16    1
   16    14    17    1
   17    17    18    1
   18    17    19    1
   19    17    20    1
   20    20    21    1
   21    20    22    1
   22    22    23    1
   23    22    24    1
   24    22    25    1
   25    20    26    1
   26    26    27    1
   27    26    28    1
   28    26    29    1
@<TRIPOS>SUBSTRUCTURE
       1 MOL1            1 RESIDUE      1      MOL     
@<SCITEGIC>MOL_PROPERTY
VM2 Rank
SciTegic.value.IntegerValue
76

@<SCITEGIC>MOL_PROPERTY
Conf_Id
SciTegic.value.IntegerValue
1687

@<SCITEGIC>MOL_PROPERTY
Probability
SciTegic.value.DoubleValue
0.05

@<SCITEGIC>MOL_PROPERTY
Sum Probability
SciTegic.value.DoubleValue
98.67

@<SCITEGIC>MOL_PROPERTY
Delta G
SciTegic.value.DoubleValue
3.195

@<SCITEGIC>MOL_PROPERTY
G
SciTegic.value.DoubleValue
36.897

@<SCITEGIC>MOL_PROPERTY
E
SciTegic.value.DoubleValue
-0.779

@<SCITEGIC>MOL_PROPERTY
-TS
SciTegic.value.DoubleValue
37.675

@<SCITEGIC>MOL_PROPERTY
U+W
SciTegic.value.DoubleValue
-24.923

@<SCITEGIC>MOL_PROPERTY
U
SciTegic.value.DoubleValue
27.070

@<SCITEGIC>MOL_PROPERTY
W
SciTegic.value.DoubleValue
-51.993

@<SCITEGIC>MOL_PROPERTY
W(PB)
SciTegic.value.DoubleValue
-54.494

@<SCITEGIC>MOL_PROPERTY
W(SA)
SciTegic.value.DoubleValue
2.501

@<SCITEGIC>MOL_PROPERTY
Valence
SciTegic.value.DoubleValue
6.259

@<SCITEGIC>MOL_PROPERTY
Coulomb
SciTegic.value.DoubleValue
19.668

@<SCITEGIC>MOL_PROPERTY
VdW
SciTegic.value.DoubleValue
1.143

@<SCITEGIC>MOL_PROPERTY
VdW6
SciTegic.value.DoubleValue
-9.081

@<SCITEGIC>MOL_PROPERTY
VdW12
SciTegic.value.DoubleValue
10.224

@<SCITEGIC>MOL_PROPERTY
Bond
SciTegic.value.DoubleValue
0.251

@<SCITEGIC>MOL_PROPERTY
Angle
SciTegic.value.DoubleValue
1.657

@<SCITEGIC>MOL_PROPERTY
Pdih
SciTegic.value.DoubleValue
4.351

@<SCITEGIC>MOL_PROPERTY
Idih
SciTegic.value.DoubleValue
0.000

@<SCITEGIC>MOL_PROPERTY
Tether
SciTegic.value.DoubleValue
0.000

@<TRIPOS>MOLECULE
guest-s15_vm2.mol2 : vm2 ligand conformer 77
          29          28           1
SMALL
USER_CHARGES
 
@<TRIPOS>ATOM
       1    C1      19.196149   19.162892   19.130533 C.3        1 MOL1        -0.2426
       2    H1      18.335383   19.446641   18.511173 H          1 MOL1         0.0959
       3    H2      20.075657   19.699692   18.751640 H          1 MOL1         0.0959
       4    H3      19.368090   18.086956   18.996208 H          1 MOL1         0.0959
       5    C2      18.935844   19.501988   20.613445 C.3        1 MOL1        -0.1410
       6    H4      18.031903   18.977631   20.953701 H          1 MOL1         0.0948
       7    H5      18.734409   20.577972   20.711353 H          1 MOL1         0.0948
       8    C3      20.133490   19.112125   21.507711 C.3        1 MOL1        -0.1435
       9    H6      20.332072   18.036203   21.405609 H          1 MOL1         0.0948
      10    H7      21.034697   19.636117   21.160338 H          1 MOL1         0.0948
      11    C4      19.877242   19.451490   22.993277 C.3        1 MOL1        -0.1435
      12    H8      18.971819   18.926644   23.320782 H          1 MOL1         0.0948
      13    H9      19.688822   20.529274   23.094225 H          1 MOL1         0.0948
      14    C5      21.073052   19.045998   23.887317 C.3        1 MOL1        -0.1435
      15    H10     21.199420   17.955333   23.863372 H          1 MOL1         0.0948
      16    H11     21.992708   19.460344   23.451646 H          1 MOL1         0.0948
      17    C6      20.982261   19.540454   25.358616 C.3        1 MOL1        -0.1500
      18    H12     20.982196   20.638221   25.372698 H          1 MOL1         0.0948
      19    H13     21.908680   19.243481   25.867617 H          1 MOL1         0.0948
      20    C7      19.795387   19.026786   26.213114 C.3        1 MOL1         0.1162
      21    H14     20.016773   19.291562   27.251663 H          1 MOL1         0.0910
      22    C8      19.645317   17.496780   26.152403 C.3        1 MOL1        -0.2491
      23    H15     18.894691   17.155466   26.875704 H          1 MOL1         0.0959
      24    H16     19.330147   17.159841   25.157630 H          1 MOL1         0.0959
      25    H17     20.593716   17.003414   26.398737 H          1 MOL1         0.0959
      26    N1      18.497258   19.717486   25.897585 N.4        1 MOL1        -0.5987
      27    H18     17.745326   19.399235   26.515731 H          1 MOL1         0.3605
      28    H19     18.204306   19.535901   24.935455 H          1 MOL1         0.3605
      29    H20     18.576483   20.732256   26.010290 H          1 MOL1         0.3605
@<TRIPOS>BOND
    1     1     2    1
    2     1     3    1
    3     1     4    1
    4     1     5    1
    5     5     6    1
    6     5     7    1
    7     5     8    1
    8     8     9    1
    9     8    10    1
   10     8    11    1
   11    11    12    1
   12    11    13    1
   13    11    14    1
   14    14    15    1
   15    14    16    1
   16    14    17    1
   17    17    18    1
   18    17    19    1
   19    17    20    1
   20    20    21    1
   21    20    22    1
   22    22    23    1
   23    22    24    1
   24    22    25    1
   25    20    26    1
   26    26    27    1
   27    26    28    1
   28    26    29    1
@<TRIPOS>SUBSTRUCTURE
       1 MOL1            1 RESIDUE      1      MOL     
@<SCITEGIC>MOL_PROPERTY
VM2 Rank
SciTegic.value.IntegerValue
77

@<SCITEGIC>MOL_PROPERTY
Conf_Id
SciTegic.value.IntegerValue
1304

@<SCITEGIC>MOL_PROPERTY
Probability
SciTegic.value.DoubleValue
0.05

@<SCITEGIC>MOL_PROPERTY
Sum Probability
SciTegic.value.DoubleValue
98.72

@<SCITEGIC>MOL_PROPERTY
Delta G
SciTegic.value.DoubleValue
3.232

@<SCITEGIC>MOL_PROPERTY
G
SciTegic.value.DoubleValue
36.934

@<SCITEGIC>MOL_PROPERTY
E
SciTegic.value.DoubleValue
-1.034

@<SCITEGIC>MOL_PROPERTY
-TS
SciTegic.value.DoubleValue
37.968

@<SCITEGIC>MOL_PROPERTY
U+W
SciTegic.value.DoubleValue
-25.179

@<SCITEGIC>MOL_PROPERTY
U
SciTegic.value.DoubleValue
27.314

@<SCITEGIC>MOL_PROPERTY
W
SciTegic.value.DoubleValue
-52.492

@<SCITEGIC>MOL_PROPERTY
W(PB)
SciTegic.value.DoubleValue
-54.962

@<SCITEGIC>MOL_PROPERTY
W(SA)
SciTegic.value.DoubleValue
2.469

@<SCITEGIC>MOL_PROPERTY
Valence
SciTegic.value.DoubleValue
5.056

@<SCITEGIC>MOL_PROPERTY
Coulomb
SciTegic.value.DoubleValue
21.358

@<SCITEGIC>MOL_PROPERTY
VdW
SciTegic.value.DoubleValue
0.900

@<SCITEGIC>MOL_PROPERTY
VdW6
SciTegic.value.DoubleValue
-10.072

@<SCITEGIC>MOL_PROPERTY
VdW12
SciTegic.value.DoubleValue
10.972

@<SCITEGIC>MOL_PROPERTY
Bond
SciTegic.value.DoubleValue
0.294

@<SCITEGIC>MOL_PROPERTY
Angle
SciTegic.value.DoubleValue
2.163

@<SCITEGIC>MOL_PROPERTY
Pdih
SciTegic.value.DoubleValue
2.600

@<SCITEGIC>MOL_PROPERTY
Idih
SciTegic.value.DoubleValue
0.000

@<SCITEGIC>MOL_PROPERTY
Tether
SciTegic.value.DoubleValue
0.000

@<TRIPOS>MOLECULE
guest-s15_vm2.mol2 : vm2 ligand conformer 78
          29          28           1
SMALL
USER_CHARGES
 
@<TRIPOS>ATOM
       1    C1      20.763277   20.364836   20.580238 C.3        1 MOL1        -0.2426
       2    H1      20.228298   21.225596   21.001831 H          1 MOL1         0.0959
       3    H2      21.411161   19.940064   21.356808 H          1 MOL1         0.0959
       4    H3      21.413893   20.733989   19.776942 H          1 MOL1         0.0959
       5    C2      19.777719   19.309208   20.033722 C.3        1 MOL1        -0.1410
       6    H4      20.340486   18.433649   19.681046 H          1 MOL1         0.0948
       7    H5      19.273385   19.722998   19.149332 H          1 MOL1         0.0948
       8    C3      18.697013   18.857673   21.048993 C.3        1 MOL1        -0.1435
       9    H6      18.062212   19.709671   21.328562 H          1 MOL1         0.0948
      10    H7      18.033017   18.151365   20.531695 H          1 MOL1         0.0948
      11    C4      19.250583   18.158416   22.317884 C.3        1 MOL1        -0.1435
      12    H8      20.196036   17.649788   22.084386 H          1 MOL1         0.0948
      13    H9      18.546200   17.368927   22.614475 H          1 MOL1         0.0948
      14    C5      19.433343   19.117199   23.519832 C.3        1 MOL1        -0.1435
      15    H10     20.108246   19.939304   23.253604 H          1 MOL1         0.0948
      16    H11     18.464092   19.572043   23.763217 H          1 MOL1         0.0948
      17    C6      19.994385   18.378707   24.759183 C.3        1 MOL1        -0.1500
      18    H12     20.935124   17.884814   24.481412 H          1 MOL1         0.0948
      19    H13     19.300878   17.583683   25.064055 H          1 MOL1         0.0948
      20    C7      20.261173   19.321371   25.952522 C.3        1 MOL1         0.1162
      21    H14     20.933596   20.117121   25.617445 H          1 MOL1         0.0910
      22    C8      20.949580   18.556570   27.094195 C.3        1 MOL1        -0.2491
      23    H15     21.896658   18.118854   26.754774 H          1 MOL1         0.0959
      24    H16     21.175002   19.228729   27.931327 H          1 MOL1         0.0959
      25    H17     20.313027   17.745195   27.468916 H          1 MOL1         0.0959
      26    N1      19.008926   19.992019   26.447431 N.4        1 MOL1        -0.5987
      27    H18     18.324862   19.306442   26.778468 H          1 MOL1         0.3605
      28    H19     18.562453   20.541804   25.708481 H          1 MOL1         0.3605
      29    H20     19.207438   20.627782   27.225281 H          1 MOL1         0.3605
@<TRIPOS>BOND
    1     1     2    1
    2     1     3    1
    3     1     4    1
    4     1     5    1
    5     5     6    1
    6     5     7    1
    7     5     8    1
    8     8     9    1
    9     8    10    1
   10     8    11    1
   11    11    12    1
   12    11    13    1
   13    11    14    1
   14    14    15    1
   15    14    16    1
   16    14    17    1
   17    17    18    1
   18    17    19    1
   19    17    20    1
   20    20    21    1
   21    20    22    1
   22    22    23    1
   23    22    24    1
   24    22    25    1
   25    20    26    1
   26    26    27    1
   27    26    28    1
   28    26    29    1
@<TRIPOS>SUBSTRUCTURE
       1 MOL1            1 RESIDUE      1      MOL     
@<SCITEGIC>MOL_PROPERTY
VM2 Rank
SciTegic.value.IntegerValue
78

@<SCITEGIC>MOL_PROPERTY
Conf_Id
SciTegic.value.IntegerValue
488

@<SCITEGIC>MOL_PROPERTY
Probability
SciTegic.value.DoubleValue
0.04

@<SCITEGIC>MOL_PROPERTY
Sum Probability
SciTegic.value.DoubleValue
98.76

@<SCITEGIC>MOL_PROPERTY
Delta G
SciTegic.value.DoubleValue
3.253

@<SCITEGIC>MOL_PROPERTY
G
SciTegic.value.DoubleValue
36.955

@<SCITEGIC>MOL_PROPERTY
E
SciTegic.value.DoubleValue
-0.781

@<SCITEGIC>MOL_PROPERTY
-TS
SciTegic.value.DoubleValue
37.736

@<SCITEGIC>MOL_PROPERTY
U+W
SciTegic.value.DoubleValue
-24.926

@<SCITEGIC>MOL_PROPERTY
U
SciTegic.value.DoubleValue
27.363

@<SCITEGIC>MOL_PROPERTY
W
SciTegic.value.DoubleValue
-52.288

@<SCITEGIC>MOL_PROPERTY
W(PB)
SciTegic.value.DoubleValue
-54.778

@<SCITEGIC>MOL_PROPERTY
W(SA)
SciTegic.value.DoubleValue
2.489

@<SCITEGIC>MOL_PROPERTY
Valence
SciTegic.value.DoubleValue
6.134

@<SCITEGIC>MOL_PROPERTY
Coulomb
SciTegic.value.DoubleValue
20.079

@<SCITEGIC>MOL_PROPERTY
VdW
SciTegic.value.DoubleValue
1.150

@<SCITEGIC>MOL_PROPERTY
VdW6
SciTegic.value.DoubleValue
-9.534

@<SCITEGIC>MOL_PROPERTY
VdW12
SciTegic.value.DoubleValue
10.684

@<SCITEGIC>MOL_PROPERTY
Bond
SciTegic.value.DoubleValue
0.272

@<SCITEGIC>MOL_PROPERTY
Angle
SciTegic.value.DoubleValue
1.638

@<SCITEGIC>MOL_PROPERTY
Pdih
SciTegic.value.DoubleValue
4.224

@<SCITEGIC>MOL_PROPERTY
Idih
SciTegic.value.DoubleValue
0.000

@<SCITEGIC>MOL_PROPERTY
Tether
SciTegic.value.DoubleValue
0.000

@<TRIPOS>MOLECULE
guest-s15_vm2.mol2 : vm2 ligand conformer 79
          29          28           1
SMALL
USER_CHARGES
 
@<TRIPOS>ATOM
       1    C1      18.680634   18.839589   19.718496 C.3        1 MOL1        -0.2426
       2    H1      19.434840   18.161699   19.298178 H          1 MOL1         0.0959
       3    H2      18.111502   18.291943   20.479839 H          1 MOL1         0.0959
       4    H3      17.983226   19.106327   18.913886 H          1 MOL1         0.0959
       5    C2      19.339539   20.108318   20.305547 C.3        1 MOL1        -0.1410
       6    H4      18.568102   20.754979   20.746445 H          1 MOL1         0.0948
       7    H5      19.791461   20.684116   19.485800 H          1 MOL1         0.0948
       8    C3      20.431956   19.803099   21.358676 C.3        1 MOL1        -0.1435
       9    H6      21.213350   19.177812   20.905136 H          1 MOL1         0.0948
      10    H7      20.917178   20.747599   21.641161 H          1 MOL1         0.0948
      11    C4      19.885640   19.114728   22.632351 C.3        1 MOL1        -0.1435
      12    H8      19.468698   18.132990   22.372084 H          1 MOL1         0.0948
      13    H9      19.060629   19.713468   23.032773 H          1 MOL1         0.0948
      14    C5      20.994509   18.925576   23.696965 C.3        1 MOL1        -0.1435
      15    H10     21.810558   18.350352   23.237853 H          1 MOL1         0.0948
      16    H11     21.427897   19.896034   23.976004 H          1 MOL1         0.0948
      17    C6      20.528748   18.168806   24.968970 C.3        1 MOL1        -0.1500
      18    H12     21.406570   17.664143   25.394240 H          1 MOL1         0.0948
      19    H13     19.823624   17.370586   24.701833 H          1 MOL1         0.0948
      20    C7      19.927677   19.072534   26.071039 C.3        1 MOL1         0.1162
      21    H14     20.653925   19.858291   26.300610 H          1 MOL1         0.0910
      22    C8      19.684023   18.256762   27.351004 C.3        1 MOL1        -0.2491
      23    H15     19.295545   18.897579   28.152174 H          1 MOL1         0.0959
      24    H16     18.959935   17.451098   27.176177 H          1 MOL1         0.0959
      25    H17     20.617273   17.805384   27.710231 H          1 MOL1         0.0959
      26    N1      18.663275   19.766587   25.650953 N.4        1 MOL1        -0.5987
      27    H18     17.932921   19.093096   25.405219 H          1 MOL1         0.3605
      28    H19     18.824663   20.364107   24.836095 H          1 MOL1         0.3605
      29    H20     18.296236   20.360340   26.400224 H          1 MOL1         0.3605
@<TRIPOS>BOND
    1     1     2    1
    2     1     3    1
    3     1     4    1
    4     1     5    1
    5     5     6    1
    6     5     7    1
    7     5     8    1
    8     8     9    1
    9     8    10    1
   10     8    11    1
   11    11    12    1
   12    11    13    1
   13    11    14    1
   14    14    15    1
   15    14    16    1
   16    14    17    1
   17    17    18    1
   18    17    19    1
   19    17    20    1
   20    20    21    1
   21    20    22    1
   22    22    23    1
   23    22    24    1
   24    22    25    1
   25    20    26    1
   26    26    27    1
   27    26    28    1
   28    26    29    1
@<TRIPOS>SUBSTRUCTURE
       1 MOL1            1 RESIDUE      1      MOL     
@<SCITEGIC>MOL_PROPERTY
VM2 Rank
SciTegic.value.IntegerValue
79

@<SCITEGIC>MOL_PROPERTY
Conf_Id
SciTegic.value.IntegerValue
1185

@<SCITEGIC>MOL_PROPERTY
Probability
SciTegic.value.DoubleValue
0.04

@<SCITEGIC>MOL_PROPERTY
Sum Probability
SciTegic.value.DoubleValue
98.81

@<SCITEGIC>MOL_PROPERTY
Delta G
SciTegic.value.DoubleValue
3.256

@<SCITEGIC>MOL_PROPERTY
G
SciTegic.value.DoubleValue
36.958

@<SCITEGIC>MOL_PROPERTY
E
SciTegic.value.DoubleValue
-0.312

@<SCITEGIC>MOL_PROPERTY
-TS
SciTegic.value.DoubleValue
37.269

@<SCITEGIC>MOL_PROPERTY
U+W
SciTegic.value.DoubleValue
-24.456

@<SCITEGIC>MOL_PROPERTY
U
SciTegic.value.DoubleValue
27.677

@<SCITEGIC>MOL_PROPERTY
W
SciTegic.value.DoubleValue
-52.133

@<SCITEGIC>MOL_PROPERTY
W(PB)
SciTegic.value.DoubleValue
-54.613

@<SCITEGIC>MOL_PROPERTY
W(SA)
SciTegic.value.DoubleValue
2.480

@<SCITEGIC>MOL_PROPERTY
Valence
SciTegic.value.DoubleValue
5.648

@<SCITEGIC>MOL_PROPERTY
Coulomb
SciTegic.value.DoubleValue
20.828

@<SCITEGIC>MOL_PROPERTY
VdW
SciTegic.value.DoubleValue
1.200

@<SCITEGIC>MOL_PROPERTY
VdW6
SciTegic.value.DoubleValue
-9.461

@<SCITEGIC>MOL_PROPERTY
VdW12
SciTegic.value.DoubleValue
10.661

@<SCITEGIC>MOL_PROPERTY
Bond
SciTegic.value.DoubleValue
0.293

@<SCITEGIC>MOL_PROPERTY
Angle
SciTegic.value.DoubleValue
1.687

@<SCITEGIC>MOL_PROPERTY
Pdih
SciTegic.value.DoubleValue
3.669

@<SCITEGIC>MOL_PROPERTY
Idih
SciTegic.value.DoubleValue
0.000

@<SCITEGIC>MOL_PROPERTY
Tether
SciTegic.value.DoubleValue
0.000

@<TRIPOS>MOLECULE
guest-s15_vm2.mol2 : vm2 ligand conformer 80
          29          28           1
SMALL
USER_CHARGES
 
@<TRIPOS>ATOM
       1    C1      18.495732   18.480142   19.964949 C.3        1 MOL1        -0.2426
       2    H1      18.358109   17.447238   19.619703 H          1 MOL1         0.0959
       3    H2      17.563312   18.801489   20.447170 H          1 MOL1         0.0959
       4    H3      18.659425   19.111622   19.081959 H          1 MOL1         0.0959
       5    C2      19.686015   18.573903   20.942712 C.3        1 MOL1        -0.1410
       6    H4      20.595250   18.213939   20.441296 H          1 MOL1         0.0948
       7    H5      19.508990   17.899110   21.788598 H          1 MOL1         0.0948
       8    C3      19.906090   20.024772   21.434793 C.3        1 MOL1        -0.1435
       9    H6      20.107356   20.654962   20.557434 H          1 MOL1         0.0948
      10    H7      18.985996   20.420158   21.886623 H          1 MOL1         0.0948
      11    C4      21.091646   20.169944   22.424274 C.3        1 MOL1        -0.1435
      12    H8      21.579936   21.135481   22.232596 H          1 MOL1         0.0948
      13    H9      21.855472   19.407212   22.219415 H          1 MOL1         0.0948
      14    C5      20.693359   20.139119   23.922402 C.3        1 MOL1        -0.1435
      15    H10     21.595414   20.324169   24.522108 H          1 MOL1         0.0948
      16    H11     20.010343   20.974224   24.127693 H          1 MOL1         0.0948
      17    C6      20.049232   18.807878   24.381896 C.3        1 MOL1        -0.1500
      18    H12     20.679949   17.973040   24.048781 H          1 MOL1         0.0948
      19    H13     19.069877   18.682195   23.903323 H          1 MOL1         0.0948
      20    C7      19.878372   18.722514   25.913725 C.3        1 MOL1         0.1162
      21    H14     20.859237   18.867405   26.376909 H          1 MOL1         0.0910
      22    C8      19.354396   17.334900   26.316391 C.3        1 MOL1        -0.2491
      23    H15     20.039320   16.546789   25.979475 H          1 MOL1         0.0959
      24    H16     19.265760   17.254777   27.406859 H          1 MOL1         0.0959
      25    H17     18.367575   17.140431   25.877860 H          1 MOL1         0.0959
      26    N1      18.981157   19.802828   26.452859 N.4        1 MOL1        -0.5987
      27    H18     18.037611   19.733267   26.062589 H          1 MOL1         0.3605
      28    H19     19.341142   20.734021   26.226947 H          1 MOL1         0.3605
      29    H20     18.897114   19.745386   27.471818 H          1 MOL1         0.3605
@<TRIPOS>BOND
    1     1     2    1
    2     1     3    1
    3     1     4    1
    4     1     5    1
    5     5     6    1
    6     5     7    1
    7     5     8    1
    8     8     9    1
    9     8    10    1
   10     8    11    1
   11    11    12    1
   12    11    13    1
   13    11    14    1
   14    14    15    1
   15    14    16    1
   16    14    17    1
   17    17    18    1
   18    17    19    1
   19    17    20    1
   20    20    21    1
   21    20    22    1
   22    22    23    1
   23    22    24    1
   24    22    25    1
   25    20    26    1
   26    26    27    1
   27    26    28    1
   28    26    29    1
@<TRIPOS>SUBSTRUCTURE
       1 MOL1            1 RESIDUE      1      MOL     
@<SCITEGIC>MOL_PROPERTY
VM2 Rank
SciTegic.value.IntegerValue
80

@<SCITEGIC>MOL_PROPERTY
Conf_Id
SciTegic.value.IntegerValue
1633

@<SCITEGIC>MOL_PROPERTY
Probability
SciTegic.value.DoubleValue
0.04

@<SCITEGIC>MOL_PROPERTY
Sum Probability
SciTegic.value.DoubleValue
98.85

@<SCITEGIC>MOL_PROPERTY
Delta G
SciTegic.value.DoubleValue
3.308

@<SCITEGIC>MOL_PROPERTY
G
SciTegic.value.DoubleValue
37.010

@<SCITEGIC>MOL_PROPERTY
E
SciTegic.value.DoubleValue
-0.768

@<SCITEGIC>MOL_PROPERTY
-TS
SciTegic.value.DoubleValue
37.778

@<SCITEGIC>MOL_PROPERTY
U+W
SciTegic.value.DoubleValue
-24.912

@<SCITEGIC>MOL_PROPERTY
U
SciTegic.value.DoubleValue
27.426

@<SCITEGIC>MOL_PROPERTY
W
SciTegic.value.DoubleValue
-52.338

@<SCITEGIC>MOL_PROPERTY
W(PB)
SciTegic.value.DoubleValue
-54.832

@<SCITEGIC>MOL_PROPERTY
W(SA)
SciTegic.value.DoubleValue
2.495

@<SCITEGIC>MOL_PROPERTY
Valence
SciTegic.value.DoubleValue
6.169

@<SCITEGIC>MOL_PROPERTY
Coulomb
SciTegic.value.DoubleValue
20.212

@<SCITEGIC>MOL_PROPERTY
VdW
SciTegic.value.DoubleValue
1.045

@<SCITEGIC>MOL_PROPERTY
VdW6
SciTegic.value.DoubleValue
-9.697

@<SCITEGIC>MOL_PROPERTY
VdW12
SciTegic.value.DoubleValue
10.742

@<SCITEGIC>MOL_PROPERTY
Bond
SciTegic.value.DoubleValue
0.273

@<SCITEGIC>MOL_PROPERTY
Angle
SciTegic.value.DoubleValue
1.616

@<SCITEGIC>MOL_PROPERTY
Pdih
SciTegic.value.DoubleValue
4.280

@<SCITEGIC>MOL_PROPERTY
Idih
SciTegic.value.DoubleValue
0.000

@<SCITEGIC>MOL_PROPERTY
Tether
SciTegic.value.DoubleValue
0.000

@<TRIPOS>MOLECULE
guest-s15_vm2.mol2 : vm2 ligand conformer 81
          29          28           1
SMALL
USER_CHARGES
 
@<TRIPOS>ATOM
       1    C1      19.034249   19.282916   19.063978 C.3        1 MOL1        -0.2426
       2    H1      19.563746   20.194222   18.756723 H          1 MOL1         0.0959
       3    H2      19.060499   18.577990   18.222887 H          1 MOL1         0.0959
       4    H3      17.984715   19.544199   19.252260 H          1 MOL1         0.0959
       5    C2      19.684118   18.659957   20.317526 C.3        1 MOL1        -0.1410
       6    H4      20.721550   18.378455   20.088660 H          1 MOL1         0.0948
       7    H5      19.154633   17.733416   20.580303 H          1 MOL1         0.0948
       8    C3      19.660252   19.632641   21.517236 C.3        1 MOL1        -0.1435
       9    H6      20.188344   20.558105   21.248848 H          1 MOL1         0.0948
      10    H7      18.621482   19.912656   21.740629 H          1 MOL1         0.0948
      11    C4      20.309792   19.012251   22.774653 C.3        1 MOL1        -0.1435
      12    H8      21.348458   18.734592   22.548031 H          1 MOL1         0.0948
      13    H9      19.785958   18.083446   23.029299 H          1 MOL1         0.0948
      14    C5      20.290047   19.992458   23.973154 C.3        1 MOL1        -0.1435
      15    H10     20.845429   20.894963   23.682521 H          1 MOL1         0.0948
      16    H11     19.263311   20.323640   24.175532 H          1 MOL1         0.0948
      17    C6      20.942627   19.412734   25.259261 C.3        1 MOL1        -0.1500
      18    H12     21.463888   20.227938   25.778161 H          1 MOL1         0.0948
      19    H13     21.727821   18.694463   24.988918 H          1 MOL1         0.0948
      20    C7      19.976267   18.758599   26.277834 C.3        1 MOL1         0.1162
      21    H14     20.585917   18.395628   27.111085 H          1 MOL1         0.0910
      22    C8      19.221783   17.551366   25.698192 C.3        1 MOL1        -0.2491
      23    H15     19.919171   16.835286   25.246204 H          1 MOL1         0.0959
      24    H16     18.673332   17.026732   26.490074 H          1 MOL1         0.0959
      25    H17     18.494890   17.859562   24.937374 H          1 MOL1         0.0959
      26    N1      19.016864   19.753079   26.872165 N.4        1 MOL1        -0.5987
      27    H18     18.395450   20.142462   26.159036 H          1 MOL1         0.3605
      28    H19     19.510945   20.535339   27.311085 H          1 MOL1         0.3605
      29    H20     18.428314   19.321344   27.590390 H          1 MOL1         0.3605
@<TRIPOS>BOND
    1     1     2    1
    2     1     3    1
    3     1     4    1
    4     1     5    1
    5     5     6    1
    6     5     7    1
    7     5     8    1
    8     8     9    1
    9     8    10    1
   10     8    11    1
   11    11    12    1
   12    11    13    1
   13    11    14    1
   14    14    15    1
   15    14    16    1
   16    14    17    1
   17    17    18    1
   18    17    19    1
   19    17    20    1
   20    20    21    1
   21    20    22    1
   22    22    23    1
   23    22    24    1
   24    22    25    1
   25    20    26    1
   26    26    27    1
   27    26    28    1
   28    26    29    1
@<TRIPOS>SUBSTRUCTURE
       1 MOL1            1 RESIDUE      1      MOL     
@<SCITEGIC>MOL_PROPERTY
VM2 Rank
SciTegic.value.IntegerValue
81

@<SCITEGIC>MOL_PROPERTY
Conf_Id
SciTegic.value.IntegerValue
1332

@<SCITEGIC>MOL_PROPERTY
Probability
SciTegic.value.DoubleValue
0.04

@<SCITEGIC>MOL_PROPERTY
Sum Probability
SciTegic.value.DoubleValue
98.89

@<SCITEGIC>MOL_PROPERTY
Delta G
SciTegic.value.DoubleValue
3.340

@<SCITEGIC>MOL_PROPERTY
G
SciTegic.value.DoubleValue
37.042

@<SCITEGIC>MOL_PROPERTY
E
SciTegic.value.DoubleValue
-0.699

@<SCITEGIC>MOL_PROPERTY
-TS
SciTegic.value.DoubleValue
37.741

@<SCITEGIC>MOL_PROPERTY
U+W
SciTegic.value.DoubleValue
-24.844

@<SCITEGIC>MOL_PROPERTY
U
SciTegic.value.DoubleValue
27.319

@<SCITEGIC>MOL_PROPERTY
W
SciTegic.value.DoubleValue
-52.162

@<SCITEGIC>MOL_PROPERTY
W(PB)
SciTegic.value.DoubleValue
-54.656

@<SCITEGIC>MOL_PROPERTY
W(SA)
SciTegic.value.DoubleValue
2.494

@<SCITEGIC>MOL_PROPERTY
Valence
SciTegic.value.DoubleValue
6.250

@<SCITEGIC>MOL_PROPERTY
Coulomb
SciTegic.value.DoubleValue
19.964

@<SCITEGIC>MOL_PROPERTY
VdW
SciTegic.value.DoubleValue
1.105

@<SCITEGIC>MOL_PROPERTY
VdW6
SciTegic.value.DoubleValue
-9.528

@<SCITEGIC>MOL_PROPERTY
VdW12
SciTegic.value.DoubleValue
10.633

@<SCITEGIC>MOL_PROPERTY
Bond
SciTegic.value.DoubleValue
0.282

@<SCITEGIC>MOL_PROPERTY
Angle
SciTegic.value.DoubleValue
1.801

@<SCITEGIC>MOL_PROPERTY
Pdih
SciTegic.value.DoubleValue
4.166

@<SCITEGIC>MOL_PROPERTY
Idih
SciTegic.value.DoubleValue
0.000

@<SCITEGIC>MOL_PROPERTY
Tether
SciTegic.value.DoubleValue
0.000

@<TRIPOS>MOLECULE
guest-s15_vm2.mol2 : vm2 ligand conformer 82
          29          28           1
SMALL
USER_CHARGES
 
@<TRIPOS>ATOM
       1    C1      19.780154   20.898443   20.589948 C.3        1 MOL1        -0.2426
       2    H1      19.785193   21.130511   21.660463 H          1 MOL1         0.0959
       3    H2      20.496782   21.570875   20.100900 H          1 MOL1         0.0959
       4    H3      18.782162   21.133862   20.197993 H          1 MOL1         0.0959
       5    C2      20.147730   19.422236   20.311653 C.3        1 MOL1        -0.1410
       6    H4      21.173604   19.214185   20.646102 H          1 MOL1         0.0948
       7    H5      20.149036   19.273868   19.222684 H          1 MOL1         0.0948
       8    C3      19.158470   18.410877   20.945972 C.3        1 MOL1        -0.1435
       9    H6      18.154032   18.851360   21.010796 H          1 MOL1         0.0948
      10    H7      19.061982   17.554425   20.264399 H          1 MOL1         0.0948
      11    C4      19.588845   17.858349   22.329318 C.3        1 MOL1        -0.1435
      12    H8      20.545166   17.326935   22.227909 H          1 MOL1         0.0948
      13    H9      18.852349   17.105377   22.642246 H          1 MOL1         0.0948
      14    C5      19.711335   18.931874   23.435155 C.3        1 MOL1        -0.1435
      15    H10     20.537855   19.613448   23.195533 H          1 MOL1         0.0948
      16    H11     18.790610   19.529421   23.461394 H          1 MOL1         0.0948
      17    C6      19.971807   18.297188   24.822793 C.3        1 MOL1        -0.1500
      18    H12     20.861088   17.656009   24.758035 H          1 MOL1         0.0948
      19    H13     19.132915   17.643476   25.096445 H          1 MOL1         0.0948
      20    C7      20.194710   19.347378   25.932389 C.3        1 MOL1         0.1162
      21    H14     21.018096   20.000141   25.626481 H          1 MOL1         0.0910
      22    C8      20.588213   18.658714   27.248868 C.3        1 MOL1        -0.2491
      23    H15     19.791730   17.991388   27.601337 H          1 MOL1         0.0959
      24    H16     21.500666   18.063290   27.119812 H          1 MOL1         0.0959
      25    H17     20.783726   19.401333   28.032254 H          1 MOL1         0.0959
      26    N1      18.994737   20.230941   26.137904 N.4        1 MOL1        -0.5987
      27    H18     18.746830   20.730093   25.279426 H          1 MOL1         0.3605
      28    H19     19.167423   20.933664   26.862499 H          1 MOL1         0.3605
      29    H20     18.176876   19.687418   26.426436 H          1 MOL1         0.3605
@<TRIPOS>BOND
    1     1     2    1
    2     1     3    1
    3     1     4    1
    4     1     5    1
    5     5     6    1
    6     5     7    1
    7     5     8    1
    8     8     9    1
    9     8    10    1
   10     8    11    1
   11    11    12    1
   12    11    13    1
   13    11    14    1
   14    14    15    1
   15    14    16    1
   16    14    17    1
   17    17    18    1
   18    17    19    1
   19    17    20    1
   20    20    21    1
   21    20    22    1
   22    22    23    1
   23    22    24    1
   24    22    25    1
   25    20    26    1
   26    26    27    1
   27    26    28    1
   28    26    29    1
@<TRIPOS>SUBSTRUCTURE
       1 MOL1            1 RESIDUE      1      MOL     
@<SCITEGIC>MOL_PROPERTY
VM2 Rank
SciTegic.value.IntegerValue
82

@<SCITEGIC>MOL_PROPERTY
Conf_Id
SciTegic.value.IntegerValue
318

@<SCITEGIC>MOL_PROPERTY
Probability
SciTegic.value.DoubleValue
0.04

@<SCITEGIC>MOL_PROPERTY
Sum Probability
SciTegic.value.DoubleValue
98.92

@<SCITEGIC>MOL_PROPERTY
Delta G
SciTegic.value.DoubleValue
3.375

@<SCITEGIC>MOL_PROPERTY
G
SciTegic.value.DoubleValue
37.078

@<SCITEGIC>MOL_PROPERTY
E
SciTegic.value.DoubleValue
-0.651

@<SCITEGIC>MOL_PROPERTY
-TS
SciTegic.value.DoubleValue
37.728

@<SCITEGIC>MOL_PROPERTY
U+W
SciTegic.value.DoubleValue
-24.795

@<SCITEGIC>MOL_PROPERTY
U
SciTegic.value.DoubleValue
27.548

@<SCITEGIC>MOL_PROPERTY
W
SciTegic.value.DoubleValue
-52.343

@<SCITEGIC>MOL_PROPERTY
W(PB)
SciTegic.value.DoubleValue
-54.804

@<SCITEGIC>MOL_PROPERTY
W(SA)
SciTegic.value.DoubleValue
2.461

@<SCITEGIC>MOL_PROPERTY
Valence
SciTegic.value.DoubleValue
6.159

@<SCITEGIC>MOL_PROPERTY
Coulomb
SciTegic.value.DoubleValue
20.244

@<SCITEGIC>MOL_PROPERTY
VdW
SciTegic.value.DoubleValue
1.144

@<SCITEGIC>MOL_PROPERTY
VdW6
SciTegic.value.DoubleValue
-9.545

@<SCITEGIC>MOL_PROPERTY
VdW12
SciTegic.value.DoubleValue
10.689

@<SCITEGIC>MOL_PROPERTY
Bond
SciTegic.value.DoubleValue
0.271

@<SCITEGIC>MOL_PROPERTY
Angle
SciTegic.value.DoubleValue
1.675

@<SCITEGIC>MOL_PROPERTY
Pdih
SciTegic.value.DoubleValue
4.213

@<SCITEGIC>MOL_PROPERTY
Idih
SciTegic.value.DoubleValue
0.000

@<SCITEGIC>MOL_PROPERTY
Tether
SciTegic.value.DoubleValue
0.000

@<TRIPOS>MOLECULE
guest-s15_vm2.mol2 : vm2 ligand conformer 83
          29          28           1
SMALL
USER_CHARGES
 
@<TRIPOS>ATOM
       1    C1      20.109819   20.797252   20.042948 C.3        1 MOL1        -0.2426
       2    H1      20.014993   21.654176   20.722606 H          1 MOL1         0.0959
       3    H2      21.178002   20.623668   19.858308 H          1 MOL1         0.0959
       4    H3      19.642905   21.071260   19.087988 H          1 MOL1         0.0959
       5    C2      19.438390   19.540947   20.636937 C.3        1 MOL1        -0.1410
       6    H4      19.518893   18.711576   19.920316 H          1 MOL1         0.0948
       7    H5      18.365867   19.733851   20.779694 H          1 MOL1         0.0948
       8    C3      20.078056   19.133120   21.982367 C.3        1 MOL1        -0.1435
       9    H6      21.148907   18.939390   21.831201 H          1 MOL1         0.0948
      10    H7      20.005085   19.975574   22.678590 H          1 MOL1         0.0948
      11    C4      19.404825   17.872297   22.577706 C.3        1 MOL1        -0.1435
      12    H8      19.472582   17.067959   21.832052 H          1 MOL1         0.0948
      13    H9      18.331921   18.050083   22.733904 H          1 MOL1         0.0948
      14    C5      20.057298   17.366055   23.890926 C.3        1 MOL1        -0.1435
      15    H10     19.907624   16.278607   23.940237 H          1 MOL1         0.0948
      16    H11     21.145844   17.505146   23.858363 H          1 MOL1         0.0948
      17    C6      19.458124   17.968227   25.191182 C.3        1 MOL1        -0.1500
      18    H12     19.906592   17.457763   26.053810 H          1 MOL1         0.0948
      19    H13     18.387893   17.724984   25.222075 H          1 MOL1         0.0948
      20    C7      19.624011   19.493696   25.373614 C.3        1 MOL1         0.1162
      21    H14     19.180084   19.995655   24.510224 H          1 MOL1         0.0910
      22    C8      21.103675   19.903750   25.483788 C.3        1 MOL1        -0.2491
      23    H15     21.592262   19.399179   26.326589 H          1 MOL1         0.0959
      24    H16     21.657395   19.656388   24.571047 H          1 MOL1         0.0959
      25    H17     21.194195   20.986181   25.636730 H          1 MOL1         0.0959
      26    N1      18.861802   19.980657   26.574532 N.4        1 MOL1        -0.5987
      27    H18     17.865255   19.754711   26.505961 H          1 MOL1         0.3605
      28    H19     18.937528   20.996535   26.679062 H          1 MOL1         0.3605
      29    H20     19.214356   19.557987   27.437543 H          1 MOL1         0.3605
@<TRIPOS>BOND
    1     1     2    1
    2     1     3    1
    3     1     4    1
    4     1     5    1
    5     5     6    1
    6     5     7    1
    7     5     8    1
    8     8     9    1
    9     8    10    1
   10     8    11    1
   11    11    12    1
   12    11    13    1
   13    11    14    1
   14    14    15    1
   15    14    16    1
   16    14    17    1
   17    17    18    1
   18    17    19    1
   19    17    20    1
   20    20    21    1
   21    20    22    1
   22    22    23    1
   23    22    24    1
   24    22    25    1
   25    20    26    1
   26    26    27    1
   27    26    28    1
   28    26    29    1
@<TRIPOS>SUBSTRUCTURE
       1 MOL1            1 RESIDUE      1      MOL     
@<SCITEGIC>MOL_PROPERTY
VM2 Rank
SciTegic.value.IntegerValue
83

@<SCITEGIC>MOL_PROPERTY
Conf_Id
SciTegic.value.IntegerValue
283

@<SCITEGIC>MOL_PROPERTY
Probability
SciTegic.value.DoubleValue
0.04

@<SCITEGIC>MOL_PROPERTY
Sum Probability
SciTegic.value.DoubleValue
98.96

@<SCITEGIC>MOL_PROPERTY
Delta G
SciTegic.value.DoubleValue
3.389

@<SCITEGIC>MOL_PROPERTY
G
SciTegic.value.DoubleValue
37.092

@<SCITEGIC>MOL_PROPERTY
E
SciTegic.value.DoubleValue
-0.941

@<SCITEGIC>MOL_PROPERTY
-TS
SciTegic.value.DoubleValue
38.033

@<SCITEGIC>MOL_PROPERTY
U+W
SciTegic.value.DoubleValue
-25.086

@<SCITEGIC>MOL_PROPERTY
U
SciTegic.value.DoubleValue
27.495

@<SCITEGIC>MOL_PROPERTY
W
SciTegic.value.DoubleValue
-52.581

@<SCITEGIC>MOL_PROPERTY
W(PB)
SciTegic.value.DoubleValue
-55.042

@<SCITEGIC>MOL_PROPERTY
W(SA)
SciTegic.value.DoubleValue
2.460

@<SCITEGIC>MOL_PROPERTY
Valence
SciTegic.value.DoubleValue
6.350

@<SCITEGIC>MOL_PROPERTY
Coulomb
SciTegic.value.DoubleValue
20.401

@<SCITEGIC>MOL_PROPERTY
VdW
SciTegic.value.DoubleValue
0.745

@<SCITEGIC>MOL_PROPERTY
VdW6
SciTegic.value.DoubleValue
-10.334

@<SCITEGIC>MOL_PROPERTY
VdW12
SciTegic.value.DoubleValue
11.079

@<SCITEGIC>MOL_PROPERTY
Bond
SciTegic.value.DoubleValue
0.286

@<SCITEGIC>MOL_PROPERTY
Angle
SciTegic.value.DoubleValue
2.246

@<SCITEGIC>MOL_PROPERTY
Pdih
SciTegic.value.DoubleValue
3.817

@<SCITEGIC>MOL_PROPERTY
Idih
SciTegic.value.DoubleValue
0.000

@<SCITEGIC>MOL_PROPERTY
Tether
SciTegic.value.DoubleValue
0.000

@<TRIPOS>MOLECULE
guest-s15_vm2.mol2 : vm2 ligand conformer 84
          29          28           1
SMALL
USER_CHARGES
 
@<TRIPOS>ATOM
       1    C1      21.071320   19.445479   19.778569 C.3        1 MOL1        -0.2426
       2    H1      20.567288   18.946227   18.940761 H          1 MOL1         0.0959
       3    H2      21.017084   20.529477   19.613480 H          1 MOL1         0.0959
       4    H3      22.129329   19.153635   19.757110 H          1 MOL1         0.0959
       5    C2      20.426287   19.057121   21.125781 C.3        1 MOL1        -0.1410
       6    H4      20.981336   19.545731   21.937422 H          1 MOL1         0.0948
       7    H5      20.519338   17.972412   21.274851 H          1 MOL1         0.0948
       8    C3      18.937298   19.467867   21.184212 C.3        1 MOL1        -0.1435
       9    H6      18.857765   20.561476   21.114091 H          1 MOL1         0.0948
      10    H7      18.422252   19.067305   20.300152 H          1 MOL1         0.0948
      11    C4      18.185371   18.977141   22.448421 C.3        1 MOL1        -0.1435
      12    H8      18.167567   17.878866   22.475228 H          1 MOL1         0.0948
      13    H9      17.135845   19.287057   22.348925 H          1 MOL1         0.0948
      14    C5      18.730866   19.540559   23.786456 C.3        1 MOL1        -0.1435
      15    H10     19.205278   20.517249   23.617767 H          1 MOL1         0.0948
      16    H11     17.877119   19.726802   24.451572 H          1 MOL1         0.0948
      17    C6      19.714496   18.577536   24.500858 C.3        1 MOL1        -0.1500
      18    H12     20.518528   18.291220   23.813631 H          1 MOL1         0.0948
      19    H13     19.192037   17.648833   24.766204 H          1 MOL1         0.0948
      20    C7      20.345170   19.195349   25.767441 C.3        1 MOL1         0.1162
      21    H14     20.837598   20.130586   25.483732 H          1 MOL1         0.0910
      22    C8      21.406271   18.249595   26.352181 C.3        1 MOL1        -0.2491
      23    H15     22.192923   18.043025   25.615788 H          1 MOL1         0.0959
      24    H16     21.883925   18.698397   27.231857 H          1 MOL1         0.0959
      25    H17     20.961938   17.293140   26.655014 H          1 MOL1         0.0959
      26    N1      19.318921   19.545353   26.810082 N.4        1 MOL1        -0.5987
      27    H18     18.810858   18.715188   27.126644 H          1 MOL1         0.3605
      28    H19     18.629732   20.209691   26.447610 H          1 MOL1         0.3605
      29    H20     19.752716   19.972335   27.633573 H          1 MOL1         0.3605
@<TRIPOS>BOND
    1     1     2    1
    2     1     3    1
    3     1     4    1
    4     1     5    1
    5     5     6    1
    6     5     7    1
    7     5     8    1
    8     8     9    1
    9     8    10    1
   10     8    11    1
   11    11    12    1
   12    11    13    1
   13    11    14    1
   14    14    15    1
   15    14    16    1
   16    14    17    1
   17    17    18    1
   18    17    19    1
   19    17    20    1
   20    20    21    1
   21    20    22    1
   22    22    23    1
   23    22    24    1
   24    22    25    1
   25    20    26    1
   26    26    27    1
   27    26    28    1
   28    26    29    1
@<TRIPOS>SUBSTRUCTURE
       1 MOL1            1 RESIDUE      1      MOL     
@<SCITEGIC>MOL_PROPERTY
VM2 Rank
SciTegic.value.IntegerValue
84

@<SCITEGIC>MOL_PROPERTY
Conf_Id
SciTegic.value.IntegerValue
920

@<SCITEGIC>MOL_PROPERTY
Probability
SciTegic.value.DoubleValue
0.03

@<SCITEGIC>MOL_PROPERTY
Sum Probability
SciTegic.value.DoubleValue
98.99

@<SCITEGIC>MOL_PROPERTY
Delta G
SciTegic.value.DoubleValue
3.393

@<SCITEGIC>MOL_PROPERTY
G
SciTegic.value.DoubleValue
37.095

@<SCITEGIC>MOL_PROPERTY
E
SciTegic.value.DoubleValue
-0.697

@<SCITEGIC>MOL_PROPERTY
-TS
SciTegic.value.DoubleValue
37.792

@<SCITEGIC>MOL_PROPERTY
U+W
SciTegic.value.DoubleValue
-24.842

@<SCITEGIC>MOL_PROPERTY
U
SciTegic.value.DoubleValue
27.471

@<SCITEGIC>MOL_PROPERTY
W
SciTegic.value.DoubleValue
-52.307

@<SCITEGIC>MOL_PROPERTY
W(PB)
SciTegic.value.DoubleValue
-54.790

@<SCITEGIC>MOL_PROPERTY
W(SA)
SciTegic.value.DoubleValue
2.483

@<SCITEGIC>MOL_PROPERTY
Valence
SciTegic.value.DoubleValue
6.230

@<SCITEGIC>MOL_PROPERTY
Coulomb
SciTegic.value.DoubleValue
20.131

@<SCITEGIC>MOL_PROPERTY
VdW
SciTegic.value.DoubleValue
1.110

@<SCITEGIC>MOL_PROPERTY
VdW6
SciTegic.value.DoubleValue
-9.661

@<SCITEGIC>MOL_PROPERTY
VdW12
SciTegic.value.DoubleValue
10.771

@<SCITEGIC>MOL_PROPERTY
Bond
SciTegic.value.DoubleValue
0.280

@<SCITEGIC>MOL_PROPERTY
Angle
SciTegic.value.DoubleValue
1.591

@<SCITEGIC>MOL_PROPERTY
Pdih
SciTegic.value.DoubleValue
4.359

@<SCITEGIC>MOL_PROPERTY
Idih
SciTegic.value.DoubleValue
0.000

@<SCITEGIC>MOL_PROPERTY
Tether
SciTegic.value.DoubleValue
0.000

@<TRIPOS>MOLECULE
guest-s15_vm2.mol2 : vm2 ligand conformer 85
          29          28           1
SMALL
USER_CHARGES
 
@<TRIPOS>ATOM
       1    C1      18.370682   20.095187   20.787096 C.3        1 MOL1        -0.2426
       2    H1      17.945578   19.525476   21.622542 H          1 MOL1         0.0959
       3    H2      18.728589   21.060921   21.166660 H          1 MOL1         0.0959
       4    H3      17.556380   20.293673   20.078310 H          1 MOL1         0.0959
       5    C2      19.507982   19.311930   20.096022 C.3        1 MOL1        -0.1410
       6    H4      19.785797   19.836939   19.171413 H          1 MOL1         0.0948
       7    H5      19.134690   18.326063   19.785519 H          1 MOL1         0.0948
       8    C3      20.781162   19.135795   20.962443 C.3        1 MOL1        -0.1435
       9    H6      21.527798   18.612357   20.349331 H          1 MOL1         0.0948
      10    H7      21.221013   20.116275   21.191064 H          1 MOL1         0.0948
      11    C4      20.570896   18.322262   22.266016 C.3        1 MOL1        -0.1435
      12    H8      21.473421   17.723425   22.451000 H          1 MOL1         0.0948
      13    H9      19.751206   17.602950   22.132402 H          1 MOL1         0.0948
      14    C5      20.315646   19.208188   23.509828 C.3        1 MOL1        -0.1435
      15    H10     21.176442   19.873500   23.664229 H          1 MOL1         0.0948
      16    H11     19.447254   19.853610   23.338368 H          1 MOL1         0.0948
      17    C6      20.091956   18.355622   24.782326 C.3        1 MOL1        -0.1500
      18    H12     20.951251   17.684917   24.915871 H          1 MOL1         0.0948
      19    H13     19.211007   17.713706   24.648753 H          1 MOL1         0.0948
      20    C7      19.923845   19.209116   26.057982 C.3        1 MOL1         0.1162
      21    H14     20.800343   19.857156   26.155123 H          1 MOL1         0.0910
      22    C8      19.851452   18.305831   27.299392 C.3        1 MOL1        -0.2491
      23    H15     20.755615   17.690571   27.387135 H          1 MOL1         0.0959
      24    H16     19.768599   18.907342   28.213024 H          1 MOL1         0.0959
      25    H17     18.984708   17.634671   27.252012 H          1 MOL1         0.0959
      26    N1      18.722380   20.112071   25.992896 N.4        1 MOL1        -0.5987
      27    H18     17.856715   19.574284   25.898257 H          1 MOL1         0.3605
      28    H19     18.778205   20.751461   25.195616 H          1 MOL1         0.3605
      29    H20     18.637924   20.683235   26.838677 H          1 MOL1         0.3605
@<TRIPOS>BOND
    1     1     2    1
    2     1     3    1
    3     1     4    1
    4     1     5    1
    5     5     6    1
    6     5     7    1
    7     5     8    1
    8     8     9    1
    9     8    10    1
   10     8    11    1
   11    11    12    1
   12    11    13    1
   13    11    14    1
   14    14    15    1
   15    14    16    1
   16    14    17    1
   17    17    18    1
   18    17    19    1
   19    17    20    1
   20    20    21    1
   21    20    22    1
   22    22    23    1
   23    22    24    1
   24    22    25    1
   25    20    26    1
   26    26    27    1
   27    26    28    1
   28    26    29    1
@<TRIPOS>SUBSTRUCTURE
       1 MOL1            1 RESIDUE      1      MOL     
@<SCITEGIC>MOL_PROPERTY
VM2 Rank
SciTegic.value.IntegerValue
85

@<SCITEGIC>MOL_PROPERTY
Conf_Id
SciTegic.value.IntegerValue
489

@<SCITEGIC>MOL_PROPERTY
Probability
SciTegic.value.DoubleValue
0.03

@<SCITEGIC>MOL_PROPERTY
Sum Probability
SciTegic.value.DoubleValue
99.03

@<SCITEGIC>MOL_PROPERTY
Delta G
SciTegic.value.DoubleValue
3.419

@<SCITEGIC>MOL_PROPERTY
G
SciTegic.value.DoubleValue
37.121

@<SCITEGIC>MOL_PROPERTY
E
SciTegic.value.DoubleValue
-0.627

@<SCITEGIC>MOL_PROPERTY
-TS
SciTegic.value.DoubleValue
37.748

@<SCITEGIC>MOL_PROPERTY
U+W
SciTegic.value.DoubleValue
-24.771

@<SCITEGIC>MOL_PROPERTY
U
SciTegic.value.DoubleValue
27.669

@<SCITEGIC>MOL_PROPERTY
W
SciTegic.value.DoubleValue
-52.440

@<SCITEGIC>MOL_PROPERTY
W(PB)
SciTegic.value.DoubleValue
-54.940

@<SCITEGIC>MOL_PROPERTY
W(SA)
SciTegic.value.DoubleValue
2.500

@<SCITEGIC>MOL_PROPERTY
Valence
SciTegic.value.DoubleValue
6.132

@<SCITEGIC>MOL_PROPERTY
Coulomb
SciTegic.value.DoubleValue
20.412

@<SCITEGIC>MOL_PROPERTY
VdW
SciTegic.value.DoubleValue
1.124

@<SCITEGIC>MOL_PROPERTY
VdW6
SciTegic.value.DoubleValue
-9.582

@<SCITEGIC>MOL_PROPERTY
VdW12
SciTegic.value.DoubleValue
10.706

@<SCITEGIC>MOL_PROPERTY
Bond
SciTegic.value.DoubleValue
0.273

@<SCITEGIC>MOL_PROPERTY
Angle
SciTegic.value.DoubleValue
1.615

@<SCITEGIC>MOL_PROPERTY
Pdih
SciTegic.value.DoubleValue
4.244

@<SCITEGIC>MOL_PROPERTY
Idih
SciTegic.value.DoubleValue
0.000

@<SCITEGIC>MOL_PROPERTY
Tether
SciTegic.value.DoubleValue
0.000

@<TRIPOS>MOLECULE
guest-s15_vm2.mol2 : vm2 ligand conformer 86
          29          28           1
SMALL
USER_CHARGES
 
@<TRIPOS>ATOM
       1    C1      19.828182   20.917659   20.151147 C.3        1 MOL1        -0.2426
       2    H1      20.836127   21.277976   20.394987 H          1 MOL1         0.0959
       3    H2      19.671642   21.057667   19.073683 H          1 MOL1         0.0959
       4    H3      19.102158   21.547341   20.681832 H          1 MOL1         0.0959
       5    C2      19.661656   19.432745   20.537399 C.3        1 MOL1        -0.1410
       6    H4      20.376800   18.825461   19.965000 H          1 MOL1         0.0948
       7    H5      18.656380   19.091990   20.252376 H          1 MOL1         0.0948
       8    C3      19.878607   19.208481   22.050140 C.3        1 MOL1        -0.1435
       9    H6      20.886920   19.544245   22.329015 H          1 MOL1         0.0948
      10    H7      19.161471   19.828142   22.603116 H          1 MOL1         0.0948
      11    C4      19.695582   17.724036   22.442927 C.3        1 MOL1        -0.1435
      12    H8      20.291312   17.099640   21.762753 H          1 MOL1         0.0948
      13    H9      18.648207   17.431823   22.285172 H          1 MOL1         0.0948
      14    C5      20.114379   17.383803   23.896816 C.3        1 MOL1        -0.1435
      15    H10     19.979326   16.301645   24.030870 H          1 MOL1         0.0948
      16    H11     21.189240   17.559604   24.025952 H          1 MOL1         0.0948
      17    C6      19.293723   18.104947   25.001368 C.3        1 MOL1        -0.1500
      18    H12     19.308312   17.489358   25.910621 H          1 MOL1         0.0948
      19    H13     18.242495   18.145902   24.687149 H          1 MOL1         0.0948
      20    C7      19.779932   19.528005   25.369712 C.3        1 MOL1         0.1162
      21    H14     19.900980   20.111016   24.454328 H          1 MOL1         0.0910
      22    C8      21.130367   19.504292   26.108438 C.3        1 MOL1        -0.2491
      23    H15     21.430920   20.519732   26.394609 H          1 MOL1         0.0959
      24    H16     21.073158   18.897995   27.021025 H          1 MOL1         0.0959
      25    H17     21.927578   19.097313   25.476598 H          1 MOL1         0.0959
      26    N1      18.753571   20.252034   26.196053 N.4        1 MOL1        -0.5987
      27    H18     18.584186   19.773022   27.084690 H          1 MOL1         0.3605
      28    H19     17.856029   20.320882   25.707717 H          1 MOL1         0.3605
      29    H20     19.055133   21.205643   26.416041 H          1 MOL1         0.3605
@<TRIPOS>BOND
    1     1     2    1
    2     1     3    1
    3     1     4    1
    4     1     5    1
    5     5     6    1
    6     5     7    1
    7     5     8    1
    8     8     9    1
    9     8    10    1
   10     8    11    1
   11    11    12    1
   12    11    13    1
   13    11    14    1
   14    14    15    1
   15    14    16    1
   16    14    17    1
   17    17    18    1
   18    17    19    1
   19    17    20    1
   20    20    21    1
   21    20    22    1
   22    22    23    1
   23    22    24    1
   24    22    25    1
   25    20    26    1
   26    26    27    1
   27    26    28    1
   28    26    29    1
@<TRIPOS>SUBSTRUCTURE
       1 MOL1            1 RESIDUE      1      MOL     
@<SCITEGIC>MOL_PROPERTY
VM2 Rank
SciTegic.value.IntegerValue
86

@<SCITEGIC>MOL_PROPERTY
Conf_Id
SciTegic.value.IntegerValue
592

@<SCITEGIC>MOL_PROPERTY
Probability
SciTegic.value.DoubleValue
0.03

@<SCITEGIC>MOL_PROPERTY
Sum Probability
SciTegic.value.DoubleValue
99.06

@<SCITEGIC>MOL_PROPERTY
Delta G
SciTegic.value.DoubleValue
3.440

@<SCITEGIC>MOL_PROPERTY
G
SciTegic.value.DoubleValue
37.142

@<SCITEGIC>MOL_PROPERTY
E
SciTegic.value.DoubleValue
-0.500

@<SCITEGIC>MOL_PROPERTY
-TS
SciTegic.value.DoubleValue
37.641

@<SCITEGIC>MOL_PROPERTY
U+W
SciTegic.value.DoubleValue
-24.644

@<SCITEGIC>MOL_PROPERTY
U
SciTegic.value.DoubleValue
27.991

@<SCITEGIC>MOL_PROPERTY
W
SciTegic.value.DoubleValue
-52.635

@<SCITEGIC>MOL_PROPERTY
W(PB)
SciTegic.value.DoubleValue
-55.127

@<SCITEGIC>MOL_PROPERTY
W(SA)
SciTegic.value.DoubleValue
2.492

@<SCITEGIC>MOL_PROPERTY
Valence
SciTegic.value.DoubleValue
6.342

@<SCITEGIC>MOL_PROPERTY
Coulomb
SciTegic.value.DoubleValue
20.687

@<SCITEGIC>MOL_PROPERTY
VdW
SciTegic.value.DoubleValue
0.963

@<SCITEGIC>MOL_PROPERTY
VdW6
SciTegic.value.DoubleValue
-10.030

@<SCITEGIC>MOL_PROPERTY
VdW12
SciTegic.value.DoubleValue
10.993

@<SCITEGIC>MOL_PROPERTY
Bond
SciTegic.value.DoubleValue
0.289

@<SCITEGIC>MOL_PROPERTY
Angle
SciTegic.value.DoubleValue
2.139

@<SCITEGIC>MOL_PROPERTY
Pdih
SciTegic.value.DoubleValue
3.913

@<SCITEGIC>MOL_PROPERTY
Idih
SciTegic.value.DoubleValue
0.000

@<SCITEGIC>MOL_PROPERTY
Tether
SciTegic.value.DoubleValue
0.000

@<TRIPOS>MOLECULE
guest-s15_vm2.mol2 : vm2 ligand conformer 87
          29          28           1
SMALL
USER_CHARGES
 
@<TRIPOS>ATOM
       1    C1      19.200253   20.841813   20.638772 C.3        1 MOL1        -0.2426
       2    H1      20.055065   21.284909   20.111499 H          1 MOL1         0.0959
       3    H2      18.290131   21.328345   20.264794 H          1 MOL1         0.0959
       4    H3      19.295897   21.088512   21.701740 H          1 MOL1         0.0959
       5    C2      19.135411   19.315523   20.397981 C.3        1 MOL1        -0.1410
       6    H4      19.020028   19.148230   19.317903 H          1 MOL1         0.0948
       7    H5      18.236201   18.892277   20.866846 H          1 MOL1         0.0948
       8    C3      20.401155   18.562114   20.881851 C.3        1 MOL1        -0.1435
       9    H6      20.597503   17.738843   20.181112 H          1 MOL1         0.0948
      10    H7      21.280453   19.218052   20.820797 H          1 MOL1         0.0948
      11    C4      20.291392   17.948765   22.301687 C.3        1 MOL1        -0.1435
      12    H8      21.213643   17.386978   22.504380 H          1 MOL1         0.0948
      13    H9      19.475363   17.213200   22.318965 H          1 MOL1         0.0948
      14    C5      20.073279   18.984512   23.428787 C.3        1 MOL1        -0.1435
      15    H10     20.834524   19.773459   23.355191 H          1 MOL1         0.0948
      16    H11     19.094288   19.460756   23.295733 H          1 MOL1         0.0948
      17    C6      20.141482   18.329833   24.829961 C.3        1 MOL1        -0.1500
      18    H12     21.104773   17.812876   24.934153 H          1 MOL1         0.0948
      19    H13     19.361941   17.561501   24.919254 H          1 MOL1         0.0948
      20    C7      19.999127   19.350908   25.979411 C.3        1 MOL1         0.1162
      21    H14     20.768548   20.118842   25.853265 H          1 MOL1         0.0910
      22    C8      20.221621   18.662994   27.335713 C.3        1 MOL1        -0.2491
      23    H15     20.157870   19.389827   28.154891 H          1 MOL1         0.0959
      24    H16     19.471595   17.881854   27.512429 H          1 MOL1         0.0959
      25    H17     21.214911   18.199063   27.379306 H          1 MOL1         0.0959
      26    N1      18.672280   20.059539   25.959836 N.4        1 MOL1        -0.5987
      27    H18     18.528807   20.560159   25.078748 H          1 MOL1         0.3605
      28    H19     18.603722   20.745499   26.717115 H          1 MOL1         0.3605
      29    H20     17.896594   19.401155   26.071336 H          1 MOL1         0.3605
@<TRIPOS>BOND
    1     1     2    1
    2     1     3    1
    3     1     4    1
    4     1     5    1
    5     5     6    1
    6     5     7    1
    7     5     8    1
    8     8     9    1
    9     8    10    1
   10     8    11    1
   11    11    12    1
   12    11    13    1
   13    11    14    1
   14    14    15    1
   15    14    16    1
   16    14    17    1
   17    17    18    1
   18    17    19    1
   19    17    20    1
   20    20    21    1
   21    20    22    1
   22    22    23    1
   23    22    24    1
   24    22    25    1
   25    20    26    1
   26    26    27    1
   27    26    28    1
   28    26    29    1
@<TRIPOS>SUBSTRUCTURE
       1 MOL1            1 RESIDUE      1      MOL     
@<SCITEGIC>MOL_PROPERTY
VM2 Rank
SciTegic.value.IntegerValue
87

@<SCITEGIC>MOL_PROPERTY
Conf_Id
SciTegic.value.IntegerValue
1012

@<SCITEGIC>MOL_PROPERTY
Probability
SciTegic.value.DoubleValue
0.03

@<SCITEGIC>MOL_PROPERTY
Sum Probability
SciTegic.value.DoubleValue
99.09

@<SCITEGIC>MOL_PROPERTY
Delta G
SciTegic.value.DoubleValue
3.449

@<SCITEGIC>MOL_PROPERTY
G
SciTegic.value.DoubleValue
37.151

@<SCITEGIC>MOL_PROPERTY
E
SciTegic.value.DoubleValue
-0.583

@<SCITEGIC>MOL_PROPERTY
-TS
SciTegic.value.DoubleValue
37.734

@<SCITEGIC>MOL_PROPERTY
U+W
SciTegic.value.DoubleValue
-24.728

@<SCITEGIC>MOL_PROPERTY
U
SciTegic.value.DoubleValue
27.696

@<SCITEGIC>MOL_PROPERTY
W
SciTegic.value.DoubleValue
-52.423

@<SCITEGIC>MOL_PROPERTY
W(PB)
SciTegic.value.DoubleValue
-54.885

@<SCITEGIC>MOL_PROPERTY
W(SA)
SciTegic.value.DoubleValue
2.462

@<SCITEGIC>MOL_PROPERTY
Valence
SciTegic.value.DoubleValue
6.158

@<SCITEGIC>MOL_PROPERTY
Coulomb
SciTegic.value.DoubleValue
20.386

@<SCITEGIC>MOL_PROPERTY
VdW
SciTegic.value.DoubleValue
1.152

@<SCITEGIC>MOL_PROPERTY
VdW6
SciTegic.value.DoubleValue
-9.567

@<SCITEGIC>MOL_PROPERTY
VdW12
SciTegic.value.DoubleValue
10.718

@<SCITEGIC>MOL_PROPERTY
Bond
SciTegic.value.DoubleValue
0.273

@<SCITEGIC>MOL_PROPERTY
Angle
SciTegic.value.DoubleValue
1.662

@<SCITEGIC>MOL_PROPERTY
Pdih
SciTegic.value.DoubleValue
4.223

@<SCITEGIC>MOL_PROPERTY
Idih
SciTegic.value.DoubleValue
0.000

@<SCITEGIC>MOL_PROPERTY
Tether
SciTegic.value.DoubleValue
0.000

@<TRIPOS>MOLECULE
guest-s15_vm2.mol2 : vm2 ligand conformer 88
          29          28           1
SMALL
USER_CHARGES
 
@<TRIPOS>ATOM
       1    C1      20.773407   18.337458   19.823609 C.3        1 MOL1        -0.2426
       2    H1      20.582258   18.970014   18.946927 H          1 MOL1         0.0959
       3    H2      21.774686   18.575746   20.205528 H          1 MOL1         0.0959
       4    H3      20.780047   17.291764   19.489682 H          1 MOL1         0.0959
       5    C2      19.699495   18.555761   20.910157 C.3        1 MOL1        -0.1410
       6    H4      19.895406   17.879001   21.750580 H          1 MOL1         0.0948
       7    H5      18.715805   18.275911   20.507943 H          1 MOL1         0.0948
       8    C3      19.662963   20.027492   21.388051 C.3        1 MOL1        -0.1435
       9    H6      20.658252   20.346310   21.726898 H          1 MOL1         0.0948
      10    H7      19.420906   20.660762   20.523301 H          1 MOL1         0.0948
      11    C4      18.611664   20.288729   22.498058 C.3        1 MOL1        -0.1435
      12    H8      17.780416   19.575479   22.411415 H          1 MOL1         0.0948
      13    H9      18.169520   21.279451   22.323652 H          1 MOL1         0.0948
      14    C5      19.174693   20.277409   23.942865 C.3        1 MOL1        -0.1435
      15    H10     19.927294   21.071384   24.046058 H          1 MOL1         0.0948
      16    H11     18.355562   20.541696   24.624186 H          1 MOL1         0.0948
      17    C6      19.794364   18.924648   24.374356 C.3        1 MOL1        -0.1500
      18    H12     20.661347   18.711328   23.737025 H          1 MOL1         0.0948
      19    H13     19.070942   18.114335   24.214114 H          1 MOL1         0.0948
      20    C7      20.264838   18.917838   25.845092 C.3        1 MOL1         0.1162
      21    H14     20.950054   19.758700   25.990264 H          1 MOL1         0.0910
      22    C8      21.023375   17.617707   26.156384 C.3        1 MOL1        -0.2491
      23    H15     20.377686   16.740305   26.025219 H          1 MOL1         0.0959
      24    H16     21.891745   17.504749   25.495362 H          1 MOL1         0.0959
      25    H17     21.390752   17.620415   27.190036 H          1 MOL1         0.0959
      26    N1      19.131201   19.108958   26.815428 N.4        1 MOL1        -0.5987
      27    H18     18.643219   19.993540   26.651385 H          1 MOL1         0.3605
      28    H19     19.465143   19.118443   27.783424 H          1 MOL1         0.3605
      29    H20     18.441725   18.356739   26.736167 H          1 MOL1         0.3605
@<TRIPOS>BOND
    1     1     2    1
    2     1     3    1
    3     1     4    1
    4     1     5    1
    5     5     6    1
    6     5     7    1
    7     5     8    1
    8     8     9    1
    9     8    10    1
   10     8    11    1
   11    11    12    1
   12    11    13    1
   13    11    14    1
   14    14    15    1
   15    14    16    1
   16    14    17    1
   17    17    18    1
   18    17    19    1
   19    17    20    1
   20    20    21    1
   21    20    22    1
   22    22    23    1
   23    22    24    1
   24    22    25    1
   25    20    26    1
   26    26    27    1
   27    26    28    1
   28    26    29    1
@<TRIPOS>SUBSTRUCTURE
       1 MOL1            1 RESIDUE      1      MOL     
@<SCITEGIC>MOL_PROPERTY
VM2 Rank
SciTegic.value.IntegerValue
88

@<SCITEGIC>MOL_PROPERTY
Conf_Id
SciTegic.value.IntegerValue
340

@<SCITEGIC>MOL_PROPERTY
Probability
SciTegic.value.DoubleValue
0.03

@<SCITEGIC>MOL_PROPERTY
Sum Probability
SciTegic.value.DoubleValue
99.12

@<SCITEGIC>MOL_PROPERTY
Delta G
SciTegic.value.DoubleValue
3.449

@<SCITEGIC>MOL_PROPERTY
G
SciTegic.value.DoubleValue
37.151

@<SCITEGIC>MOL_PROPERTY
E
SciTegic.value.DoubleValue
-0.617

@<SCITEGIC>MOL_PROPERTY
-TS
SciTegic.value.DoubleValue
37.768

@<SCITEGIC>MOL_PROPERTY
U+W
SciTegic.value.DoubleValue
-24.762

@<SCITEGIC>MOL_PROPERTY
U
SciTegic.value.DoubleValue
27.455

@<SCITEGIC>MOL_PROPERTY
W
SciTegic.value.DoubleValue
-52.217

@<SCITEGIC>MOL_PROPERTY
W(PB)
SciTegic.value.DoubleValue
-54.678

@<SCITEGIC>MOL_PROPERTY
W(SA)
SciTegic.value.DoubleValue
2.461

@<SCITEGIC>MOL_PROPERTY
Valence
SciTegic.value.DoubleValue
6.249

@<SCITEGIC>MOL_PROPERTY
Coulomb
SciTegic.value.DoubleValue
20.070

@<SCITEGIC>MOL_PROPERTY
VdW
SciTegic.value.DoubleValue
1.137

@<SCITEGIC>MOL_PROPERTY
VdW6
SciTegic.value.DoubleValue
-9.668

@<SCITEGIC>MOL_PROPERTY
VdW12
SciTegic.value.DoubleValue
10.805

@<SCITEGIC>MOL_PROPERTY
Bond
SciTegic.value.DoubleValue
0.280

@<SCITEGIC>MOL_PROPERTY
Angle
SciTegic.value.DoubleValue
1.672

@<SCITEGIC>MOL_PROPERTY
Pdih
SciTegic.value.DoubleValue
4.297

@<SCITEGIC>MOL_PROPERTY
Idih
SciTegic.value.DoubleValue
0.000

@<SCITEGIC>MOL_PROPERTY
Tether
SciTegic.value.DoubleValue
0.000

@<TRIPOS>MOLECULE
guest-s15_vm2.mol2 : vm2 ligand conformer 89
          29          28           1
SMALL
USER_CHARGES
 
@<TRIPOS>ATOM
       1    C1      18.257912   19.144215   19.997721 C.3        1 MOL1        -0.2426
       2    H1      18.012114   20.206284   19.867961 H          1 MOL1         0.0959
       3    H2      18.791787   18.804545   19.100601 H          1 MOL1         0.0959
       4    H3      17.315311   18.585122   20.060400 H          1 MOL1         0.0959
       5    C2      19.107820   18.923169   21.266836 C.3        1 MOL1        -0.1410
       6    H4      19.315647   17.850548   21.384271 H          1 MOL1         0.0948
       7    H5      18.524583   19.239507   22.141366 H          1 MOL1         0.0948
       8    C3      20.436152   19.711110   21.207677 C.3        1 MOL1        -0.1435
       9    H6      20.944794   19.481582   20.261165 H          1 MOL1         0.0948
      10    H7      20.220191   20.788147   21.184318 H          1 MOL1         0.0948
      11    C4      21.415783   19.406906   22.370486 C.3        1 MOL1        -0.1435
      12    H8      22.329832   19.990094   22.192086 H          1 MOL1         0.0948
      13    H9      21.726644   18.353698   22.336005 H          1 MOL1         0.0948
      14    C5      20.881877   19.766926   23.781518 C.3        1 MOL1        -0.1435
      15    H10     21.722713   20.133007   24.387036 H          1 MOL1         0.0948
      16    H11     20.174370   20.603095   23.706575 H          1 MOL1         0.0948
      17    C6      20.244530   18.563021   24.523540 C.3        1 MOL1        -0.1500
      18    H12     20.986614   17.755940   24.585347 H          1 MOL1         0.0948
      19    H13     19.398160   18.159960   23.956297 H          1 MOL1         0.0948
      20    C7      19.780567   18.917675   25.952633 C.3        1 MOL1         0.1162
      21    H14     20.633541   19.334630   26.496894 H          1 MOL1         0.0910
      22    C8      19.307546   17.654873   26.690154 C.3        1 MOL1        -0.2491
      23    H15     20.110851   16.909335   26.741406 H          1 MOL1         0.0959
      24    H16     19.010129   17.894353   27.718551 H          1 MOL1         0.0959
      25    H17     18.448527   17.197345   26.183498 H          1 MOL1         0.0959
      26    N1      18.703813   19.968105   25.963435 N.4        1 MOL1        -0.5987
      27    H18     19.019016   20.830738   25.511648 H          1 MOL1         0.3605
      28    H19     18.424770   20.207147   26.919304 H          1 MOL1         0.3605
      29    H20     17.866013   19.648615   25.470135 H          1 MOL1         0.3605
@<TRIPOS>BOND
    1     1     2    1
    2     1     3    1
    3     1     4    1
    4     1     5    1
    5     5     6    1
    6     5     7    1
    7     5     8    1
    8     8     9    1
    9     8    10    1
   10     8    11    1
   11    11    12    1
   12    11    13    1
   13    11    14    1
   14    14    15    1
   15    14    16    1
   16    14    17    1
   17    17    18    1
   18    17    19    1
   19    17    20    1
   20    20    21    1
   21    20    22    1
   22    22    23    1
   23    22    24    1
   24    22    25    1
   25    20    26    1
   26    26    27    1
   27    26    28    1
   28    26    29    1
@<TRIPOS>SUBSTRUCTURE
       1 MOL1            1 RESIDUE      1      MOL     
@<SCITEGIC>MOL_PROPERTY
VM2 Rank
SciTegic.value.IntegerValue
89

@<SCITEGIC>MOL_PROPERTY
Conf_Id
SciTegic.value.IntegerValue
785

@<SCITEGIC>MOL_PROPERTY
Probability
SciTegic.value.DoubleValue
0.03

@<SCITEGIC>MOL_PROPERTY
Sum Probability
SciTegic.value.DoubleValue
99.15

@<SCITEGIC>MOL_PROPERTY
Delta G
SciTegic.value.DoubleValue
3.518

@<SCITEGIC>MOL_PROPERTY
G
SciTegic.value.DoubleValue
37.221

@<SCITEGIC>MOL_PROPERTY
E
SciTegic.value.DoubleValue
-0.529

@<SCITEGIC>MOL_PROPERTY
-TS
SciTegic.value.DoubleValue
37.750

@<SCITEGIC>MOL_PROPERTY
U+W
SciTegic.value.DoubleValue
-24.674

@<SCITEGIC>MOL_PROPERTY
U
SciTegic.value.DoubleValue
27.893

@<SCITEGIC>MOL_PROPERTY
W
SciTegic.value.DoubleValue
-52.567

@<SCITEGIC>MOL_PROPERTY
W(PB)
SciTegic.value.DoubleValue
-55.029

@<SCITEGIC>MOL_PROPERTY
W(SA)
SciTegic.value.DoubleValue
2.463

@<SCITEGIC>MOL_PROPERTY
Valence
SciTegic.value.DoubleValue
6.176

@<SCITEGIC>MOL_PROPERTY
Coulomb
SciTegic.value.DoubleValue
20.673

@<SCITEGIC>MOL_PROPERTY
VdW
SciTegic.value.DoubleValue
1.043

@<SCITEGIC>MOL_PROPERTY
VdW6
SciTegic.value.DoubleValue
-9.722

@<SCITEGIC>MOL_PROPERTY
VdW12
SciTegic.value.DoubleValue
10.765

@<SCITEGIC>MOL_PROPERTY
Bond
SciTegic.value.DoubleValue
0.282

@<SCITEGIC>MOL_PROPERTY
Angle
SciTegic.value.DoubleValue
1.681

@<SCITEGIC>MOL_PROPERTY
Pdih
SciTegic.value.DoubleValue
4.213

@<SCITEGIC>MOL_PROPERTY
Idih
SciTegic.value.DoubleValue
0.000

@<SCITEGIC>MOL_PROPERTY
Tether
SciTegic.value.DoubleValue
0.000

@<TRIPOS>MOLECULE
guest-s15_vm2.mol2 : vm2 ligand conformer 90
          29          28           1
SMALL
USER_CHARGES
 
@<TRIPOS>ATOM
       1    C1      18.349525   20.201479   20.267802 C.3        1 MOL1        -0.2426
       2    H1      18.685732   21.228879   20.458685 H          1 MOL1         0.0959
       3    H2      17.723761   20.215307   19.366046 H          1 MOL1         0.0959
       4    H3      17.714078   19.885481   21.104248 H          1 MOL1         0.0959
       5    C2      19.552026   19.249589   20.076177 C.3        1 MOL1        -0.1410
       6    H4      20.081985   19.530403   19.155282 H          1 MOL1         0.0948
       7    H5      19.190286   18.223406   19.921837 H          1 MOL1         0.0948
       8    C3      20.555433   19.279487   21.254264 C.3        1 MOL1        -0.1435
       9    H6      21.426577   18.666334   20.985092 H          1 MOL1         0.0948
      10    H7      20.929071   20.303596   21.391487 H          1 MOL1         0.0948
      11    C4      19.961011   18.757834   22.584309 C.3        1 MOL1        -0.1435
      12    H8      19.549128   17.751318   22.427928 H          1 MOL1         0.0948
      13    H9      19.125342   19.397749   22.883422 H          1 MOL1         0.0948
      14    C5      21.029091   18.707612   23.704733 C.3        1 MOL1        -0.1435
      15    H10     21.849231   18.060457   23.363989 H          1 MOL1         0.0948
      16    H11     21.471471   19.701860   23.857383 H          1 MOL1         0.0948
      17    C6      20.502663   18.149348   25.053296 C.3        1 MOL1        -0.1500
      18    H12     21.348992   17.678640   25.571248 H          1 MOL1         0.0948
      19    H13     19.774638   17.346617   24.876188 H          1 MOL1         0.0948
      20    C7      19.908123   19.217421   26.001103 C.3        1 MOL1         0.1162
      21    H14     20.661871   19.996542   26.150766 H          1 MOL1         0.0910
      22    C8      19.586710   18.593052   27.368540 C.3        1 MOL1        -0.2491
      23    H15     19.203182   19.351900   28.061712 H          1 MOL1         0.0959
      24    H16     18.832021   17.801961   27.275946 H          1 MOL1         0.0959
      25    H17     20.486307   18.155941   27.819538 H          1 MOL1         0.0959
      26    N1      18.691417   19.900178   25.443775 N.4        1 MOL1        -0.5987
      27    H18     17.937897   19.230832   25.266000 H          1 MOL1         0.3605
      28    H19     18.906001   20.371765   24.561217 H          1 MOL1         0.3605
      29    H20     18.330197   20.606872   26.090948 H          1 MOL1         0.3605
@<TRIPOS>BOND
    1     1     2    1
    2     1     3    1
    3     1     4    1
    4     1     5    1
    5     5     6    1
    6     5     7    1
    7     5     8    1
    8     8     9    1
    9     8    10    1
   10     8    11    1
   11    11    12    1
   12    11    13    1
   13    11    14    1
   14    14    15    1
   15    14    16    1
   16    14    17    1
   17    17    18    1
   18    17    19    1
   19    17    20    1
   20    20    21    1
   21    20    22    1
   22    22    23    1
   23    22    24    1
   24    22    25    1
   25    20    26    1
   26    26    27    1
   27    26    28    1
   28    26    29    1
@<TRIPOS>SUBSTRUCTURE
       1 MOL1            1 RESIDUE      1      MOL     
@<SCITEGIC>MOL_PROPERTY
VM2 Rank
SciTegic.value.IntegerValue
90

@<SCITEGIC>MOL_PROPERTY
Conf_Id
SciTegic.value.IntegerValue
560

@<SCITEGIC>MOL_PROPERTY
Probability
SciTegic.value.DoubleValue
0.03

@<SCITEGIC>MOL_PROPERTY
Sum Probability
SciTegic.value.DoubleValue
99.18

@<SCITEGIC>MOL_PROPERTY
Delta G
SciTegic.value.DoubleValue
3.528

@<SCITEGIC>MOL_PROPERTY
G
SciTegic.value.DoubleValue
37.231

@<SCITEGIC>MOL_PROPERTY
E
SciTegic.value.DoubleValue
-0.124

@<SCITEGIC>MOL_PROPERTY
-TS
SciTegic.value.DoubleValue
37.354

@<SCITEGIC>MOL_PROPERTY
U+W
SciTegic.value.DoubleValue
-24.268

@<SCITEGIC>MOL_PROPERTY
U
SciTegic.value.DoubleValue
27.845

@<SCITEGIC>MOL_PROPERTY
W
SciTegic.value.DoubleValue
-52.113

@<SCITEGIC>MOL_PROPERTY
W(PB)
SciTegic.value.DoubleValue
-54.608

@<SCITEGIC>MOL_PROPERTY
W(SA)
SciTegic.value.DoubleValue
2.495

@<SCITEGIC>MOL_PROPERTY
Valence
SciTegic.value.DoubleValue
5.676

@<SCITEGIC>MOL_PROPERTY
Coulomb
SciTegic.value.DoubleValue
20.988

@<SCITEGIC>MOL_PROPERTY
VdW
SciTegic.value.DoubleValue
1.181

@<SCITEGIC>MOL_PROPERTY
VdW6
SciTegic.value.DoubleValue
-9.499

@<SCITEGIC>MOL_PROPERTY
VdW12
SciTegic.value.DoubleValue
10.681

@<SCITEGIC>MOL_PROPERTY
Bond
SciTegic.value.DoubleValue
0.294

@<SCITEGIC>MOL_PROPERTY
Angle
SciTegic.value.DoubleValue
1.640

@<SCITEGIC>MOL_PROPERTY
Pdih
SciTegic.value.DoubleValue
3.742

@<SCITEGIC>MOL_PROPERTY
Idih
SciTegic.value.DoubleValue
0.000

@<SCITEGIC>MOL_PROPERTY
Tether
SciTegic.value.DoubleValue
0.000

@<TRIPOS>MOLECULE
guest-s15_vm2.mol2 : vm2 ligand conformer 91
          29          28           1
SMALL
USER_CHARGES
 
@<TRIPOS>ATOM
       1    C1      20.128554   20.859338   20.081073 C.3        1 MOL1        -0.2426
       2    H1      19.109379   21.258451   19.996053 H          1 MOL1         0.0959
       3    H2      20.700855   21.521014   20.744322 H          1 MOL1         0.0959
       4    H3      20.590027   20.898815   19.085824 H          1 MOL1         0.0959
       5    C2      20.114617   19.412442   20.617978 C.3        1 MOL1        -0.1410
       6    H4      21.143976   19.029705   20.660972 H          1 MOL1         0.0948
       7    H5      19.565939   18.768807   19.916137 H          1 MOL1         0.0948
       8    C3      19.468600   19.328745   22.018453 C.3        1 MOL1        -0.1435
       9    H6      20.017359   19.988665   22.698758 H          1 MOL1         0.0948
      10    H7      18.439289   19.709166   21.965202 H          1 MOL1         0.0948
      11    C4      19.456169   17.876685   22.556214 C.3        1 MOL1        -0.1435
      12    H8      20.480663   17.485042   22.621057 H          1 MOL1         0.0948
      13    H9      18.938248   17.247137   21.819308 H          1 MOL1         0.0948
      14    C5      18.735308   17.709652   23.919591 C.3        1 MOL1        -0.1435
      15    H10     17.861631   18.372425   23.975679 H          1 MOL1         0.0948
      16    H11     18.327660   16.689976   23.958874 H          1 MOL1         0.0948
      17    C6      19.644633   17.886198   25.165913 C.3        1 MOL1        -0.1500
      18    H12     20.462660   17.155636   25.111378 H          1 MOL1         0.0948
      19    H13     19.065716   17.624983   26.061774 H          1 MOL1         0.0948
      20    C7      20.243623   19.296376   25.352866 C.3        1 MOL1         0.1162
      21    H14     20.850983   19.532201   24.475225 H          1 MOL1         0.0910
      22    C8      21.161131   19.328238   26.585314 C.3        1 MOL1        -0.2491
      23    H15     21.621358   20.317271   26.701026 H          1 MOL1         0.0959
      24    H16     20.603055   19.101588   27.502433 H          1 MOL1         0.0959
      25    H17     21.970466   18.593966   26.487481 H          1 MOL1         0.0959
      26    N1      19.183365   20.358326   25.456598 N.4        1 MOL1        -0.5987
      27    H18     18.583238   20.205155   26.271477 H          1 MOL1         0.3605
      28    H19     18.583242   20.363868   24.627463 H          1 MOL1         0.3605
      29    H20     19.594764   21.291509   25.549308 H          1 MOL1         0.3605
@<TRIPOS>BOND
    1     1     2    1
    2     1     3    1
    3     1     4    1
    4     1     5    1
    5     5     6    1
    6     5     7    1
    7     5     8    1
    8     8     9    1
    9     8    10    1
   10     8    11    1
   11    11    12    1
   12    11    13    1
   13    11    14    1
   14    14    15    1
   15    14    16    1
   16    14    17    1
   17    17    18    1
   18    17    19    1
   19    17    20    1
   20    20    21    1
   21    20    22    1
   22    22    23    1
   23    22    24    1
   24    22    25    1
   25    20    26    1
   26    26    27    1
   27    26    28    1
   28    26    29    1
@<TRIPOS>SUBSTRUCTURE
       1 MOL1            1 RESIDUE      1      MOL     
@<SCITEGIC>MOL_PROPERTY
VM2 Rank
SciTegic.value.IntegerValue
91

@<SCITEGIC>MOL_PROPERTY
Conf_Id
SciTegic.value.IntegerValue
1207

@<SCITEGIC>MOL_PROPERTY
Probability
SciTegic.value.DoubleValue
0.03

@<SCITEGIC>MOL_PROPERTY
Sum Probability
SciTegic.value.DoubleValue
99.21

@<SCITEGIC>MOL_PROPERTY
Delta G
SciTegic.value.DoubleValue
3.544

@<SCITEGIC>MOL_PROPERTY
G
SciTegic.value.DoubleValue
37.247

@<SCITEGIC>MOL_PROPERTY
E
SciTegic.value.DoubleValue
-0.605

@<SCITEGIC>MOL_PROPERTY
-TS
SciTegic.value.DoubleValue
37.852

@<SCITEGIC>MOL_PROPERTY
U+W
SciTegic.value.DoubleValue
-24.750

@<SCITEGIC>MOL_PROPERTY
U
SciTegic.value.DoubleValue
27.636

@<SCITEGIC>MOL_PROPERTY
W
SciTegic.value.DoubleValue
-52.386

@<SCITEGIC>MOL_PROPERTY
W(PB)
SciTegic.value.DoubleValue
-54.896

@<SCITEGIC>MOL_PROPERTY
W(SA)
SciTegic.value.DoubleValue
2.510

@<SCITEGIC>MOL_PROPERTY
Valence
SciTegic.value.DoubleValue
5.823

@<SCITEGIC>MOL_PROPERTY
Coulomb
SciTegic.value.DoubleValue
21.132

@<SCITEGIC>MOL_PROPERTY
VdW
SciTegic.value.DoubleValue
0.682

@<SCITEGIC>MOL_PROPERTY
VdW6
SciTegic.value.DoubleValue
-10.106

@<SCITEGIC>MOL_PROPERTY
VdW12
SciTegic.value.DoubleValue
10.787

@<SCITEGIC>MOL_PROPERTY
Bond
SciTegic.value.DoubleValue
0.276

@<SCITEGIC>MOL_PROPERTY
Angle
SciTegic.value.DoubleValue
1.914

@<SCITEGIC>MOL_PROPERTY
Pdih
SciTegic.value.DoubleValue
3.633

@<SCITEGIC>MOL_PROPERTY
Idih
SciTegic.value.DoubleValue
0.000

@<SCITEGIC>MOL_PROPERTY
Tether
SciTegic.value.DoubleValue
0.000

@<TRIPOS>MOLECULE
guest-s15_vm2.mol2 : vm2 ligand conformer 92
          29          28           1
SMALL
USER_CHARGES
 
@<TRIPOS>ATOM
       1    C1      20.704075   19.216108   19.875768 C.3        1 MOL1        -0.2426
       2    H1      20.211369   18.239470   19.791096 H          1 MOL1         0.0959
       3    H2      20.855935   19.599156   18.858360 H          1 MOL1         0.0959
       4    H3      21.692416   19.064839   20.328878 H          1 MOL1         0.0959
       5    C2      19.857919   20.207186   20.706520 C.3        1 MOL1        -0.1410
       6    H4      18.867617   20.324700   20.244769 H          1 MOL1         0.0948
       7    H5      20.333322   21.197352   20.670534 H          1 MOL1         0.0948
       8    C3      19.698836   19.784689   22.186703 C.3        1 MOL1        -0.1435
       9    H6      20.695656   19.704000   22.638520 H          1 MOL1         0.0948
      10    H7      19.167160   20.582511   22.722985 H          1 MOL1         0.0948
      11    C4      18.932829   18.450584   22.362319 C.3        1 MOL1        -0.1435
      12    H8      19.548716   17.619470   21.993627 H          1 MOL1         0.0948
      13    H9      18.034991   18.470357   21.729331 H          1 MOL1         0.0948
      14    C5      18.489529   18.147861   23.817101 C.3        1 MOL1        -0.1435
      15    H10     17.785883   18.915963   24.162460 H          1 MOL1         0.0948
      16    H11     17.912614   17.212965   23.795224 H          1 MOL1         0.0948
      17    C6      19.651769   17.965093   24.831025 C.3        1 MOL1        -0.1500
      18    H12     20.467438   17.412467   24.346095 H          1 MOL1         0.0948
      19    H13     19.303246   17.326170   25.653367 H          1 MOL1         0.0948
      20    C7      20.197245   19.279196   25.436781 C.3        1 MOL1         0.1162
      21    H14     20.489909   19.949783   24.626239 H          1 MOL1         0.0910
      22    C8      21.442125   18.994255   26.291663 C.3        1 MOL1        -0.2491
      23    H15     21.204155   18.328111   27.130456 H          1 MOL1         0.0959
      24    H16     22.227285   18.519352   25.690197 H          1 MOL1         0.0959
      25    H17     21.853948   19.925173   26.700562 H          1 MOL1         0.0959
      26    N1      19.161673   20.011027   26.246120 N.4        1 MOL1        -0.5987
      27    H18     19.533540   20.885928   26.626728 H          1 MOL1         0.3605
      28    H19     18.838887   19.446050   27.036151 H          1 MOL1         0.3605
      29    H20     18.342109   20.246246   25.680119 H          1 MOL1         0.3605
@<TRIPOS>BOND
    1     1     2    1
    2     1     3    1
    3     1     4    1
    4     1     5    1
    5     5     6    1
    6     5     7    1
    7     5     8    1
    8     8     9    1
    9     8    10    1
   10     8    11    1
   11    11    12    1
   12    11    13    1
   13    11    14    1
   14    14    15    1
   15    14    16    1
   16    14    17    1
   17    17    18    1
   18    17    19    1
   19    17    20    1
   20    20    21    1
   21    20    22    1
   22    22    23    1
   23    22    24    1
   24    22    25    1
   25    20    26    1
   26    26    27    1
   27    26    28    1
   28    26    29    1
@<TRIPOS>SUBSTRUCTURE
       1 MOL1            1 RESIDUE      1      MOL     
@<SCITEGIC>MOL_PROPERTY
VM2 Rank
SciTegic.value.IntegerValue
92

@<SCITEGIC>MOL_PROPERTY
Conf_Id
SciTegic.value.IntegerValue
1014

@<SCITEGIC>MOL_PROPERTY
Probability
SciTegic.value.DoubleValue
0.03

@<SCITEGIC>MOL_PROPERTY
Sum Probability
SciTegic.value.DoubleValue
99.23

@<SCITEGIC>MOL_PROPERTY
Delta G
SciTegic.value.DoubleValue
3.584

@<SCITEGIC>MOL_PROPERTY
G
SciTegic.value.DoubleValue
37.287

@<SCITEGIC>MOL_PROPERTY
E
SciTegic.value.DoubleValue
-0.558

@<SCITEGIC>MOL_PROPERTY
-TS
SciTegic.value.DoubleValue
37.844

@<SCITEGIC>MOL_PROPERTY
U+W
SciTegic.value.DoubleValue
-24.702

@<SCITEGIC>MOL_PROPERTY
U
SciTegic.value.DoubleValue
27.777

@<SCITEGIC>MOL_PROPERTY
W
SciTegic.value.DoubleValue
-52.479

@<SCITEGIC>MOL_PROPERTY
W(PB)
SciTegic.value.DoubleValue
-54.934

@<SCITEGIC>MOL_PROPERTY
W(SA)
SciTegic.value.DoubleValue
2.455

@<SCITEGIC>MOL_PROPERTY
Valence
SciTegic.value.DoubleValue
6.109

@<SCITEGIC>MOL_PROPERTY
Coulomb
SciTegic.value.DoubleValue
20.731

@<SCITEGIC>MOL_PROPERTY
VdW
SciTegic.value.DoubleValue
0.937

@<SCITEGIC>MOL_PROPERTY
VdW6
SciTegic.value.DoubleValue
-10.573

@<SCITEGIC>MOL_PROPERTY
VdW12
SciTegic.value.DoubleValue
11.510

@<SCITEGIC>MOL_PROPERTY
Bond
SciTegic.value.DoubleValue
0.307

@<SCITEGIC>MOL_PROPERTY
Angle
SciTegic.value.DoubleValue
1.995

@<SCITEGIC>MOL_PROPERTY
Pdih
SciTegic.value.DoubleValue
3.807

@<SCITEGIC>MOL_PROPERTY
Idih
SciTegic.value.DoubleValue
0.000

@<SCITEGIC>MOL_PROPERTY
Tether
SciTegic.value.DoubleValue
0.000

@<TRIPOS>MOLECULE
guest-s15_vm2.mol2 : vm2 ligand conformer 93
          29          28           1
SMALL
USER_CHARGES
 
@<TRIPOS>ATOM
       1    C1      20.003201   19.912903   19.168944 C.3        1 MOL1        -0.2426
       2    H1      19.894739   18.916575   18.720824 H          1 MOL1         0.0959
       3    H2      19.122226   20.508435   18.896094 H          1 MOL1         0.0959
       4    H3      20.884339   20.390114   18.720727 H          1 MOL1         0.0959
       5    C2      20.155802   19.817457   20.701750 C.3        1 MOL1        -0.1410
       6    H4      20.292240   20.825484   21.117587 H          1 MOL1         0.0948
       7    H5      21.066931   19.250463   20.934970 H          1 MOL1         0.0948
       8    C3      18.926411   19.144136   21.356057 C.3        1 MOL1        -0.1435
       9    H6      18.018882   19.684261   21.052760 H          1 MOL1         0.0948
      10    H7      18.817538   18.120163   20.972783 H          1 MOL1         0.0948
      11    C4      18.988836   19.116079   22.902787 C.3        1 MOL1        -0.1435
      12    H8      18.040512   18.709957   23.281009 H          1 MOL1         0.0948
      13    H9      19.065845   20.147462   23.267996 H          1 MOL1         0.0948
      14    C5      20.163575   18.268190   23.451929 C.3        1 MOL1        -0.1435
      15    H10     20.198151   17.317481   22.902146 H          1 MOL1         0.0948
      16    H11     21.116462   18.774725   23.248026 H          1 MOL1         0.0948
      17    C6      20.076692   17.940834   24.965971 C.3        1 MOL1        -0.1500
      18    H12     20.886750   17.233769   25.189513 H          1 MOL1         0.0948
      19    H13     19.143450   17.405662   25.185686 H          1 MOL1         0.0948
      20    C7      20.218929   19.163149   25.903576 C.3        1 MOL1         0.1162
      21    H14     21.001300   19.815632   25.503964 H          1 MOL1         0.0910
      22    C8      20.641841   18.710824   27.310979 C.3        1 MOL1        -0.2491
      23    H15     21.602267   18.181326   27.279445 H          1 MOL1         0.0959
      24    H16     20.761987   19.574198   27.977041 H          1 MOL1         0.0959
      25    H17     19.895164   18.039038   27.752808 H          1 MOL1         0.0959
      26    N1      18.960712   19.982428   25.992007 N.4        1 MOL1        -0.5987
      27    H18     18.190840   19.438339   26.390482 H          1 MOL1         0.3605
      28    H19     18.662498   20.309297   25.070268 H          1 MOL1         0.3605
      29    H20     19.092424   20.806753   26.585206 H          1 MOL1         0.3605
@<TRIPOS>BOND
    1     1     2    1
    2     1     3    1
    3     1     4    1
    4     1     5    1
    5     5     6    1
    6     5     7    1
    7     5     8    1
    8     8     9    1
    9     8    10    1
   10     8    11    1
   11    11    12    1
   12    11    13    1
   13    11    14    1
   14    14    15    1
   15    14    16    1
   16    14    17    1
   17    17    18    1
   18    17    19    1
   19    17    20    1
   20    20    21    1
   21    20    22    1
   22    22    23    1
   23    22    24    1
   24    22    25    1
   25    20    26    1
   26    26    27    1
   27    26    28    1
   28    26    29    1
@<TRIPOS>SUBSTRUCTURE
       1 MOL1            1 RESIDUE      1      MOL     
@<SCITEGIC>MOL_PROPERTY
VM2 Rank
SciTegic.value.IntegerValue
93

@<SCITEGIC>MOL_PROPERTY
Conf_Id
SciTegic.value.IntegerValue
861

@<SCITEGIC>MOL_PROPERTY
Probability
SciTegic.value.DoubleValue
0.03

@<SCITEGIC>MOL_PROPERTY
Sum Probability
SciTegic.value.DoubleValue
99.26

@<SCITEGIC>MOL_PROPERTY
Delta G
SciTegic.value.DoubleValue
3.591

@<SCITEGIC>MOL_PROPERTY
G
SciTegic.value.DoubleValue
37.293

@<SCITEGIC>MOL_PROPERTY
E
SciTegic.value.DoubleValue
-0.217

@<SCITEGIC>MOL_PROPERTY
-TS
SciTegic.value.DoubleValue
37.510

@<SCITEGIC>MOL_PROPERTY
U+W
SciTegic.value.DoubleValue
-24.362

@<SCITEGIC>MOL_PROPERTY
U
SciTegic.value.DoubleValue
27.700

@<SCITEGIC>MOL_PROPERTY
W
SciTegic.value.DoubleValue
-52.062

@<SCITEGIC>MOL_PROPERTY
W(PB)
SciTegic.value.DoubleValue
-54.563

@<SCITEGIC>MOL_PROPERTY
W(SA)
SciTegic.value.DoubleValue
2.501

@<SCITEGIC>MOL_PROPERTY
Valence
SciTegic.value.DoubleValue
5.425

@<SCITEGIC>MOL_PROPERTY
Coulomb
SciTegic.value.DoubleValue
21.143

@<SCITEGIC>MOL_PROPERTY
VdW
SciTegic.value.DoubleValue
1.132

@<SCITEGIC>MOL_PROPERTY
VdW6
SciTegic.value.DoubleValue
-9.721

@<SCITEGIC>MOL_PROPERTY
VdW12
SciTegic.value.DoubleValue
10.853

@<SCITEGIC>MOL_PROPERTY
Bond
SciTegic.value.DoubleValue
0.283

@<SCITEGIC>MOL_PROPERTY
Angle
SciTegic.value.DoubleValue
1.776

@<SCITEGIC>MOL_PROPERTY
Pdih
SciTegic.value.DoubleValue
3.367

@<SCITEGIC>MOL_PROPERTY
Idih
SciTegic.value.DoubleValue
0.000

@<SCITEGIC>MOL_PROPERTY
Tether
SciTegic.value.DoubleValue
0.000

@<TRIPOS>MOLECULE
guest-s15_vm2.mol2 : vm2 ligand conformer 94
          29          28           1
SMALL
USER_CHARGES
 
@<TRIPOS>ATOM
       1    C1      18.347939   19.712803   20.026489 C.3        1 MOL1        -0.2426
       2    H1      17.735150   19.791707   20.932937 H          1 MOL1         0.0959
       3    H2      17.913704   20.385267   19.275382 H          1 MOL1         0.0959
       4    H3      18.267876   18.686693   19.644750 H          1 MOL1         0.0959
       5    C2      19.821244   20.089575   20.302045 C.3        1 MOL1        -0.1410
       6    H4      19.871825   21.108238   20.711260 H          1 MOL1         0.0948
       7    H5      20.364799   20.114726   19.347227 H          1 MOL1         0.0948
       8    C3      20.539745   19.105328   21.256279 C.3        1 MOL1        -0.1435
       9    H6      20.510072   18.093654   20.828601 H          1 MOL1         0.0948
      10    H7      21.600556   19.386125   21.313246 H          1 MOL1         0.0948
      11    C4      19.944489   19.086887   22.684436 C.3        1 MOL1        -0.1435
      12    H8      18.907994   18.726396   22.649754 H          1 MOL1         0.0948
      13    H9      19.927509   20.114134   23.067960 H          1 MOL1         0.0948
      14    C5      20.768691   18.184751   23.633520 C.3        1 MOL1        -0.1435
      15    H10     20.929735   17.213759   23.144923 H          1 MOL1         0.0948
      16    H11     21.766504   18.621262   23.779372 H          1 MOL1         0.0948
      17    C6      20.113816   17.920444   25.015017 C.3        1 MOL1        -0.1500
      18    H12     20.745347   17.188127   25.535582 H          1 MOL1         0.0948
      19    H13     19.137838   17.434488   24.884808 H          1 MOL1         0.0948
      20    C7      19.964917   19.170983   25.913644 C.3        1 MOL1         0.1162
      21    H14     20.862585   19.786562   25.800540 H          1 MOL1         0.0910
      22    C8      19.847079   18.758262   27.390153 C.3        1 MOL1        -0.2491
      23    H15     19.757457   19.641457   28.034688 H          1 MOL1         0.0959
      24    H16     18.967676   18.123184   27.555569 H          1 MOL1         0.0959
      25    H17     20.736196   18.202289   27.712888 H          1 MOL1         0.0959
      26    N1      18.788079   20.026967   25.532416 N.4        1 MOL1        -0.5987
      27    H18     18.843117   20.324472   24.555665 H          1 MOL1         0.3605
      28    H19     18.736593   20.870434   26.110974 H          1 MOL1         0.3605
      29    H20     17.906859   19.520125   25.651316 H          1 MOL1         0.3605
@<TRIPOS>BOND
    1     1     2    1
    2     1     3    1
    3     1     4    1
    4     1     5    1
    5     5     6    1
    6     5     7    1
    7     5     8    1
    8     8     9    1
    9     8    10    1
   10     8    11    1
   11    11    12    1
   12    11    13    1
   13    11    14    1
   14    14    15    1
   15    14    16    1
   16    14    17    1
   17    17    18    1
   18    17    19    1
   19    17    20    1
   20    20    21    1
   21    20    22    1
   22    22    23    1
   23    22    24    1
   24    22    25    1
   25    20    26    1
   26    26    27    1
   27    26    28    1
   28    26    29    1
@<TRIPOS>SUBSTRUCTURE
       1 MOL1            1 RESIDUE      1      MOL     
@<SCITEGIC>MOL_PROPERTY
VM2 Rank
SciTegic.value.IntegerValue
94

@<SCITEGIC>MOL_PROPERTY
Conf_Id
SciTegic.value.IntegerValue
1010

@<SCITEGIC>MOL_PROPERTY
Probability
SciTegic.value.DoubleValue
0.02

@<SCITEGIC>MOL_PROPERTY
Sum Probability
SciTegic.value.DoubleValue
99.28

@<SCITEGIC>MOL_PROPERTY
Delta G
SciTegic.value.DoubleValue
3.717

@<SCITEGIC>MOL_PROPERTY
G
SciTegic.value.DoubleValue
37.420

@<SCITEGIC>MOL_PROPERTY
E
SciTegic.value.DoubleValue
-0.103

@<SCITEGIC>MOL_PROPERTY
-TS
SciTegic.value.DoubleValue
37.523

@<SCITEGIC>MOL_PROPERTY
U+W
SciTegic.value.DoubleValue
-24.248

@<SCITEGIC>MOL_PROPERTY
U
SciTegic.value.DoubleValue
27.822

@<SCITEGIC>MOL_PROPERTY
W
SciTegic.value.DoubleValue
-52.069

@<SCITEGIC>MOL_PROPERTY
W(PB)
SciTegic.value.DoubleValue
-54.586

@<SCITEGIC>MOL_PROPERTY
W(SA)
SciTegic.value.DoubleValue
2.516

@<SCITEGIC>MOL_PROPERTY
Valence
SciTegic.value.DoubleValue
5.451

@<SCITEGIC>MOL_PROPERTY
Coulomb
SciTegic.value.DoubleValue
21.220

@<SCITEGIC>MOL_PROPERTY
VdW
SciTegic.value.DoubleValue
1.151

@<SCITEGIC>MOL_PROPERTY
VdW6
SciTegic.value.DoubleValue
-9.707

@<SCITEGIC>MOL_PROPERTY
VdW12
SciTegic.value.DoubleValue
10.858

@<SCITEGIC>MOL_PROPERTY
Bond
SciTegic.value.DoubleValue
0.277

@<SCITEGIC>MOL_PROPERTY
Angle
SciTegic.value.DoubleValue
1.825

@<SCITEGIC>MOL_PROPERTY
Pdih
SciTegic.value.DoubleValue
3.348

@<SCITEGIC>MOL_PROPERTY
Idih
SciTegic.value.DoubleValue
0.000

@<SCITEGIC>MOL_PROPERTY
Tether
SciTegic.value.DoubleValue
0.000

@<TRIPOS>MOLECULE
guest-s15_vm2.mol2 : vm2 ligand conformer 95
          29          28           1
SMALL
USER_CHARGES
 
@<TRIPOS>ATOM
       1    C1      18.483548   18.634284   19.931039 C.3        1 MOL1        -0.2426
       2    H1      18.669962   19.348364   19.118292 H          1 MOL1         0.0959
       3    H2      18.930956   17.671896   19.650183 H          1 MOL1         0.0959
       4    H3      17.398141   18.491065   20.010965 H          1 MOL1         0.0959
       5    C2      19.065057   19.147348   21.265379 C.3        1 MOL1        -0.1410
       6    H4      18.824648   18.424635   22.056109 H          1 MOL1         0.0948
       7    H5      18.580745   20.096659   21.533222 H          1 MOL1         0.0948
       8    C3      20.595678   19.345126   21.181582 C.3        1 MOL1        -0.1435
       9    H6      21.079055   18.374314   21.005297 H          1 MOL1         0.0948
      10    H7      20.827811   19.965077   20.304622 H          1 MOL1         0.0948
      11    C4      21.225890   20.015212   22.429890 C.3        1 MOL1        -0.1435
      12    H8      20.834250   21.034811   22.548495 H          1 MOL1         0.0948
      13    H9      22.300523   20.133216   22.233301 H          1 MOL1         0.0948
      14    C5      21.061525   19.215590   23.748874 C.3        1 MOL1        -0.1435
      15    H10     21.001761   18.143383   23.522305 H          1 MOL1         0.0948
      16    H11     21.970546   19.349317   24.351594 H          1 MOL1         0.0948
      17    C6      19.848692   19.676628   24.599893 C.3        1 MOL1        -0.1500
      18    H12     18.913233   19.551667   24.043261 H          1 MOL1         0.0948
      19    H13     19.950345   20.753183   24.790142 H          1 MOL1         0.0948
      20    C7      19.735722   18.951203   25.959887 C.3        1 MOL1         0.1162
      21    H14     20.696190   19.038309   26.477118 H          1 MOL1         0.0910
      22    C8      19.403689   17.457445   25.792735 C.3        1 MOL1        -0.2491
      23    H15     20.208611   16.924434   25.274036 H          1 MOL1         0.0959
      24    H16     19.276614   16.978412   26.771370 H          1 MOL1         0.0959
      25    H17     18.476309   17.318332   25.223243 H          1 MOL1         0.0959
      26    N1      18.716200   19.613163   26.844719 N.4        1 MOL1        -0.5987
      27    H18     17.780313   19.573316   26.432155 H          1 MOL1         0.3605
      28    H19     18.940274   20.599440   27.005789 H          1 MOL1         0.3605
      29    H20     18.665739   19.159057   27.761216 H          1 MOL1         0.3605
@<TRIPOS>BOND
    1     1     2    1
    2     1     3    1
    3     1     4    1
    4     1     5    1
    5     5     6    1
    6     5     7    1
    7     5     8    1
    8     8     9    1
    9     8    10    1
   10     8    11    1
   11    11    12    1
   12    11    13    1
   13    11    14    1
   14    14    15    1
   15    14    16    1
   16    14    17    1
   17    17    18    1
   18    17    19    1
   19    17    20    1
   20    20    21    1
   21    20    22    1
   22    22    23    1
   23    22    24    1
   24    22    25    1
   25    20    26    1
   26    26    27    1
   27    26    28    1
   28    26    29    1
@<TRIPOS>SUBSTRUCTURE
       1 MOL1            1 RESIDUE      1      MOL     
@<SCITEGIC>MOL_PROPERTY
VM2 Rank
SciTegic.value.IntegerValue
95

@<SCITEGIC>MOL_PROPERTY
Conf_Id
SciTegic.value.IntegerValue
522

@<SCITEGIC>MOL_PROPERTY
Probability
SciTegic.value.DoubleValue
0.02

@<SCITEGIC>MOL_PROPERTY
Sum Probability
SciTegic.value.DoubleValue
99.30

@<SCITEGIC>MOL_PROPERTY
Delta G
SciTegic.value.DoubleValue
3.721

@<SCITEGIC>MOL_PROPERTY
G
SciTegic.value.DoubleValue
37.424

@<SCITEGIC>MOL_PROPERTY
E
SciTegic.value.DoubleValue
-0.308

@<SCITEGIC>MOL_PROPERTY
-TS
SciTegic.value.DoubleValue
37.731

@<SCITEGIC>MOL_PROPERTY
U+W
SciTegic.value.DoubleValue
-24.452

@<SCITEGIC>MOL_PROPERTY
U
SciTegic.value.DoubleValue
28.051

@<SCITEGIC>MOL_PROPERTY
W
SciTegic.value.DoubleValue
-52.504

@<SCITEGIC>MOL_PROPERTY
W(PB)
SciTegic.value.DoubleValue
-54.966

@<SCITEGIC>MOL_PROPERTY
W(SA)
SciTegic.value.DoubleValue
2.462

@<SCITEGIC>MOL_PROPERTY
Valence
SciTegic.value.DoubleValue
6.726

@<SCITEGIC>MOL_PROPERTY
Coulomb
SciTegic.value.DoubleValue
20.161

@<SCITEGIC>MOL_PROPERTY
VdW
SciTegic.value.DoubleValue
1.165

@<SCITEGIC>MOL_PROPERTY
VdW6
SciTegic.value.DoubleValue
-9.905

@<SCITEGIC>MOL_PROPERTY
VdW12
SciTegic.value.DoubleValue
11.070

@<SCITEGIC>MOL_PROPERTY
Bond
SciTegic.value.DoubleValue
0.295

@<SCITEGIC>MOL_PROPERTY
Angle
SciTegic.value.DoubleValue
1.942

@<SCITEGIC>MOL_PROPERTY
Pdih
SciTegic.value.DoubleValue
4.488

@<SCITEGIC>MOL_PROPERTY
Idih
SciTegic.value.DoubleValue
0.000

@<SCITEGIC>MOL_PROPERTY
Tether
SciTegic.value.DoubleValue
0.000

@<TRIPOS>MOLECULE
guest-s15_vm2.mol2 : vm2 ligand conformer 96
          29          28           1
SMALL
USER_CHARGES
 
@<TRIPOS>ATOM
       1    C1      19.676244   19.532884   18.998119 C.3        1 MOL1        -0.2426
       2    H1      18.888310   20.265727   18.780560 H          1 MOL1         0.0959
       3    H2      20.648103   20.026042   18.865685 H          1 MOL1         0.0959
       4    H3      19.602322   18.728383   18.254912 H          1 MOL1         0.0959
       5    C2      19.531191   18.969151   20.427557 C.3        1 MOL1        -0.1410
       6    H4      20.308430   18.211340   20.590279 H          1 MOL1         0.0948
       7    H5      18.562994   18.457597   20.520066 H          1 MOL1         0.0948
       8    C3      19.635862   20.086204   21.493138 C.3        1 MOL1        -0.1435
       9    H6      20.623569   20.564197   21.436065 H          1 MOL1         0.0948
      10    H7      18.901594   20.868699   21.256592 H          1 MOL1         0.0948
      11    C4      19.376941   19.595759   22.939187 C.3        1 MOL1        -0.1435
      12    H8      18.407924   19.079677   22.983269 H          1 MOL1         0.0948
      13    H9      19.296548   20.484329   23.576503 H          1 MOL1         0.0948
      14    C5      20.495081   18.674426   23.489054 C.3        1 MOL1        -0.1435
      15    H10     20.667428   17.850356   22.785719 H          1 MOL1         0.0948
      16    H11     21.438657   19.235263   23.537770 H          1 MOL1         0.0948
      17    C6      20.197528   18.045493   24.875975 C.3        1 MOL1        -0.1500
      18    H12     21.016148   17.346363   25.093286 H          1 MOL1         0.0948
      19    H13     19.287516   17.433065   24.826578 H          1 MOL1         0.0948
      20    C7      20.089768   19.057692   26.041203 C.3        1 MOL1         0.1162
      21    H14     20.836078   19.843072   25.887134 H          1 MOL1         0.0910
      22    C8      20.388618   18.365992   27.381623 C.3        1 MOL1        -0.2491
      23    H15     19.675747   17.555048   27.577160 H          1 MOL1         0.0959
      24    H16     21.400055   17.940799   27.385240 H          1 MOL1         0.0959
      25    H17     20.328167   19.082036   28.210552 H          1 MOL1         0.0959
      26    N1      18.744766   19.728399   26.108142 N.4        1 MOL1        -0.5987
      27    H18     18.000499   19.049721   26.289878 H          1 MOL1         0.3605
      28    H19     18.519469   20.204561   25.231794 H          1 MOL1         0.3605
      29    H20     18.711991   20.426209   26.856987 H          1 MOL1         0.3605
@<TRIPOS>BOND
    1     1     2    1
    2     1     3    1
    3     1     4    1
    4     1     5    1
    5     5     6    1
    6     5     7    1
    7     5     8    1
    8     8     9    1
    9     8    10    1
   10     8    11    1
   11    11    12    1
   12    11    13    1
   13    11    14    1
   14    14    15    1
   15    14    16    1
   16    14    17    1
   17    17    18    1
   18    17    19    1
   19    17    20    1
   20    20    21    1
   21    20    22    1
   22    22    23    1
   23    22    24    1
   24    22    25    1
   25    20    26    1
   26    26    27    1
   27    26    28    1
   28    26    29    1
@<TRIPOS>SUBSTRUCTURE
       1 MOL1            1 RESIDUE      1      MOL     
@<SCITEGIC>MOL_PROPERTY
VM2 Rank
SciTegic.value.IntegerValue
96

@<SCITEGIC>MOL_PROPERTY
Conf_Id
SciTegic.value.IntegerValue
1520

@<SCITEGIC>MOL_PROPERTY
Probability
SciTegic.value.DoubleValue
0.02

@<SCITEGIC>MOL_PROPERTY
Sum Probability
SciTegic.value.DoubleValue
99.32

@<SCITEGIC>MOL_PROPERTY
Delta G
SciTegic.value.DoubleValue
3.747

@<SCITEGIC>MOL_PROPERTY
G
SciTegic.value.DoubleValue
37.449

@<SCITEGIC>MOL_PROPERTY
E
SciTegic.value.DoubleValue
0.044

@<SCITEGIC>MOL_PROPERTY
-TS
SciTegic.value.DoubleValue
37.405

@<SCITEGIC>MOL_PROPERTY
U+W
SciTegic.value.DoubleValue
-24.101

@<SCITEGIC>MOL_PROPERTY
U
SciTegic.value.DoubleValue
28.001

@<SCITEGIC>MOL_PROPERTY
W
SciTegic.value.DoubleValue
-52.102

@<SCITEGIC>MOL_PROPERTY
W(PB)
SciTegic.value.DoubleValue
-54.571

@<SCITEGIC>MOL_PROPERTY
W(SA)
SciTegic.value.DoubleValue
2.469

@<SCITEGIC>MOL_PROPERTY
Valence
SciTegic.value.DoubleValue
5.678

@<SCITEGIC>MOL_PROPERTY
Coulomb
SciTegic.value.DoubleValue
21.086

@<SCITEGIC>MOL_PROPERTY
VdW
SciTegic.value.DoubleValue
1.237

@<SCITEGIC>MOL_PROPERTY
VdW6
SciTegic.value.DoubleValue
-9.584

@<SCITEGIC>MOL_PROPERTY
VdW12
SciTegic.value.DoubleValue
10.821

@<SCITEGIC>MOL_PROPERTY
Bond
SciTegic.value.DoubleValue
0.291

@<SCITEGIC>MOL_PROPERTY
Angle
SciTegic.value.DoubleValue
1.937

@<SCITEGIC>MOL_PROPERTY
Pdih
SciTegic.value.DoubleValue
3.450

@<SCITEGIC>MOL_PROPERTY
Idih
SciTegic.value.DoubleValue
0.000

@<SCITEGIC>MOL_PROPERTY
Tether
SciTegic.value.DoubleValue
0.000

@<TRIPOS>MOLECULE
guest-s15_vm2.mol2 : vm2 ligand conformer 97
          29          28           1
SMALL
USER_CHARGES
 
@<TRIPOS>ATOM
       1    C1      20.906731   20.369991   20.524765 C.3        1 MOL1        -0.2426
       2    H1      20.894877   21.367708   20.067261 H          1 MOL1         0.0959
       3    H2      21.162919   20.493336   21.582666 H          1 MOL1         0.0959
       4    H3      21.710639   19.794666   20.047511 H          1 MOL1         0.0959
       5    C2      19.540287   19.671418   20.333305 C.3        1 MOL1        -0.1410
       6    H4      19.341257   19.608349   19.254289 H          1 MOL1         0.0948
       7    H5      18.733585   20.287856   20.753771 H          1 MOL1         0.0948
       8    C3      19.491179   18.240560   20.928350 C.3        1 MOL1        -0.1435
       9    H6      18.860772   17.620760   20.275819 H          1 MOL1         0.0948
      10    H7      20.489036   17.781801   20.897477 H          1 MOL1         0.0948
      11    C4      18.907024   18.150524   22.361837 C.3        1 MOL1        -0.1435
      12    H8      18.859628   17.090505   22.647219 H          1 MOL1         0.0948
      13    H9      17.869555   18.512269   22.355709 H          1 MOL1         0.0948
      14    C5      19.715299   18.923055   23.429784 C.3        1 MOL1        -0.1435
      15    H10     20.772004   18.634705   23.357217 H          1 MOL1         0.0948
      16    H11     19.654374   20.000515   23.229060 H          1 MOL1         0.0948
      17    C6      19.185992   18.648057   24.858668 C.3        1 MOL1        -0.1500
      18    H12     19.307738   17.583853   25.100624 H          1 MOL1         0.0948
      19    H13     18.106804   18.850041   24.876263 H          1 MOL1         0.0948
      20    C7      19.862627   19.509546   25.949225 C.3        1 MOL1         0.1162
      21    H14     19.759447   20.562160   25.668190 H          1 MOL1         0.0910
      22    C8      21.360987   19.189112   26.095764 C.3        1 MOL1        -0.2491
      23    H15     21.519771   18.125903   26.315053 H          1 MOL1         0.0959
      24    H16     21.913429   19.438394   25.182474 H          1 MOL1         0.0959
      25    H17     21.803114   19.774315   26.911490 H          1 MOL1         0.0959
      26    N1      19.165874   19.353738   27.272303 N.4        1 MOL1        -0.5987
      27    H18     19.218313   18.389299   27.611226 H          1 MOL1         0.3605
      28    H19     18.174863   19.604168   27.208490 H          1 MOL1         0.3605
      29    H20     19.585765   19.952750   27.988951 H          1 MOL1         0.3605
@<TRIPOS>BOND
    1     1     2    1
    2     1     3    1
    3     1     4    1
    4     1     5    1
    5     5     6    1
    6     5     7    1
    7     5     8    1
    8     8     9    1
    9     8    10    1
   10     8    11    1
   11    11    12    1
   12    11    13    1
   13    11    14    1
   14    14    15    1
   15    14    16    1
   16    14    17    1
   17    17    18    1
   18    17    19    1
   19    17    20    1
   20    20    21    1
   21    20    22    1
   22    22    23    1
   23    22    24    1
   24    22    25    1
   25    20    26    1
   26    26    27    1
   27    26    28    1
   28    26    29    1
@<TRIPOS>SUBSTRUCTURE
       1 MOL1            1 RESIDUE      1      MOL     
@<SCITEGIC>MOL_PROPERTY
VM2 Rank
SciTegic.value.IntegerValue
97

@<SCITEGIC>MOL_PROPERTY
Conf_Id
SciTegic.value.IntegerValue
1048

@<SCITEGIC>MOL_PROPERTY
Probability
SciTegic.value.DoubleValue
0.02

@<SCITEGIC>MOL_PROPERTY
Sum Probability
SciTegic.value.DoubleValue
99.34

@<SCITEGIC>MOL_PROPERTY
Delta G
SciTegic.value.DoubleValue
3.748

@<SCITEGIC>MOL_PROPERTY
G
SciTegic.value.DoubleValue
37.450

@<SCITEGIC>MOL_PROPERTY
E
SciTegic.value.DoubleValue
-0.302

@<SCITEGIC>MOL_PROPERTY
-TS
SciTegic.value.DoubleValue
37.753

@<SCITEGIC>MOL_PROPERTY
U+W
SciTegic.value.DoubleValue
-24.447

@<SCITEGIC>MOL_PROPERTY
U
SciTegic.value.DoubleValue
27.666

@<SCITEGIC>MOL_PROPERTY
W
SciTegic.value.DoubleValue
-52.112

@<SCITEGIC>MOL_PROPERTY
W(PB)
SciTegic.value.DoubleValue
-54.553

@<SCITEGIC>MOL_PROPERTY
W(SA)
SciTegic.value.DoubleValue
2.441

@<SCITEGIC>MOL_PROPERTY
Valence
SciTegic.value.DoubleValue
6.691

@<SCITEGIC>MOL_PROPERTY
Coulomb
SciTegic.value.DoubleValue
19.707

@<SCITEGIC>MOL_PROPERTY
VdW
SciTegic.value.DoubleValue
1.268

@<SCITEGIC>MOL_PROPERTY
VdW6
SciTegic.value.DoubleValue
-9.727

@<SCITEGIC>MOL_PROPERTY
VdW12
SciTegic.value.DoubleValue
10.994

@<SCITEGIC>MOL_PROPERTY
Bond
SciTegic.value.DoubleValue
0.283

@<SCITEGIC>MOL_PROPERTY
Angle
SciTegic.value.DoubleValue
1.951

@<SCITEGIC>MOL_PROPERTY
Pdih
SciTegic.value.DoubleValue
4.457

@<SCITEGIC>MOL_PROPERTY
Idih
SciTegic.value.DoubleValue
0.000

@<SCITEGIC>MOL_PROPERTY
Tether
SciTegic.value.DoubleValue
0.000

@<TRIPOS>MOLECULE
guest-s15_vm2.mol2 : vm2 ligand conformer 98
          29          28           1
SMALL
USER_CHARGES
 
@<TRIPOS>ATOM
       1    C1      20.042321   20.726199   20.611538 C.3        1 MOL1        -0.2426
       2    H1      19.381135   20.978335   21.449691 H          1 MOL1         0.0959
       3    H2      21.082509   20.772522   20.958982 H          1 MOL1         0.0959
       4    H3      19.909109   21.500583   19.845090 H          1 MOL1         0.0959
       5    C2      19.708945   19.333312   20.034423 C.3        1 MOL1        -0.1410
       6    H4      20.270012   19.196177   19.099479 H          1 MOL1         0.0948
       7    H5      18.645661   19.298175   19.758957 H          1 MOL1         0.0948
       8    C3      20.039185   18.152706   20.982942 C.3        1 MOL1        -0.1435
       9    H6      19.807439   17.222875   20.445293 H          1 MOL1         0.0948
      10    H7      21.119289   18.118372   21.181025 H          1 MOL1         0.0948
      11    C4      19.246186   18.149655   22.315871 C.3        1 MOL1        -0.1435
      12    H8      19.032113   17.107351   22.590080 H          1 MOL1         0.0948
      13    H9      18.269827   18.632809   22.173104 H          1 MOL1         0.0948
      14    C5      20.011178   18.808835   23.489774 C.3        1 MOL1        -0.1435
      15    H10     20.958883   18.275121   23.638279 H          1 MOL1         0.0948
      16    H11     20.269080   19.845750   23.244228 H          1 MOL1         0.0948
      17    C6      19.181744   18.785363   24.797087 C.3        1 MOL1        -0.1500
      18    H12     18.985910   17.746221   25.093274 H          1 MOL1         0.0948
      19    H13     18.203239   19.241927   24.597663 H          1 MOL1         0.0948
      20    C7      19.844735   19.544306   25.969193 C.3        1 MOL1         0.1162
      21    H14     20.065585   20.563403   25.637090 H          1 MOL1         0.0910
      22    C8      21.159537   18.882876   26.419762 C.3        1 MOL1        -0.2491
      23    H15     21.579465   19.408927   27.285951 H          1 MOL1         0.0959
      24    H16     20.999884   17.834982   26.702850 H          1 MOL1         0.0959
      25    H17     21.914288   18.913660   25.625540 H          1 MOL1         0.0959
      26    N1      18.902168   19.672748   27.133409 N.4        1 MOL1        -0.5987
      27    H18     19.322732   20.209155   27.897676 H          1 MOL1         0.3605
      28    H19     18.644940   18.755994   27.509125 H          1 MOL1         0.3605
      29    H20     18.036244   20.150206   26.866775 H          1 MOL1         0.3605
@<TRIPOS>BOND
    1     1     2    1
    2     1     3    1
    3     1     4    1
    4     1     5    1
    5     5     6    1
    6     5     7    1
    7     5     8    1
    8     8     9    1
    9     8    10    1
   10     8    11    1
   11    11    12    1
   12    11    13    1
   13    11    14    1
   14    14    15    1
   15    14    16    1
   16    14    17    1
   17    17    18    1
   18    17    19    1
   19    17    20    1
   20    20    21    1
   21    20    22    1
   22    22    23    1
   23    22    24    1
   24    22    25    1
   25    20    26    1
   26    26    27    1
   27    26    28    1
   28    26    29    1
@<TRIPOS>SUBSTRUCTURE
       1 MOL1            1 RESIDUE      1      MOL     
@<SCITEGIC>MOL_PROPERTY
VM2 Rank
SciTegic.value.IntegerValue
98

@<SCITEGIC>MOL_PROPERTY
Conf_Id
SciTegic.value.IntegerValue
1603

@<SCITEGIC>MOL_PROPERTY
Probability
SciTegic.value.DoubleValue
0.02

@<SCITEGIC>MOL_PROPERTY
Sum Probability
SciTegic.value.DoubleValue
99.35

@<SCITEGIC>MOL_PROPERTY
Delta G
SciTegic.value.DoubleValue
3.752

@<SCITEGIC>MOL_PROPERTY
G
SciTegic.value.DoubleValue
37.454

@<SCITEGIC>MOL_PROPERTY
E
SciTegic.value.DoubleValue
-0.296

@<SCITEGIC>MOL_PROPERTY
-TS
SciTegic.value.DoubleValue
37.750

@<SCITEGIC>MOL_PROPERTY
U+W
SciTegic.value.DoubleValue
-24.440

@<SCITEGIC>MOL_PROPERTY
U
SciTegic.value.DoubleValue
27.705

@<SCITEGIC>MOL_PROPERTY
W
SciTegic.value.DoubleValue
-52.145

@<SCITEGIC>MOL_PROPERTY
W(PB)
SciTegic.value.DoubleValue
-54.638

@<SCITEGIC>MOL_PROPERTY
W(SA)
SciTegic.value.DoubleValue
2.493

@<SCITEGIC>MOL_PROPERTY
Valence
SciTegic.value.DoubleValue
6.675

@<SCITEGIC>MOL_PROPERTY
Coulomb
SciTegic.value.DoubleValue
19.752

@<SCITEGIC>MOL_PROPERTY
VdW
SciTegic.value.DoubleValue
1.278

@<SCITEGIC>MOL_PROPERTY
VdW6
SciTegic.value.DoubleValue
-9.693

@<SCITEGIC>MOL_PROPERTY
VdW12
SciTegic.value.DoubleValue
10.971

@<SCITEGIC>MOL_PROPERTY
Bond
SciTegic.value.DoubleValue
0.285

@<SCITEGIC>MOL_PROPERTY
Angle
SciTegic.value.DoubleValue
1.923

@<SCITEGIC>MOL_PROPERTY
Pdih
SciTegic.value.DoubleValue
4.468

@<SCITEGIC>MOL_PROPERTY
Idih
SciTegic.value.DoubleValue
0.000

@<SCITEGIC>MOL_PROPERTY
Tether
SciTegic.value.DoubleValue
0.000

@<TRIPOS>MOLECULE
guest-s15_vm2.mol2 : vm2 ligand conformer 99
          29          28           1
SMALL
USER_CHARGES
 
@<TRIPOS>ATOM
       1    C1      20.751687   18.043287   20.607537 C.3        1 MOL1        -0.2426
       2    H1      20.316908   17.479753   21.442241 H          1 MOL1         0.0959
       3    H2      21.007704   17.320176   19.822409 H          1 MOL1         0.0959
       4    H3      21.683352   18.512786   20.948727 H          1 MOL1         0.0959
       5    C2      19.761519   19.097897   20.067194 C.3        1 MOL1        -0.1410
       6    H4      18.817689   18.605299   19.794757 H          1 MOL1         0.0948
       7    H5      20.166463   19.515956   19.135010 H          1 MOL1         0.0948
       8    C3      19.474369   20.265673   21.045266 C.3        1 MOL1        -0.1435
       9    H6      20.397002   20.828630   21.242528 H          1 MOL1         0.0948
      10    H7      18.803056   20.968266   20.532369 H          1 MOL1         0.0948
      11    C4      18.804505   19.844466   22.379158 C.3        1 MOL1        -0.1435
      12    H8      18.201344   18.938721   22.227575 H          1 MOL1         0.0948
      13    H9      18.099453   20.632625   22.677615 H          1 MOL1         0.0948
      14    C5      19.813212   19.635077   23.535062 C.3        1 MOL1        -0.1435
      15    H10     20.560562   18.888487   23.246114 H          1 MOL1         0.0948
      16    H11     20.357742   20.572026   23.716352 H          1 MOL1         0.0948
      17    C6      19.104747   19.192452   24.838768 C.3        1 MOL1        -0.1500
      18    H12     18.608620   18.225680   24.680285 H          1 MOL1         0.0948
      19    H13     18.310990   19.915679   25.068082 H          1 MOL1         0.0948
      20    C7      20.048281   19.098393   26.059565 C.3        1 MOL1         0.1162
      21    H14     20.563566   20.057510   26.170004 H          1 MOL1         0.0910
      22    C8      21.106217   17.992784   25.892336 C.3        1 MOL1        -0.2491
      23    H15     20.636316   17.017866   25.712224 H          1 MOL1         0.0959
      24    H16     21.781256   18.209123   25.056362 H          1 MOL1         0.0959
      25    H17     21.724723   17.910559   26.794578 H          1 MOL1         0.0959
      26    N1      19.271464   18.885972   27.329114 N.4        1 MOL1        -0.5987
      27    H18     18.589969   19.634626   27.483958 H          1 MOL1         0.3605
      28    H19     19.888846   18.862599   28.145816 H          1 MOL1         0.3605
      29    H20     18.757352   18.001073   27.309356 H          1 MOL1         0.3605
@<TRIPOS>BOND
    1     1     2    1
    2     1     3    1
    3     1     4    1
    4     1     5    1
    5     5     6    1
    6     5     7    1
    7     5     8    1
    8     8     9    1
    9     8    10    1
   10     8    11    1
   11    11    12    1
   12    11    13    1
   13    11    14    1
   14    14    15    1
   15    14    16    1
   16    14    17    1
   17    17    18    1
   18    17    19    1
   19    17    20    1
   20    20    21    1
   21    20    22    1
   22    22    23    1
   23    22    24    1
   24    22    25    1
   25    20    26    1
   26    26    27    1
   27    26    28    1
   28    26    29    1
@<TRIPOS>SUBSTRUCTURE
       1 MOL1            1 RESIDUE      1      MOL     
@<SCITEGIC>MOL_PROPERTY
VM2 Rank
SciTegic.value.IntegerValue
99

@<SCITEGIC>MOL_PROPERTY
Conf_Id
SciTegic.value.IntegerValue
150

@<SCITEGIC>MOL_PROPERTY
Probability
SciTegic.value.DoubleValue
0.02

@<SCITEGIC>MOL_PROPERTY
Sum Probability
SciTegic.value.DoubleValue
99.37

@<SCITEGIC>MOL_PROPERTY
Delta G
SciTegic.value.DoubleValue
3.754

@<SCITEGIC>MOL_PROPERTY
G
SciTegic.value.DoubleValue
37.457

@<SCITEGIC>MOL_PROPERTY
E
SciTegic.value.DoubleValue
-0.303

@<SCITEGIC>MOL_PROPERTY
-TS
SciTegic.value.DoubleValue
37.759

@<SCITEGIC>MOL_PROPERTY
U+W
SciTegic.value.DoubleValue
-24.447

@<SCITEGIC>MOL_PROPERTY
U
SciTegic.value.DoubleValue
27.632

@<SCITEGIC>MOL_PROPERTY
W
SciTegic.value.DoubleValue
-52.080

@<SCITEGIC>MOL_PROPERTY
W(PB)
SciTegic.value.DoubleValue
-54.518

@<SCITEGIC>MOL_PROPERTY
W(SA)
SciTegic.value.DoubleValue
2.438

@<SCITEGIC>MOL_PROPERTY
Valence
SciTegic.value.DoubleValue
6.676

@<SCITEGIC>MOL_PROPERTY
Coulomb
SciTegic.value.DoubleValue
19.710

@<SCITEGIC>MOL_PROPERTY
VdW
SciTegic.value.DoubleValue
1.247

@<SCITEGIC>MOL_PROPERTY
VdW6
SciTegic.value.DoubleValue
-9.759

@<SCITEGIC>MOL_PROPERTY
VdW12
SciTegic.value.DoubleValue
11.005

@<SCITEGIC>MOL_PROPERTY
Bond
SciTegic.value.DoubleValue
0.286

@<SCITEGIC>MOL_PROPERTY
Angle
SciTegic.value.DoubleValue
1.893

@<SCITEGIC>MOL_PROPERTY
Pdih
SciTegic.value.DoubleValue
4.497

@<SCITEGIC>MOL_PROPERTY
Idih
SciTegic.value.DoubleValue
0.000

@<SCITEGIC>MOL_PROPERTY
Tether
SciTegic.value.DoubleValue
0.000

@<TRIPOS>MOLECULE
guest-s15_vm2.mol2 : vm2 ligand conformer 100
          29          28           1
SMALL
USER_CHARGES
 
@<TRIPOS>ATOM
       1    C1      18.898092   17.958305   20.718447 C.3        1 MOL1        -0.2426
       2    H1      18.674140   17.248442   19.911730 H          1 MOL1         0.0959
       3    H2      19.492385   17.423304   21.469390 H          1 MOL1         0.0959
       4    H3      17.946306   18.260233   21.174273 H          1 MOL1         0.0959
       5    C2      19.663197   19.180008   20.164679 C.3        1 MOL1        -0.1410
       6    H4      19.110484   19.580777   19.303515 H          1 MOL1         0.0948
       7    H5      20.637619   18.853481   19.775363 H          1 MOL1         0.0948
       8    C3      19.870568   20.323458   21.190501 C.3        1 MOL1        -0.1435
       9    H6      20.377008   21.147171   20.668617 H          1 MOL1         0.0948
      10    H7      18.899166   20.727058   21.507556 H          1 MOL1         0.0948
      11    C4      20.723936   19.938486   22.427034 C.3        1 MOL1        -0.1435
      12    H8      21.329995   20.808493   22.715378 H          1 MOL1         0.0948
      13    H9      21.437084   19.146627   22.159664 H          1 MOL1         0.0948
      14    C5      19.876925   19.513148   23.651284 C.3        1 MOL1        -0.1435
      15    H10     19.218108   20.344104   23.935495 H          1 MOL1         0.0948
      16    H11     19.226411   18.674518   23.380980 H          1 MOL1         0.0948
      17    C6      20.773058   19.116076   24.853077 C.3        1 MOL1        -0.1500
      18    H12     21.444337   19.950844   25.093834 H          1 MOL1         0.0948
      19    H13     21.422901   18.280836   24.560112 H          1 MOL1         0.0948
      20    C7      20.004916   18.720786   26.136364 C.3        1 MOL1         0.1162
      21    H14     20.750689   18.497914   26.905723 H          1 MOL1         0.0910
      22    C8      19.152770   17.455541   25.934785 C.3        1 MOL1        -0.2491
      23    H15     18.732352   17.120465   26.890905 H          1 MOL1         0.0959
      24    H16     18.317982   17.633425   25.246546 H          1 MOL1         0.0959
      25    H17     19.761126   16.635501   25.533514 H          1 MOL1         0.0959
      26    N1      19.172538   19.850192   26.677830 N.4        1 MOL1        -0.5987
      27    H18     18.435051   20.115795   26.020510 H          1 MOL1         0.3605
      28    H19     19.741116   20.682816   26.857177 H          1 MOL1         0.3605
      29    H20     18.720413   19.592251   27.559696 H          1 MOL1         0.3605
@<TRIPOS>BOND
    1     1     2    1
    2     1     3    1
    3     1     4    1
    4     1     5    1
    5     5     6    1
    6     5     7    1
    7     5     8    1
    8     8     9    1
    9     8    10    1
   10     8    11    1
   11    11    12    1
   12    11    13    1
   13    11    14    1
   14    14    15    1
   15    14    16    1
   16    14    17    1
   17    17    18    1
   18    17    19    1
   19    17    20    1
   20    20    21    1
   21    20    22    1
   22    22    23    1
   23    22    24    1
   24    22    25    1
   25    20    26    1
   26    26    27    1
   27    26    28    1
   28    26    29    1
@<TRIPOS>SUBSTRUCTURE
       1 MOL1            1 RESIDUE      1      MOL     
@<SCITEGIC>MOL_PROPERTY
VM2 Rank
SciTegic.value.IntegerValue
100

@<SCITEGIC>MOL_PROPERTY
Conf_Id
SciTegic.value.IntegerValue
651

@<SCITEGIC>MOL_PROPERTY
Probability
SciTegic.value.DoubleValue
0.02

@<SCITEGIC>MOL_PROPERTY
Sum Probability
SciTegic.value.DoubleValue
99.39

@<SCITEGIC>MOL_PROPERTY
Delta G
SciTegic.value.DoubleValue
3.773

@<SCITEGIC>MOL_PROPERTY
G
SciTegic.value.DoubleValue
37.475

@<SCITEGIC>MOL_PROPERTY
E
SciTegic.value.DoubleValue
-0.419

@<SCITEGIC>MOL_PROPERTY
-TS
SciTegic.value.DoubleValue
37.894

@<SCITEGIC>MOL_PROPERTY
U+W
SciTegic.value.DoubleValue
-24.563

@<SCITEGIC>MOL_PROPERTY
U
SciTegic.value.DoubleValue
27.852

@<SCITEGIC>MOL_PROPERTY
W
SciTegic.value.DoubleValue
-52.415

@<SCITEGIC>MOL_PROPERTY
W(PB)
SciTegic.value.DoubleValue
-54.827

@<SCITEGIC>MOL_PROPERTY
W(SA)
SciTegic.value.DoubleValue
2.412

@<SCITEGIC>MOL_PROPERTY
Valence
SciTegic.value.DoubleValue
6.641

@<SCITEGIC>MOL_PROPERTY
Coulomb
SciTegic.value.DoubleValue
19.992

@<SCITEGIC>MOL_PROPERTY
VdW
SciTegic.value.DoubleValue
1.219

@<SCITEGIC>MOL_PROPERTY
VdW6
SciTegic.value.DoubleValue
-10.253

@<SCITEGIC>MOL_PROPERTY
VdW12
SciTegic.value.DoubleValue
11.472

@<SCITEGIC>MOL_PROPERTY
Bond
SciTegic.value.DoubleValue
0.310

@<SCITEGIC>MOL_PROPERTY
Angle
SciTegic.value.DoubleValue
1.947

@<SCITEGIC>MOL_PROPERTY
Pdih
SciTegic.value.DoubleValue
4.384

@<SCITEGIC>MOL_PROPERTY
Idih
SciTegic.value.DoubleValue
0.000

@<SCITEGIC>MOL_PROPERTY
Tether
SciTegic.value.DoubleValue
0.000

@<TRIPOS>MOLECULE
guest-s15_vm2.mol2 : vm2 ligand conformer 101
          29          28           1
SMALL
USER_CHARGES
 
@<TRIPOS>ATOM
       1    C1      18.255322   19.423497   20.009578 C.3        1 MOL1        -0.2426
       2    H1      18.698914   19.088168   19.062998 H          1 MOL1         0.0959
       3    H2      17.633706   18.608883   20.403540 H          1 MOL1         0.0959
       4    H3      17.597026   20.274192   19.790513 H          1 MOL1         0.0959
       5    C2      19.347688   19.826436   21.022492 C.3        1 MOL1        -0.1410
       6    H4      18.869143   20.196597   21.936838 H          1 MOL1         0.0948
       7    H5      19.929257   20.664235   20.613148 H          1 MOL1         0.0948
       8    C3      20.295028   18.644092   21.338908 C.3        1 MOL1        -0.1435
       9    H6      19.721203   17.778824   21.698247 H          1 MOL1         0.0948
      10    H7      20.766894   18.325231   20.399183 H          1 MOL1         0.0948
      11    C4      21.414237   19.000012   22.352069 C.3        1 MOL1        -0.1435
      12    H8      21.677594   20.063703   22.272386 H          1 MOL1         0.0948
      13    H9      22.320973   18.449303   22.065758 H          1 MOL1         0.0948
      14    C5      21.094910   18.636190   23.825114 C.3        1 MOL1        -0.1435
      15    H10     20.932407   17.552535   23.895991 H          1 MOL1         0.0948
      16    H11     21.982383   18.855498   24.434794 H          1 MOL1         0.0948
      17    C6      19.879322   19.391583   24.417649 C.3        1 MOL1        -0.1500
      18    H12     18.956793   19.051723   23.930362 H          1 MOL1         0.0948
      19    H13     19.985999   20.460525   24.191188 H          1 MOL1         0.0948
      20    C7      19.734594   19.226628   25.947463 C.3        1 MOL1         0.1162
      21    H14     20.674728   19.533309   26.416185 H          1 MOL1         0.0910
      22    C8      19.443630   17.769034   26.347277 C.3        1 MOL1        -0.2491
      23    H15     18.537687   17.395503   25.853865 H          1 MOL1         0.0959
      24    H16     20.277264   17.108940   26.080936 H          1 MOL1         0.0959
      25    H17     19.298773   17.687414   27.431568 H          1 MOL1         0.0959
      26    N1      18.671268   20.138527   26.493449 N.4        1 MOL1        -0.5987
      27    H18     17.751130   19.915184   26.104678 H          1 MOL1         0.3605
      28    H19     18.867945   21.119800   26.276028 H          1 MOL1         0.3605
      29    H20     18.599588   20.060990   27.512064 H          1 MOL1         0.3605
@<TRIPOS>BOND
    1     1     2    1
    2     1     3    1
    3     1     4    1
    4     1     5    1
    5     5     6    1
    6     5     7    1
    7     5     8    1
    8     8     9    1
    9     8    10    1
   10     8    11    1
   11    11    12    1
   12    11    13    1
   13    11    14    1
   14    14    15    1
   15    14    16    1
   16    14    17    1
   17    17    18    1
   18    17    19    1
   19    17    20    1
   20    20    21    1
   21    20    22    1
   22    22    23    1
   23    22    24    1
   24    22    25    1
   25    20    26    1
   26    26    27    1
   27    26    28    1
   28    26    29    1
@<TRIPOS>SUBSTRUCTURE
       1 MOL1            1 RESIDUE      1      MOL     
@<SCITEGIC>MOL_PROPERTY
VM2 Rank
SciTegic.value.IntegerValue
101

@<SCITEGIC>MOL_PROPERTY
Conf_Id
SciTegic.value.IntegerValue
89

@<SCITEGIC>MOL_PROPERTY
Probability
SciTegic.value.DoubleValue
0.02

@<SCITEGIC>MOL_PROPERTY
Sum Probability
SciTegic.value.DoubleValue
99.41

@<SCITEGIC>MOL_PROPERTY
Delta G
SciTegic.value.DoubleValue
3.774

@<SCITEGIC>MOL_PROPERTY
G
SciTegic.value.DoubleValue
37.476

@<SCITEGIC>MOL_PROPERTY
E
SciTegic.value.DoubleValue
-0.326

@<SCITEGIC>MOL_PROPERTY
-TS
SciTegic.value.DoubleValue
37.802

@<SCITEGIC>MOL_PROPERTY
U+W
SciTegic.value.DoubleValue
-24.470

@<SCITEGIC>MOL_PROPERTY
U
SciTegic.value.DoubleValue
28.013

@<SCITEGIC>MOL_PROPERTY
W
SciTegic.value.DoubleValue
-52.483

@<SCITEGIC>MOL_PROPERTY
W(PB)
SciTegic.value.DoubleValue
-54.954

@<SCITEGIC>MOL_PROPERTY
W(SA)
SciTegic.value.DoubleValue
2.471

@<SCITEGIC>MOL_PROPERTY
Valence
SciTegic.value.DoubleValue
6.671

@<SCITEGIC>MOL_PROPERTY
Coulomb
SciTegic.value.DoubleValue
20.180

@<SCITEGIC>MOL_PROPERTY
VdW
SciTegic.value.DoubleValue
1.162

@<SCITEGIC>MOL_PROPERTY
VdW6
SciTegic.value.DoubleValue
-9.852

@<SCITEGIC>MOL_PROPERTY
VdW12
SciTegic.value.DoubleValue
11.014

@<SCITEGIC>MOL_PROPERTY
Bond
SciTegic.value.DoubleValue
0.284

@<SCITEGIC>MOL_PROPERTY
Angle
SciTegic.value.DoubleValue
1.876

@<SCITEGIC>MOL_PROPERTY
Pdih
SciTegic.value.DoubleValue
4.511

@<SCITEGIC>MOL_PROPERTY
Idih
SciTegic.value.DoubleValue
0.000

@<SCITEGIC>MOL_PROPERTY
Tether
SciTegic.value.DoubleValue
0.000

@<TRIPOS>MOLECULE
guest-s15_vm2.mol2 : vm2 ligand conformer 102
          29          28           1
SMALL
USER_CHARGES
 
@<TRIPOS>ATOM
       1    C1      20.154916   17.813471   20.031552 C.3        1 MOL1        -0.2426
       2    H1      19.671337   17.211300   20.810616 H          1 MOL1         0.0959
       3    H2      19.935501   17.340326   19.065675 H          1 MOL1         0.0959
       4    H3      21.240713   17.770877   20.187281 H          1 MOL1         0.0959
       5    C2      19.648382   19.273618   20.045514 C.3        1 MOL1        -0.1410
       6    H4      18.556645   19.287516   19.920491 H          1 MOL1         0.0948
       7    H5      20.064231   19.800599   19.175392 H          1 MOL1         0.0948
       8    C3      20.038537   20.048061   21.327489 C.3        1 MOL1        -0.1435
       9    H6      21.131688   20.046439   21.438019 H          1 MOL1         0.0948
      10    H7      19.741771   21.098786   21.204243 H          1 MOL1         0.0948
      11    C4      19.383553   19.485024   22.611300 C.3        1 MOL1        -0.1435
      12    H8      19.715903   18.453802   22.772984 H          1 MOL1         0.0948
      13    H9      18.293802   19.446248   22.477097 H          1 MOL1         0.0948
      14    C5      19.716761   20.351690   23.850501 C.3        1 MOL1        -0.1435
      15    H10     20.804275   20.465893   23.958787 H          1 MOL1         0.0948
      16    H11     19.322223   21.362490   23.676893 H          1 MOL1         0.0948
      17    C6      19.104901   19.804637   25.167455 C.3        1 MOL1        -0.1500
      18    H12     18.194024   19.229500   24.954534 H          1 MOL1         0.0948
      19    H13     18.781276   20.664649   25.768599 H          1 MOL1         0.0948
      20    C7      20.074398   18.968275   26.037074 C.3        1 MOL1         0.1162
      21    H14     20.944618   19.589679   26.269778 H          1 MOL1         0.0910
      22    C8      20.569697   17.696923   25.327379 C.3        1 MOL1        -0.2491
      23    H15     19.729930   17.078820   24.986329 H          1 MOL1         0.0959
      24    H16     21.193507   17.947679   24.461643 H          1 MOL1         0.0959
      25    H17     21.185856   17.091475   26.003447 H          1 MOL1         0.0959
      26    N1      19.444853   18.614301   27.355735 N.4        1 MOL1        -0.5987
      27    H18     19.150345   19.449833   27.869569 H          1 MOL1         0.3605
      28    H19     20.097379   18.101887   27.955988 H          1 MOL1         0.3605
      29    H20     18.618493   18.023768   27.228810 H          1 MOL1         0.3605
@<TRIPOS>BOND
    1     1     2    1
    2     1     3    1
    3     1     4    1
    4     1     5    1
    5     5     6    1
    6     5     7    1
    7     5     8    1
    8     8     9    1
    9     8    10    1
   10     8    11    1
   11    11    12    1
   12    11    13    1
   13    11    14    1
   14    14    15    1
   15    14    16    1
   16    14    17    1
   17    17    18    1
   18    17    19    1
   19    17    20    1
   20    20    21    1
   21    20    22    1
   22    22    23    1
   23    22    24    1
   24    22    25    1
   25    20    26    1
   26    26    27    1
   27    26    28    1
   28    26    29    1
@<TRIPOS>SUBSTRUCTURE
       1 MOL1            1 RESIDUE      1      MOL     
@<SCITEGIC>MOL_PROPERTY
VM2 Rank
SciTegic.value.IntegerValue
102

@<SCITEGIC>MOL_PROPERTY
Conf_Id
SciTegic.value.IntegerValue
94

@<SCITEGIC>MOL_PROPERTY
Probability
SciTegic.value.DoubleValue
0.02

@<SCITEGIC>MOL_PROPERTY
Sum Probability
SciTegic.value.DoubleValue
99.43

@<SCITEGIC>MOL_PROPERTY
Delta G
SciTegic.value.DoubleValue
3.803

@<SCITEGIC>MOL_PROPERTY
G
SciTegic.value.DoubleValue
37.505

@<SCITEGIC>MOL_PROPERTY
E
SciTegic.value.DoubleValue
-0.288

@<SCITEGIC>MOL_PROPERTY
-TS
SciTegic.value.DoubleValue
37.793

@<SCITEGIC>MOL_PROPERTY
U+W
SciTegic.value.DoubleValue
-24.432

@<SCITEGIC>MOL_PROPERTY
U
SciTegic.value.DoubleValue
27.713

@<SCITEGIC>MOL_PROPERTY
W
SciTegic.value.DoubleValue
-52.146

@<SCITEGIC>MOL_PROPERTY
W(PB)
SciTegic.value.DoubleValue
-54.603

@<SCITEGIC>MOL_PROPERTY
W(SA)
SciTegic.value.DoubleValue
2.458

@<SCITEGIC>MOL_PROPERTY
Valence
SciTegic.value.DoubleValue
6.758

@<SCITEGIC>MOL_PROPERTY
Coulomb
SciTegic.value.DoubleValue
19.720

@<SCITEGIC>MOL_PROPERTY
VdW
SciTegic.value.DoubleValue
1.236

@<SCITEGIC>MOL_PROPERTY
VdW6
SciTegic.value.DoubleValue
-9.782

@<SCITEGIC>MOL_PROPERTY
VdW12
SciTegic.value.DoubleValue
11.017

@<SCITEGIC>MOL_PROPERTY
Bond
SciTegic.value.DoubleValue
0.287

@<SCITEGIC>MOL_PROPERTY
Angle
SciTegic.value.DoubleValue
1.880

@<SCITEGIC>MOL_PROPERTY
Pdih
SciTegic.value.DoubleValue
4.591

@<SCITEGIC>MOL_PROPERTY
Idih
SciTegic.value.DoubleValue
0.000

@<SCITEGIC>MOL_PROPERTY
Tether
SciTegic.value.DoubleValue
0.000

@<TRIPOS>MOLECULE
guest-s15_vm2.mol2 : vm2 ligand conformer 103
          29          28           1
SMALL
USER_CHARGES
 
@<TRIPOS>ATOM
       1    C1      19.386484   18.804515   19.327858 C.3        1 MOL1        -0.2426
       2    H1      18.482748   19.360736   19.046618 H          1 MOL1         0.0959
       3    H2      20.255478   19.331211   18.912308 H          1 MOL1         0.0959
       4    H3      19.333943   17.815250   18.854977 H          1 MOL1         0.0959
       5    C2      19.501114   18.670166   20.861039 C.3        1 MOL1        -0.1410
       6    H4      20.392430   18.075325   21.101029 H          1 MOL1         0.0948
       7    H5      18.633900   18.114140   21.243662 H          1 MOL1         0.0948
       8    C3      19.580892   20.052967   21.549845 C.3        1 MOL1        -0.1435
       9    H6      20.475108   20.588728   21.202604 H          1 MOL1         0.0948
      10    H7      18.718779   20.658297   21.237374 H          1 MOL1         0.0948
      11    C4      19.590668   19.972506   23.095858 C.3        1 MOL1        -0.1435
      12    H8      18.680352   19.457563   23.426155 H          1 MOL1         0.0948
      13    H9      19.545068   20.994267   23.497159 H          1 MOL1         0.0948
      14    C5      20.842144   19.257849   23.664269 C.3        1 MOL1        -0.1435
      15    H10     20.820369   18.192977   23.399838 H          1 MOL1         0.0948
      16    H11     21.734161   19.669224   23.172186 H          1 MOL1         0.0948
      17    C6      21.033169   19.411483   25.199516 C.3        1 MOL1        -0.1500
      18    H12     21.176145   20.472361   25.443169 H          1 MOL1         0.0948
      19    H13     21.978175   18.921605   25.468782 H          1 MOL1         0.0948
      20    C7      19.927470   18.829117   26.116623 C.3        1 MOL1         0.1162
      21    H14     20.327220   18.834438   27.135380 H          1 MOL1         0.0910
      22    C8      19.581057   17.371254   25.767527 C.3        1 MOL1        -0.2491
      23    H15     19.085257   17.295171   24.792389 H          1 MOL1         0.0959
      24    H16     20.486289   16.751978   25.743085 H          1 MOL1         0.0959
      25    H17     18.906770   16.945795   26.520799 H          1 MOL1         0.0959
      26    N1      18.693002   19.686144   26.171466 N.4        1 MOL1        -0.5987
      27    H18     18.004269   19.307062   26.827743 H          1 MOL1         0.3605
      28    H19     18.244779   19.749768   25.255165 H          1 MOL1         0.3605
      29    H20     18.912435   20.639159   26.475296 H          1 MOL1         0.3605
@<TRIPOS>BOND
    1     1     2    1
    2     1     3    1
    3     1     4    1
    4     1     5    1
    5     5     6    1
    6     5     7    1
    7     5     8    1
    8     8     9    1
    9     8    10    1
   10     8    11    1
   11    11    12    1
   12    11    13    1
   13    11    14    1
   14    14    15    1
   15    14    16    1
   16    14    17    1
   17    17    18    1
   18    17    19    1
   19    17    20    1
   20    20    21    1
   21    20    22    1
   22    22    23    1
   23    22    24    1
   24    22    25    1
   25    20    26    1
   26    26    27    1
   27    26    28    1
   28    26    29    1
@<TRIPOS>SUBSTRUCTURE
       1 MOL1            1 RESIDUE      1      MOL     
@<SCITEGIC>MOL_PROPERTY
VM2 Rank
SciTegic.value.IntegerValue
103

@<SCITEGIC>MOL_PROPERTY
Conf_Id
SciTegic.value.IntegerValue
1033

@<SCITEGIC>MOL_PROPERTY
Probability
SciTegic.value.DoubleValue
0.02

@<SCITEGIC>MOL_PROPERTY
Sum Probability
SciTegic.value.DoubleValue
99.44

@<SCITEGIC>MOL_PROPERTY
Delta G
SciTegic.value.DoubleValue
3.827

@<SCITEGIC>MOL_PROPERTY
G
SciTegic.value.DoubleValue
37.529

@<SCITEGIC>MOL_PROPERTY
E
SciTegic.value.DoubleValue
-0.573

@<SCITEGIC>MOL_PROPERTY
-TS
SciTegic.value.DoubleValue
38.102

@<SCITEGIC>MOL_PROPERTY
U+W
SciTegic.value.DoubleValue
-24.718

@<SCITEGIC>MOL_PROPERTY
U
SciTegic.value.DoubleValue
27.804

@<SCITEGIC>MOL_PROPERTY
W
SciTegic.value.DoubleValue
-52.522

@<SCITEGIC>MOL_PROPERTY
W(PB)
SciTegic.value.DoubleValue
-54.967

@<SCITEGIC>MOL_PROPERTY
W(SA)
SciTegic.value.DoubleValue
2.445

@<SCITEGIC>MOL_PROPERTY
Valence
SciTegic.value.DoubleValue
5.527

@<SCITEGIC>MOL_PROPERTY
Coulomb
SciTegic.value.DoubleValue
21.305

@<SCITEGIC>MOL_PROPERTY
VdW
SciTegic.value.DoubleValue
0.973

@<SCITEGIC>MOL_PROPERTY
VdW6
SciTegic.value.DoubleValue
-10.820

@<SCITEGIC>MOL_PROPERTY
VdW12
SciTegic.value.DoubleValue
11.793

@<SCITEGIC>MOL_PROPERTY
Bond
SciTegic.value.DoubleValue
0.332

@<SCITEGIC>MOL_PROPERTY
Angle
SciTegic.value.DoubleValue
2.322

@<SCITEGIC>MOL_PROPERTY
Pdih
SciTegic.value.DoubleValue
2.874

@<SCITEGIC>MOL_PROPERTY
Idih
SciTegic.value.DoubleValue
0.000

@<SCITEGIC>MOL_PROPERTY
Tether
SciTegic.value.DoubleValue
0.000

@<TRIPOS>MOLECULE
guest-s15_vm2.mol2 : vm2 ligand conformer 104
          29          28           1
SMALL
USER_CHARGES
 
@<TRIPOS>ATOM
       1    C1      19.843778   19.992626   19.201025 C.3        1 MOL1        -0.2426
       2    H1      20.827183   19.696474   18.813161 H          1 MOL1         0.0959
       3    H2      19.090427   19.317371   18.774716 H          1 MOL1         0.0959
       4    H3      19.630634   21.006938   18.839402 H          1 MOL1         0.0959
       5    C2      19.818733   19.947607   20.743515 C.3        1 MOL1        -0.1410
       6    H4      18.835361   20.288172   21.093948 H          1 MOL1         0.0948
       7    H5      20.561228   20.653808   21.140558 H          1 MOL1         0.0948
       8    C3      20.112564   18.525632   21.276892 C.3        1 MOL1        -0.1435
       9    H6      19.340950   17.829492   20.920199 H          1 MOL1         0.0948
      10    H7      21.063595   18.174610   20.853069 H          1 MOL1         0.0948
      11    C4      20.205918   18.451314   22.820542 C.3        1 MOL1        -0.1435
      12    H8      20.995093   19.132856   23.164504 H          1 MOL1         0.0948
      13    H9      20.520548   17.436662   23.100815 H          1 MOL1         0.0948
      14    C5      18.872237   18.782644   23.534295 C.3        1 MOL1        -0.1435
      15    H10     18.613037   19.836964   23.370187 H          1 MOL1         0.0948
      16    H11     18.066059   18.191445   23.078499 H          1 MOL1         0.0948
      17    C6      18.884397   18.500836   25.058285 C.3        1 MOL1        -0.1500
      18    H12     19.063904   17.433563   25.244780 H          1 MOL1         0.0948
      19    H13     17.872374   18.700225   25.434856 H          1 MOL1         0.0948
      20    C7      19.897333   19.366610   25.846409 C.3        1 MOL1         0.1162
      21    H14     20.142564   20.243541   25.239435 H          1 MOL1         0.0910
      22    C8      21.194774   18.594519   26.148101 C.3        1 MOL1        -0.2491
      23    H15     21.669598   18.229177   25.231182 H          1 MOL1         0.0959
      24    H16     21.918427   19.241104   26.659525 H          1 MOL1         0.0959
      25    H17     20.998267   17.729395   26.793696 H          1 MOL1         0.0959
      26    N1      19.306264   19.894212   27.124935 N.4        1 MOL1        -0.5987
      27    H18     18.466491   20.453525   26.948897 H          1 MOL1         0.3605
      28    H19     19.970680   20.491586   27.625408 H          1 MOL1         0.3605
      29    H20     19.043184   19.133326   27.757206 H          1 MOL1         0.3605
@<TRIPOS>BOND
    1     1     2    1
    2     1     3    1
    3     1     4    1
    4     1     5    1
    5     5     6    1
    6     5     7    1
    7     5     8    1
    8     8     9    1
    9     8    10    1
   10     8    11    1
   11    11    12    1
   12    11    13    1
   13    11    14    1
   14    14    15    1
   15    14    16    1
   16    14    17    1
   17    17    18    1
   18    17    19    1
   19    17    20    1
   20    20    21    1
   21    20    22    1
   22    22    23    1
   23    22    24    1
   24    22    25    1
   25    20    26    1
   26    26    27    1
   27    26    28    1
   28    26    29    1
@<TRIPOS>SUBSTRUCTURE
       1 MOL1            1 RESIDUE      1      MOL     
@<SCITEGIC>MOL_PROPERTY
VM2 Rank
SciTegic.value.IntegerValue
104

@<SCITEGIC>MOL_PROPERTY
Conf_Id
SciTegic.value.IntegerValue
221

@<SCITEGIC>MOL_PROPERTY
Probability
SciTegic.value.DoubleValue
0.02

@<SCITEGIC>MOL_PROPERTY
Sum Probability
SciTegic.value.DoubleValue
99.46

@<SCITEGIC>MOL_PROPERTY
Delta G
SciTegic.value.DoubleValue
3.844

@<SCITEGIC>MOL_PROPERTY
G
SciTegic.value.DoubleValue
37.546

@<SCITEGIC>MOL_PROPERTY
E
SciTegic.value.DoubleValue
-0.111

@<SCITEGIC>MOL_PROPERTY
-TS
SciTegic.value.DoubleValue
37.657

@<SCITEGIC>MOL_PROPERTY
U+W
SciTegic.value.DoubleValue
-24.255

@<SCITEGIC>MOL_PROPERTY
U
SciTegic.value.DoubleValue
27.986

@<SCITEGIC>MOL_PROPERTY
W
SciTegic.value.DoubleValue
-52.241

@<SCITEGIC>MOL_PROPERTY
W(PB)
SciTegic.value.DoubleValue
-54.722

@<SCITEGIC>MOL_PROPERTY
W(SA)
SciTegic.value.DoubleValue
2.481

@<SCITEGIC>MOL_PROPERTY
Valence
SciTegic.value.DoubleValue
6.801

@<SCITEGIC>MOL_PROPERTY
Coulomb
SciTegic.value.DoubleValue
19.953

@<SCITEGIC>MOL_PROPERTY
VdW
SciTegic.value.DoubleValue
1.232

@<SCITEGIC>MOL_PROPERTY
VdW6
SciTegic.value.DoubleValue
-9.702

@<SCITEGIC>MOL_PROPERTY
VdW12
SciTegic.value.DoubleValue
10.934

@<SCITEGIC>MOL_PROPERTY
Bond
SciTegic.value.DoubleValue
0.263

@<SCITEGIC>MOL_PROPERTY
Angle
SciTegic.value.DoubleValue
1.625

@<SCITEGIC>MOL_PROPERTY
Pdih
SciTegic.value.DoubleValue
4.913

@<SCITEGIC>MOL_PROPERTY
Idih
SciTegic.value.DoubleValue
0.000

@<SCITEGIC>MOL_PROPERTY
Tether
SciTegic.value.DoubleValue
0.000

@<TRIPOS>MOLECULE
guest-s15_vm2.mol2 : vm2 ligand conformer 105
          29          28           1
SMALL
USER_CHARGES
 
@<TRIPOS>ATOM
       1    C1      21.021896   20.181807   20.230146 C.3        1 MOL1        -0.2426
       2    H1      20.502712   21.148188   20.269942 H          1 MOL1         0.0959
       3    H2      21.654631   20.093664   21.121944 H          1 MOL1         0.0959
       4    H3      21.685000   20.192739   19.355442 H          1 MOL1         0.0959
       5    C2      20.014808   19.013675   20.130264 C.3        1 MOL1        -0.1410
       6    H4      20.557005   18.057789   20.125450 H          1 MOL1         0.0948
       7    H5      19.494368   19.076761   19.164385 H          1 MOL1         0.0948
       8    C3      18.959957   19.011309   21.262904 C.3        1 MOL1        -0.1435
       9    H6      18.404919   19.959463   21.249380 H          1 MOL1         0.0948
      10    H7      18.226422   18.220509   21.053575 H          1 MOL1         0.0948
      11    C4      19.565694   18.781279   22.668065 C.3        1 MOL1        -0.1435
      12    H8      20.247897   19.605836   22.908460 H          1 MOL1         0.0948
      13    H9      20.159257   17.856815   22.663717 H          1 MOL1         0.0948
      14    C5      18.470132   18.688398   23.755739 C.3        1 MOL1        -0.1435
      15    H10     17.920533   19.638796   23.802666 H          1 MOL1         0.0948
      16    H11     17.737278   17.923905   23.462851 H          1 MOL1         0.0948
      17    C6      19.005962   18.335569   25.166664 C.3        1 MOL1        -0.1500
      18    H12     19.480946   17.345457   25.153068 H          1 MOL1         0.0948
      19    H13     18.137379   18.237197   25.831214 H          1 MOL1         0.0948
      20    C7      19.974796   19.392356   25.750799 C.3        1 MOL1         0.1162
      21    H14     19.822195   20.331580   25.210310 H          1 MOL1         0.0910
      22    C8      21.445437   18.964169   25.594058 C.3        1 MOL1        -0.2491
      23    H15     21.653360   18.050512   26.164897 H          1 MOL1         0.0959
      24    H16     21.699878   18.770976   24.546193 H          1 MOL1         0.0959
      25    H17     22.117425   19.751117   25.957977 H          1 MOL1         0.0959
      26    N1      19.677317   19.687438   27.195360 N.4        1 MOL1        -0.5987
      27    H18     19.793916   18.854500   27.778918 H          1 MOL1         0.3605
      28    H19     18.717064   20.020696   27.321524 H          1 MOL1         0.3605
      29    H20     20.301570   20.409918   27.565641 H          1 MOL1         0.3605
@<TRIPOS>BOND
    1     1     2    1
    2     1     3    1
    3     1     4    1
    4     1     5    1
    5     5     6    1
    6     5     7    1
    7     5     8    1
    8     8     9    1
    9     8    10    1
   10     8    11    1
   11    11    12    1
   12    11    13    1
   13    11    14    1
   14    14    15    1
   15    14    16    1
   16    14    17    1
   17    17    18    1
   18    17    19    1
   19    17    20    1
   20    20    21    1
   21    20    22    1
   22    22    23    1
   23    22    24    1
   24    22    25    1
   25    20    26    1
   26    26    27    1
   27    26    28    1
   28    26    29    1
@<TRIPOS>SUBSTRUCTURE
       1 MOL1            1 RESIDUE      1      MOL     
@<SCITEGIC>MOL_PROPERTY
VM2 Rank
SciTegic.value.IntegerValue
105

@<SCITEGIC>MOL_PROPERTY
Conf_Id
SciTegic.value.IntegerValue
101

@<SCITEGIC>MOL_PROPERTY
Probability
SciTegic.value.DoubleValue
0.02

@<SCITEGIC>MOL_PROPERTY
Sum Probability
SciTegic.value.DoubleValue
99.48

@<SCITEGIC>MOL_PROPERTY
Delta G
SciTegic.value.DoubleValue
3.848

@<SCITEGIC>MOL_PROPERTY
G
SciTegic.value.DoubleValue
37.550

@<SCITEGIC>MOL_PROPERTY
E
SciTegic.value.DoubleValue
-0.112

@<SCITEGIC>MOL_PROPERTY
-TS
SciTegic.value.DoubleValue
37.662

@<SCITEGIC>MOL_PROPERTY
U+W
SciTegic.value.DoubleValue
-24.257

@<SCITEGIC>MOL_PROPERTY
U
SciTegic.value.DoubleValue
27.879

@<SCITEGIC>MOL_PROPERTY
W
SciTegic.value.DoubleValue
-52.135

@<SCITEGIC>MOL_PROPERTY
W(PB)
SciTegic.value.DoubleValue
-54.596

@<SCITEGIC>MOL_PROPERTY
W(SA)
SciTegic.value.DoubleValue
2.460

@<SCITEGIC>MOL_PROPERTY
Valence
SciTegic.value.DoubleValue
6.782

@<SCITEGIC>MOL_PROPERTY
Coulomb
SciTegic.value.DoubleValue
19.866

@<SCITEGIC>MOL_PROPERTY
VdW
SciTegic.value.DoubleValue
1.231

@<SCITEGIC>MOL_PROPERTY
VdW6
SciTegic.value.DoubleValue
-9.739

@<SCITEGIC>MOL_PROPERTY
VdW12
SciTegic.value.DoubleValue
10.970

@<SCITEGIC>MOL_PROPERTY
Bond
SciTegic.value.DoubleValue
0.261

@<SCITEGIC>MOL_PROPERTY
Angle
SciTegic.value.DoubleValue
1.615

@<SCITEGIC>MOL_PROPERTY
Pdih
SciTegic.value.DoubleValue
4.906

@<SCITEGIC>MOL_PROPERTY
Idih
SciTegic.value.DoubleValue
0.000

@<SCITEGIC>MOL_PROPERTY
Tether
SciTegic.value.DoubleValue
0.000

@<TRIPOS>MOLECULE
guest-s15_vm2.mol2 : vm2 ligand conformer 106
          29          28           1
SMALL
USER_CHARGES
 
@<TRIPOS>ATOM
       1    C1      20.858880   19.991019   19.804408 C.3        1 MOL1        -0.2426
       2    H1      20.568460   19.399168   18.926568 H          1 MOL1         0.0959
       3    H2      20.997334   21.030327   19.479307 H          1 MOL1         0.0959
       4    H3      21.827105   19.618175   20.163200 H          1 MOL1         0.0959
       5    C2      19.787111   19.904459   20.911395 C.3        1 MOL1        -0.1410
       6    H4      18.841256   20.315821   20.532120 H          1 MOL1         0.0948
       7    H5      20.087958   20.540227   21.752592 H          1 MOL1         0.0948
       8    C3      19.566660   18.445346   21.378134 C.3        1 MOL1        -0.1435
       9    H6      19.237113   17.856501   20.510918 H          1 MOL1         0.0948
      10    H7      20.516414   17.999042   21.703487 H          1 MOL1         0.0948
      11    C4      18.501328   18.308209   22.497059 C.3        1 MOL1        -0.1435
      12    H8      17.946532   17.375049   22.327265 H          1 MOL1         0.0948
      13    H9      17.757189   19.112541   22.416722 H          1 MOL1         0.0948
      14    C5      19.075382   18.253056   23.936333 C.3        1 MOL1        -0.1435
      15    H10     18.240929   18.072821   24.626381 H          1 MOL1         0.0948
      16    H11     19.738323   17.381749   24.021146 H          1 MOL1         0.0948
      17    C6      19.835712   19.535778   24.365791 C.3        1 MOL1        -0.1500
      18    H12     19.215841   20.415158   24.147807 H          1 MOL1         0.0948
      19    H13     20.744762   19.639465   23.760450 H          1 MOL1         0.0948
      20    C7      20.243571   19.580393   25.857289 C.3        1 MOL1         0.1162
      21    H14     20.765820   20.527720   26.023368 H          1 MOL1         0.0910
      22    C8      21.212571   18.443322   26.225120 C.3        1 MOL1        -0.2491
      23    H15     20.725611   17.462394   26.169540 H          1 MOL1         0.0959
      24    H16     22.078690   18.436219   25.551784 H          1 MOL1         0.0959
      25    H17     21.587227   18.574177   27.247714 H          1 MOL1         0.0959
      26    N1      19.054786   19.594419   26.778471 N.4        1 MOL1        -0.5987
      27    H18     19.341168   19.687649   27.757208 H          1 MOL1         0.3605
      28    H19     18.512509   18.730752   26.698293 H          1 MOL1         0.3605
      29    H20     18.425807   20.374585   26.567765 H          1 MOL1         0.3605
@<TRIPOS>BOND
    1     1     2    1
    2     1     3    1
    3     1     4    1
    4     1     5    1
    5     5     6    1
    6     5     7    1
    7     5     8    1
    8     8     9    1
    9     8    10    1
   10     8    11    1
   11    11    12    1
   12    11    13    1
   13    11    14    1
   14    14    15    1
   15    14    16    1
   16    14    17    1
   17    17    18    1
   18    17    19    1
   19    17    20    1
   20    20    21    1
   21    20    22    1
   22    22    23    1
   23    22    24    1
   24    22    25    1
   25    20    26    1
   26    26    27    1
   27    26    28    1
   28    26    29    1
@<TRIPOS>SUBSTRUCTURE
       1 MOL1            1 RESIDUE      1      MOL     
@<SCITEGIC>MOL_PROPERTY
VM2 Rank
SciTegic.value.IntegerValue
106

@<SCITEGIC>MOL_PROPERTY
Conf_Id
SciTegic.value.IntegerValue
1621

@<SCITEGIC>MOL_PROPERTY
Probability
SciTegic.value.DoubleValue
0.02

@<SCITEGIC>MOL_PROPERTY
Sum Probability
SciTegic.value.DoubleValue
99.49

@<SCITEGIC>MOL_PROPERTY
Delta G
SciTegic.value.DoubleValue
3.859

@<SCITEGIC>MOL_PROPERTY
G
SciTegic.value.DoubleValue
37.561

@<SCITEGIC>MOL_PROPERTY
E
SciTegic.value.DoubleValue
-0.374

@<SCITEGIC>MOL_PROPERTY
-TS
SciTegic.value.DoubleValue
37.935

@<SCITEGIC>MOL_PROPERTY
U+W
SciTegic.value.DoubleValue
-24.519

@<SCITEGIC>MOL_PROPERTY
U
SciTegic.value.DoubleValue
27.916

@<SCITEGIC>MOL_PROPERTY
W
SciTegic.value.DoubleValue
-52.435

@<SCITEGIC>MOL_PROPERTY
W(PB)
SciTegic.value.DoubleValue
-54.870

@<SCITEGIC>MOL_PROPERTY
W(SA)
SciTegic.value.DoubleValue
2.435

@<SCITEGIC>MOL_PROPERTY
Valence
SciTegic.value.DoubleValue
6.693

@<SCITEGIC>MOL_PROPERTY
Coulomb
SciTegic.value.DoubleValue
20.015

@<SCITEGIC>MOL_PROPERTY
VdW
SciTegic.value.DoubleValue
1.208

@<SCITEGIC>MOL_PROPERTY
VdW6
SciTegic.value.DoubleValue
-10.294

@<SCITEGIC>MOL_PROPERTY
VdW12
SciTegic.value.DoubleValue
11.502

@<SCITEGIC>MOL_PROPERTY
Bond
SciTegic.value.DoubleValue
0.312

@<SCITEGIC>MOL_PROPERTY
Angle
SciTegic.value.DoubleValue
1.940

@<SCITEGIC>MOL_PROPERTY
Pdih
SciTegic.value.DoubleValue
4.441

@<SCITEGIC>MOL_PROPERTY
Idih
SciTegic.value.DoubleValue
0.000

@<SCITEGIC>MOL_PROPERTY
Tether
SciTegic.value.DoubleValue
0.000

@<TRIPOS>MOLECULE
guest-s15_vm2.mol2 : vm2 ligand conformer 107
          29          28           1
SMALL
USER_CHARGES
 
@<TRIPOS>ATOM
       1    C1      19.082727   20.066652   19.957348 C.3        1 MOL1        -0.2426
       2    H1      18.543398   19.114487   19.878101 H          1 MOL1         0.0959
       3    H2      18.443437   20.780714   20.492543 H          1 MOL1         0.0959
       4    H3      19.232640   20.447623   18.938872 H          1 MOL1         0.0959
       5    C2      20.440221   19.890480   20.674643 C.3        1 MOL1        -0.1410
       6    H4      20.990398   20.840890   20.632761 H          1 MOL1         0.0948
       7    H5      21.052315   19.156761   20.131761 H          1 MOL1         0.0948
       8    C3      20.298640   19.461674   22.154785 C.3        1 MOL1        -0.1435
       9    H6      21.297352   19.446927   22.612399 H          1 MOL1         0.0948
      10    H7      19.713552   20.222595   22.686512 H          1 MOL1         0.0948
      11    C4      19.635334   18.073398   22.327796 C.3        1 MOL1        -0.1435
      12    H8      20.093803   17.370315   21.618814 H          1 MOL1         0.0948
      13    H9      18.573403   18.134169   22.054571 H          1 MOL1         0.0948
      14    C5      19.761584   17.470673   23.751040 C.3        1 MOL1        -0.1435
      15    H10     19.312766   16.468212   23.721183 H          1 MOL1         0.0948
      16    H11     20.817997   17.306520   23.995729 H          1 MOL1         0.0948
      17    C6      19.045753   18.275253   24.870952 C.3        1 MOL1        -0.1500
      18    H12     18.802042   17.590718   25.694299 H          1 MOL1         0.0948
      19    H13     18.081515   18.631285   24.485009 H          1 MOL1         0.0948
      20    C7      19.841122   19.469566   25.452427 C.3        1 MOL1         0.1162
      21    H14     20.186359   20.101395   24.631733 H          1 MOL1         0.0910
      22    C8      21.070168   19.010398   26.257673 C.3        1 MOL1        -0.2491
      23    H15     21.796503   18.492001   25.621979 H          1 MOL1         0.0959
      24    H16     21.585067   19.872127   26.699991 H          1 MOL1         0.0959
      25    H17     20.781579   18.333600   27.071511 H          1 MOL1         0.0959
      26    N1      18.960452   20.337907   26.307338 N.4        1 MOL1        -0.5987
      27    H18     18.596887   19.822190   27.113352 H          1 MOL1         0.3605
      28    H19     18.156740   20.693648   25.781685 H          1 MOL1         0.3605
      29    H20     19.471475   21.148390   26.668818 H          1 MOL1         0.3605
@<TRIPOS>BOND
    1     1     2    1
    2     1     3    1
    3     1     4    1
    4     1     5    1
    5     5     6    1
    6     5     7    1
    7     5     8    1
    8     8     9    1
    9     8    10    1
   10     8    11    1
   11    11    12    1
   12    11    13    1
   13    11    14    1
   14    14    15    1
   15    14    16    1
   16    14    17    1
   17    17    18    1
   18    17    19    1
   19    17    20    1
   20    20    21    1
   21    20    22    1
   22    22    23    1
   23    22    24    1
   24    22    25    1
   25    20    26    1
   26    26    27    1
   27    26    28    1
   28    26    29    1
@<TRIPOS>SUBSTRUCTURE
       1 MOL1            1 RESIDUE      1      MOL     
@<SCITEGIC>MOL_PROPERTY
VM2 Rank
SciTegic.value.IntegerValue
107

@<SCITEGIC>MOL_PROPERTY
Conf_Id
SciTegic.value.IntegerValue
1606

@<SCITEGIC>MOL_PROPERTY
Probability
SciTegic.value.DoubleValue
0.02

@<SCITEGIC>MOL_PROPERTY
Sum Probability
SciTegic.value.DoubleValue
99.51

@<SCITEGIC>MOL_PROPERTY
Delta G
SciTegic.value.DoubleValue
3.860

@<SCITEGIC>MOL_PROPERTY
G
SciTegic.value.DoubleValue
37.562

@<SCITEGIC>MOL_PROPERTY
E
SciTegic.value.DoubleValue
-0.147

@<SCITEGIC>MOL_PROPERTY
-TS
SciTegic.value.DoubleValue
37.709

@<SCITEGIC>MOL_PROPERTY
U+W
SciTegic.value.DoubleValue
-24.291

@<SCITEGIC>MOL_PROPERTY
U
SciTegic.value.DoubleValue
28.432

@<SCITEGIC>MOL_PROPERTY
W
SciTegic.value.DoubleValue
-52.723

@<SCITEGIC>MOL_PROPERTY
W(PB)
SciTegic.value.DoubleValue
-55.173

@<SCITEGIC>MOL_PROPERTY
W(SA)
SciTegic.value.DoubleValue
2.450

@<SCITEGIC>MOL_PROPERTY
Valence
SciTegic.value.DoubleValue
6.780

@<SCITEGIC>MOL_PROPERTY
Coulomb
SciTegic.value.DoubleValue
20.579

@<SCITEGIC>MOL_PROPERTY
VdW
SciTegic.value.DoubleValue
1.072

@<SCITEGIC>MOL_PROPERTY
VdW6
SciTegic.value.DoubleValue
-10.669

@<SCITEGIC>MOL_PROPERTY
VdW12
SciTegic.value.DoubleValue
11.741

@<SCITEGIC>MOL_PROPERTY
Bond
SciTegic.value.DoubleValue
0.323

@<SCITEGIC>MOL_PROPERTY
Angle
SciTegic.value.DoubleValue
2.395

@<SCITEGIC>MOL_PROPERTY
Pdih
SciTegic.value.DoubleValue
4.061

@<SCITEGIC>MOL_PROPERTY
Idih
SciTegic.value.DoubleValue
0.000

@<SCITEGIC>MOL_PROPERTY
Tether
SciTegic.value.DoubleValue
0.000

@<TRIPOS>MOLECULE
guest-s15_vm2.mol2 : vm2 ligand conformer 108
          29          28           1
SMALL
USER_CHARGES
 
@<TRIPOS>ATOM
       1    C1      19.627218   20.060818   19.701525 C.3        1 MOL1        -0.2426
       2    H1      20.070155   20.191412   18.705692 H          1 MOL1         0.0959
       3    H2      18.772661   19.381783   19.594207 H          1 MOL1         0.0959
       4    H3      19.251370   21.037847   20.031914 H          1 MOL1         0.0959
       5    C2      20.677413   19.505922   20.690726 C.3        1 MOL1        -0.1410
       6    H4      21.563246   20.155758   20.662307 H          1 MOL1         0.0948
       7    H5      21.013516   18.513910   20.358025 H          1 MOL1         0.0948
       8    C3      20.170376   19.426046   22.151074 C.3        1 MOL1        -0.1435
       9    H6      21.029033   19.177785   22.787229 H          1 MOL1         0.0948
      10    H7      19.811706   20.414295   22.469761 H          1 MOL1         0.0948
      11    C4      19.060718   18.366306   22.362222 C.3        1 MOL1        -0.1435
      12    H8      19.462208   17.369786   22.132529 H          1 MOL1         0.0948
      13    H9      18.247471   18.539058   21.646195 H          1 MOL1         0.0948
      14    C5      18.439783   18.357094   23.783322 C.3        1 MOL1        -0.1435
      15    H10     17.923653   19.307228   23.971063 H          1 MOL1         0.0948
      16    H11     17.652361   17.590762   23.791391 H          1 MOL1         0.0948
      17    C6      19.433746   18.031496   24.931339 C.3        1 MOL1        -0.1500
      18    H12     20.152731   17.278608   24.581897 H          1 MOL1         0.0948
      19    H13     18.880266   17.558951   25.753714 H          1 MOL1         0.0948
      20    C7      20.188116   19.257396   25.496864 C.3        1 MOL1         0.1162
      21    H14     20.675344   19.785555   24.674343 H          1 MOL1         0.0910
      22    C8      21.275149   18.804509   26.484266 C.3        1 MOL1        -0.2491
      23    H15     21.834688   19.666419   26.868239 H          1 MOL1         0.0959
      24    H16     20.838811   18.271868   27.338585 H          1 MOL1         0.0959
      25    H17     21.992219   18.134425   25.993794 H          1 MOL1         0.0959
      26    N1      19.263482   20.246414   26.152662 N.4        1 MOL1        -0.5987
      27    H18     18.769979   19.826373   26.944847 H          1 MOL1         0.3605
      28    H19     18.557091   20.590325   25.496811 H          1 MOL1         0.3605
      29    H20     19.775342   21.059541   26.506821 H          1 MOL1         0.3605
@<TRIPOS>BOND
    1     1     2    1
    2     1     3    1
    3     1     4    1
    4     1     5    1
    5     5     6    1
    6     5     7    1
    7     5     8    1
    8     8     9    1
    9     8    10    1
   10     8    11    1
   11    11    12    1
   12    11    13    1
   13    11    14    1
   14    14    15    1
   15    14    16    1
   16    14    17    1
   17    17    18    1
   18    17    19    1
   19    17    20    1
   20    20    21    1
   21    20    22    1
   22    22    23    1
   23    22    24    1
   24    22    25    1
   25    20    26    1
   26    26    27    1
   27    26    28    1
   28    26    29    1
@<TRIPOS>SUBSTRUCTURE
       1 MOL1            1 RESIDUE      1      MOL     
@<SCITEGIC>MOL_PROPERTY
VM2 Rank
SciTegic.value.IntegerValue
108

@<SCITEGIC>MOL_PROPERTY
Conf_Id
SciTegic.value.IntegerValue
978

@<SCITEGIC>MOL_PROPERTY
Probability
SciTegic.value.DoubleValue
0.02

@<SCITEGIC>MOL_PROPERTY
Sum Probability
SciTegic.value.DoubleValue
99.53

@<SCITEGIC>MOL_PROPERTY
Delta G
SciTegic.value.DoubleValue
3.862

@<SCITEGIC>MOL_PROPERTY
G
SciTegic.value.DoubleValue
37.565

@<SCITEGIC>MOL_PROPERTY
E
SciTegic.value.DoubleValue
-0.218

@<SCITEGIC>MOL_PROPERTY
-TS
SciTegic.value.DoubleValue
37.782

@<SCITEGIC>MOL_PROPERTY
U+W
SciTegic.value.DoubleValue
-24.362

@<SCITEGIC>MOL_PROPERTY
U
SciTegic.value.DoubleValue
28.055

@<SCITEGIC>MOL_PROPERTY
W
SciTegic.value.DoubleValue
-52.418

@<SCITEGIC>MOL_PROPERTY
W(PB)
SciTegic.value.DoubleValue
-54.881

@<SCITEGIC>MOL_PROPERTY
W(SA)
SciTegic.value.DoubleValue
2.464

@<SCITEGIC>MOL_PROPERTY
Valence
SciTegic.value.DoubleValue
6.325

@<SCITEGIC>MOL_PROPERTY
Coulomb
SciTegic.value.DoubleValue
20.690

@<SCITEGIC>MOL_PROPERTY
VdW
SciTegic.value.DoubleValue
1.041

@<SCITEGIC>MOL_PROPERTY
VdW6
SciTegic.value.DoubleValue
-10.427

@<SCITEGIC>MOL_PROPERTY
VdW12
SciTegic.value.DoubleValue
11.468

@<SCITEGIC>MOL_PROPERTY
Bond
SciTegic.value.DoubleValue
0.315

@<SCITEGIC>MOL_PROPERTY
Angle
SciTegic.value.DoubleValue
2.080

@<SCITEGIC>MOL_PROPERTY
Pdih
SciTegic.value.DoubleValue
3.930

@<SCITEGIC>MOL_PROPERTY
Idih
SciTegic.value.DoubleValue
0.000

@<SCITEGIC>MOL_PROPERTY
Tether
SciTegic.value.DoubleValue
0.000

@<TRIPOS>MOLECULE
guest-s15_vm2.mol2 : vm2 ligand conformer 109
          29          28           1
SMALL
USER_CHARGES
 
@<TRIPOS>ATOM
       1    C1      18.754584   19.029195   19.621030 C.3        1 MOL1        -0.2426
       2    H1      18.481226   18.451808   18.728380 H          1 MOL1         0.0959
       3    H2      17.955475   18.891704   20.359935 H          1 MOL1         0.0959
       4    H3      18.784337   20.089651   19.338938 H          1 MOL1         0.0959
       5    C2      20.121681   18.561671   20.169600 C.3        1 MOL1        -0.1410
       6    H4      20.861687   18.603319   19.358175 H          1 MOL1         0.0948
       7    H5      20.057124   17.507407   20.473036 H          1 MOL1         0.0948
       8    C3      20.634556   19.416655   21.353414 C.3        1 MOL1        -0.1435
       9    H6      21.651435   19.086347   21.606602 H          1 MOL1         0.0948
      10    H7      20.719610   20.465837   21.038443 H          1 MOL1         0.0948
      11    C4      19.743607   19.320503   22.614875 C.3        1 MOL1        -0.1435
      12    H8      19.609518   18.265896   22.883190 H          1 MOL1         0.0948
      13    H9      18.744307   19.717883   22.394072 H          1 MOL1         0.0948
      14    C5      20.346899   20.110373   23.802384 C.3        1 MOL1        -0.1435
      15    H10     21.372622   19.774079   24.007809 H          1 MOL1         0.0948
      16    H11     20.428376   21.164824   23.503964 H          1 MOL1         0.0948
      17    C6      19.491633   20.030023   25.094752 C.3        1 MOL1        -0.1500
      18    H12     18.434929   19.868841   24.843380 H          1 MOL1         0.0948
      19    H13     19.535259   21.011013   25.586161 H          1 MOL1         0.0948
      20    C7      19.963630   18.973989   26.123107 C.3        1 MOL1         0.1162
      21    H14     21.002365   19.196056   26.386344 H          1 MOL1         0.0910
      22    C8      19.904625   17.537988   25.575835 C.3        1 MOL1        -0.2491
      23    H15     20.164965   16.814617   26.358298 H          1 MOL1         0.0959
      24    H16     18.900884   17.293920   25.206352 H          1 MOL1         0.0959
      25    H17     20.621477   17.399322   24.758333 H          1 MOL1         0.0959
      26    N1      19.174785   19.075604   27.399004 N.4        1 MOL1        -0.5987
      27    H18     18.183279   18.875397   27.242326 H          1 MOL1         0.3605
      28    H19     19.238939   20.012050   27.808670 H          1 MOL1         0.3605
      29    H20     19.513230   18.411984   28.101665 H          1 MOL1         0.3605
@<TRIPOS>BOND
    1     1     2    1
    2     1     3    1
    3     1     4    1
    4     1     5    1
    5     5     6    1
    6     5     7    1
    7     5     8    1
    8     8     9    1
    9     8    10    1
   10     8    11    1
   11    11    12    1
   12    11    13    1
   13    11    14    1
   14    14    15    1
   15    14    16    1
   16    14    17    1
   17    17    18    1
   18    17    19    1
   19    17    20    1
   20    20    21    1
   21    20    22    1
   22    22    23    1
   23    22    24    1
   24    22    25    1
   25    20    26    1
   26    26    27    1
   27    26    28    1
   28    26    29    1
@<TRIPOS>SUBSTRUCTURE
       1 MOL1            1 RESIDUE      1      MOL     
@<SCITEGIC>MOL_PROPERTY
VM2 Rank
SciTegic.value.IntegerValue
109

@<SCITEGIC>MOL_PROPERTY
Conf_Id
SciTegic.value.IntegerValue
1046

@<SCITEGIC>MOL_PROPERTY
Probability
SciTegic.value.DoubleValue
0.02

@<SCITEGIC>MOL_PROPERTY
Sum Probability
SciTegic.value.DoubleValue
99.54

@<SCITEGIC>MOL_PROPERTY
Delta G
SciTegic.value.DoubleValue
3.872

@<SCITEGIC>MOL_PROPERTY
G
SciTegic.value.DoubleValue
37.574

@<SCITEGIC>MOL_PROPERTY
E
SciTegic.value.DoubleValue
-0.213

@<SCITEGIC>MOL_PROPERTY
-TS
SciTegic.value.DoubleValue
37.787

@<SCITEGIC>MOL_PROPERTY
U+W
SciTegic.value.DoubleValue
-24.357

@<SCITEGIC>MOL_PROPERTY
U
SciTegic.value.DoubleValue
27.696

@<SCITEGIC>MOL_PROPERTY
W
SciTegic.value.DoubleValue
-52.053

@<SCITEGIC>MOL_PROPERTY
W(PB)
SciTegic.value.DoubleValue
-54.527

@<SCITEGIC>MOL_PROPERTY
W(SA)
SciTegic.value.DoubleValue
2.474

@<SCITEGIC>MOL_PROPERTY
Valence
SciTegic.value.DoubleValue
6.761

@<SCITEGIC>MOL_PROPERTY
Coulomb
SciTegic.value.DoubleValue
19.663

@<SCITEGIC>MOL_PROPERTY
VdW
SciTegic.value.DoubleValue
1.272

@<SCITEGIC>MOL_PROPERTY
VdW6
SciTegic.value.DoubleValue
-9.717

@<SCITEGIC>MOL_PROPERTY
VdW12
SciTegic.value.DoubleValue
10.989

@<SCITEGIC>MOL_PROPERTY
Bond
SciTegic.value.DoubleValue
0.286

@<SCITEGIC>MOL_PROPERTY
Angle
SciTegic.value.DoubleValue
1.902

@<SCITEGIC>MOL_PROPERTY
Pdih
SciTegic.value.DoubleValue
4.572

@<SCITEGIC>MOL_PROPERTY
Idih
SciTegic.value.DoubleValue
0.000

@<SCITEGIC>MOL_PROPERTY
Tether
SciTegic.value.DoubleValue
0.000

@<TRIPOS>MOLECULE
guest-s15_vm2.mol2 : vm2 ligand conformer 110
          29          28           1
SMALL
USER_CHARGES
 
@<TRIPOS>ATOM
       1    C1      21.226152   19.404980   20.253956 C.3        1 MOL1        -0.2426
       2    H1      21.271719   18.329049   20.040598 H          1 MOL1         0.0959
       3    H2      20.722473   19.899365   19.413052 H          1 MOL1         0.0959
       4    H3      22.255542   19.783537   20.299542 H          1 MOL1         0.0959
       5    C2      20.486736   19.675710   21.581149 C.3        1 MOL1        -0.1410
       6    H4      20.485693   20.756397   21.780383 H          1 MOL1         0.0948
       7    H5      21.044905   19.205142   22.397926 H          1 MOL1         0.0948
       8    C3      19.030748   19.152526   21.537626 C.3        1 MOL1        -0.1435
       9    H6      18.526589   19.626358   20.683952 H          1 MOL1         0.0948
      10    H7      19.018842   18.073010   21.333978 H          1 MOL1         0.0948
      11    C4      18.208982   19.463826   22.816154 C.3        1 MOL1        -0.1435
      12    H8      17.164143   19.616189   22.511926 H          1 MOL1         0.0948
      13    H9      18.525072   20.420748   23.252106 H          1 MOL1         0.0948
      14    C5      18.212683   18.338942   23.886444 C.3        1 MOL1        -0.1435
      15    H10     17.497696   18.604591   24.676568 H          1 MOL1         0.0948
      16    H11     17.819487   17.417323   23.435741 H          1 MOL1         0.0948
      17    C6      19.587402   18.028603   24.532096 C.3        1 MOL1        -0.1500
      18    H12     20.249514   17.591600   23.774560 H          1 MOL1         0.0948
      19    H13     19.453725   17.249022   25.293748 H          1 MOL1         0.0948
      20    C7      20.270451   19.255119   25.176791 C.3        1 MOL1         0.1162
      21    H14     20.382604   20.029005   24.411928 H          1 MOL1         0.0910
      22    C8      21.669674   18.880925   25.689833 C.3        1 MOL1        -0.2491
      23    H15     21.614040   18.108217   26.466837 H          1 MOL1         0.0959
      24    H16     22.295320   18.499732   24.873154 H          1 MOL1         0.0959
      25    H17     22.174550   19.757242   26.114730 H          1 MOL1         0.0959
      26    N1      19.443172   19.855369   26.279951 N.4        1 MOL1        -0.5987
      27    H18     19.893255   20.684536   26.677991 H          1 MOL1         0.3605
      28    H19     19.299204   19.188164   27.042546 H          1 MOL1         0.3605
      29    H20     18.520357   20.138610   25.939315 H          1 MOL1         0.3605
@<TRIPOS>BOND
    1     1     2    1
    2     1     3    1
    3     1     4    1
    4     1     5    1
    5     5     6    1
    6     5     7    1
    7     5     8    1
    8     8     9    1
    9     8    10    1
   10     8    11    1
   11    11    12    1
   12    11    13    1
   13    11    14    1
   14    14    15    1
   15    14    16    1
   16    14    17    1
   17    17    18    1
   18    17    19    1
   19    17    20    1
   20    20    21    1
   21    20    22    1
   22    22    23    1
   23    22    24    1
   24    22    25    1
   25    20    26    1
   26    26    27    1
   27    26    28    1
   28    26    29    1
@<TRIPOS>SUBSTRUCTURE
       1 MOL1            1 RESIDUE      1      MOL     
@<SCITEGIC>MOL_PROPERTY
VM2 Rank
SciTegic.value.IntegerValue
110

@<SCITEGIC>MOL_PROPERTY
Conf_Id
SciTegic.value.IntegerValue
335

@<SCITEGIC>MOL_PROPERTY
Probability
SciTegic.value.DoubleValue
0.02

@<SCITEGIC>MOL_PROPERTY
Sum Probability
SciTegic.value.DoubleValue
99.56

@<SCITEGIC>MOL_PROPERTY
Delta G
SciTegic.value.DoubleValue
3.883

@<SCITEGIC>MOL_PROPERTY
G
SciTegic.value.DoubleValue
37.585

@<SCITEGIC>MOL_PROPERTY
E
SciTegic.value.DoubleValue
-0.644

@<SCITEGIC>MOL_PROPERTY
-TS
SciTegic.value.DoubleValue
38.229

@<SCITEGIC>MOL_PROPERTY
U+W
SciTegic.value.DoubleValue
-24.789

@<SCITEGIC>MOL_PROPERTY
U
SciTegic.value.DoubleValue
27.761

@<SCITEGIC>MOL_PROPERTY
W
SciTegic.value.DoubleValue
-52.550

@<SCITEGIC>MOL_PROPERTY
W(PB)
SciTegic.value.DoubleValue
-54.967

@<SCITEGIC>MOL_PROPERTY
W(SA)
SciTegic.value.DoubleValue
2.418

@<SCITEGIC>MOL_PROPERTY
Valence
SciTegic.value.DoubleValue
6.483

@<SCITEGIC>MOL_PROPERTY
Coulomb
SciTegic.value.DoubleValue
20.860

@<SCITEGIC>MOL_PROPERTY
VdW
SciTegic.value.DoubleValue
0.418

@<SCITEGIC>MOL_PROPERTY
VdW6
SciTegic.value.DoubleValue
-11.358

@<SCITEGIC>MOL_PROPERTY
VdW12
SciTegic.value.DoubleValue
11.776

@<SCITEGIC>MOL_PROPERTY
Bond
SciTegic.value.DoubleValue
0.310

@<SCITEGIC>MOL_PROPERTY
Angle
SciTegic.value.DoubleValue
2.146

@<SCITEGIC>MOL_PROPERTY
Pdih
SciTegic.value.DoubleValue
4.026

@<SCITEGIC>MOL_PROPERTY
Idih
SciTegic.value.DoubleValue
0.000

@<SCITEGIC>MOL_PROPERTY
Tether
SciTegic.value.DoubleValue
0.000

@<TRIPOS>MOLECULE
guest-s15_vm2.mol2 : vm2 ligand conformer 111
          29          28           1
SMALL
USER_CHARGES
 
@<TRIPOS>ATOM
       1    C1      18.786919   18.156737   20.104575 C.3        1 MOL1        -0.2426
       2    H1      18.730599   17.717727   19.100074 H          1 MOL1         0.0959
       3    H2      19.088997   17.360123   20.795628 H          1 MOL1         0.0959
       4    H3      17.778547   18.489958   20.382361 H          1 MOL1         0.0959
       5    C2      19.786662   19.335274   20.124008 C.3        1 MOL1        -0.1410
       6    H4      19.511953   20.045243   19.331402 H          1 MOL1         0.0948
       7    H5      20.792994   18.970647   19.874906 H          1 MOL1         0.0948
       8    C3      19.822609   20.089623   21.474987 C.3        1 MOL1        -0.1435
       9    H6      20.467259   20.972493   21.364370 H          1 MOL1         0.0948
      10    H7      18.818162   20.467668   21.710238 H          1 MOL1         0.0948
      11    C4      20.343650   19.226926   22.649137 C.3        1 MOL1        -0.1435
      12    H8      21.327826   18.814023   22.388538 H          1 MOL1         0.0948
      13    H9      19.675223   18.372956   22.801994 H          1 MOL1         0.0948
      14    C5      20.461546   20.050379   23.955120 C.3        1 MOL1        -0.1435
      15    H10     21.166252   20.874044   23.775264 H          1 MOL1         0.0948
      16    H11     19.500119   20.523697   24.192697 H          1 MOL1         0.0948
      17    C6      20.978779   19.222616   25.164775 C.3        1 MOL1        -0.1500
      18    H12     21.619823   19.870853   25.776630 H          1 MOL1         0.0948
      19    H13     21.636028   18.416691   24.812561 H          1 MOL1         0.0948
      20    C7      19.893651   18.630150   26.097967 C.3        1 MOL1         0.1162
      21    H14     20.414689   18.073981   26.883409 H          1 MOL1         0.0910
      22    C8      18.957234   17.645540   25.379276 C.3        1 MOL1        -0.2491
      23    H15     18.310684   18.159552   24.658133 H          1 MOL1         0.0959
      24    H16     19.532080   16.876928   24.848053 H          1 MOL1         0.0959
      25    H17     18.309839   17.135527   26.103069 H          1 MOL1         0.0959
      26    N1      19.104949   19.698755   26.804156 N.4        1 MOL1        -0.5987
      27    H18     18.574355   20.268934   26.141064 H          1 MOL1         0.3605
      28    H19     19.715445   20.328452   27.332803 H          1 MOL1         0.3605
      29    H20     18.436250   19.294082   27.465745 H          1 MOL1         0.3605
@<TRIPOS>BOND
    1     1     2    1
    2     1     3    1
    3     1     4    1
    4     1     5    1
    5     5     6    1
    6     5     7    1
    7     5     8    1
    8     8     9    1
    9     8    10    1
   10     8    11    1
   11    11    12    1
   12    11    13    1
   13    11    14    1
   14    14    15    1
   15    14    16    1
   16    14    17    1
   17    17    18    1
   18    17    19    1
   19    17    20    1
   20    20    21    1
   21    20    22    1
   22    22    23    1
   23    22    24    1
   24    22    25    1
   25    20    26    1
   26    26    27    1
   27    26    28    1
   28    26    29    1
@<TRIPOS>SUBSTRUCTURE
       1 MOL1            1 RESIDUE      1      MOL     
@<SCITEGIC>MOL_PROPERTY
VM2 Rank
SciTegic.value.IntegerValue
111

@<SCITEGIC>MOL_PROPERTY
Conf_Id
SciTegic.value.IntegerValue
125

@<SCITEGIC>MOL_PROPERTY
Probability
SciTegic.value.DoubleValue
0.02

@<SCITEGIC>MOL_PROPERTY
Sum Probability
SciTegic.value.DoubleValue
99.57

@<SCITEGIC>MOL_PROPERTY
Delta G
SciTegic.value.DoubleValue
3.892

@<SCITEGIC>MOL_PROPERTY
G
SciTegic.value.DoubleValue
37.594

@<SCITEGIC>MOL_PROPERTY
E
SciTegic.value.DoubleValue
-0.266

@<SCITEGIC>MOL_PROPERTY
-TS
SciTegic.value.DoubleValue
37.861

@<SCITEGIC>MOL_PROPERTY
U+W
SciTegic.value.DoubleValue
-24.411

@<SCITEGIC>MOL_PROPERTY
U
SciTegic.value.DoubleValue
27.944

@<SCITEGIC>MOL_PROPERTY
W
SciTegic.value.DoubleValue
-52.355

@<SCITEGIC>MOL_PROPERTY
W(PB)
SciTegic.value.DoubleValue
-54.788

@<SCITEGIC>MOL_PROPERTY
W(SA)
SciTegic.value.DoubleValue
2.433

@<SCITEGIC>MOL_PROPERTY
Valence
SciTegic.value.DoubleValue
6.749

@<SCITEGIC>MOL_PROPERTY
Coulomb
SciTegic.value.DoubleValue
19.997

@<SCITEGIC>MOL_PROPERTY
VdW
SciTegic.value.DoubleValue
1.197

@<SCITEGIC>MOL_PROPERTY
VdW6
SciTegic.value.DoubleValue
-10.230

@<SCITEGIC>MOL_PROPERTY
VdW12
SciTegic.value.DoubleValue
11.427

@<SCITEGIC>MOL_PROPERTY
Bond
SciTegic.value.DoubleValue
0.319

@<SCITEGIC>MOL_PROPERTY
Angle
SciTegic.value.DoubleValue
2.019

@<SCITEGIC>MOL_PROPERTY
Pdih
SciTegic.value.DoubleValue
4.411

@<SCITEGIC>MOL_PROPERTY
Idih
SciTegic.value.DoubleValue
0.000

@<SCITEGIC>MOL_PROPERTY
Tether
SciTegic.value.DoubleValue
0.000

@<TRIPOS>MOLECULE
guest-s15_vm2.mol2 : vm2 ligand conformer 112
          29          28           1
SMALL
USER_CHARGES
 
@<TRIPOS>ATOM
       1    C1      19.298510   18.338590   20.052276 C.3        1 MOL1        -0.2426
       2    H1      19.428916   17.889548   19.059196 H          1 MOL1         0.0959
       3    H2      19.602808   17.589200   20.793386 H          1 MOL1         0.0959
       4    H3      18.230117   18.551073   20.187267 H          1 MOL1         0.0959
       5    C2      20.142428   19.625702   20.177378 C.3        1 MOL1        -0.1410
       6    H4      19.917008   20.279194   19.323070 H          1 MOL1         0.0948
       7    H5      21.208361   19.371903   20.093316 H          1 MOL1         0.0948
       8    C3      19.900214   20.423225   21.484215 C.3        1 MOL1        -0.1435
       9    H6      20.511843   21.334633   21.432878 H          1 MOL1         0.0948
      10    H7      18.858082   20.768346   21.528515 H          1 MOL1         0.0948
      11    C4      20.272497   19.663721   22.784084 C.3        1 MOL1        -0.1435
      12    H8      20.698234   20.387450   23.491639 H          1 MOL1         0.0948
      13    H9      21.068441   18.934921   22.578131 H          1 MOL1         0.0948
      14    C5      19.061191   18.965989   23.454560 C.3        1 MOL1        -0.1435
      15    H10     18.314532   19.718430   23.741025 H          1 MOL1         0.0948
      16    H11     18.559907   18.310561   22.732615 H          1 MOL1         0.0948
      17    C6      19.455658   18.116091   24.689459 C.3        1 MOL1        -0.1500
      18    H12     20.122970   17.307739   24.362023 H          1 MOL1         0.0948
      19    H13     18.557146   17.628205   25.090071 H          1 MOL1         0.0948
      20    C7      20.148390   18.915335   25.815795 C.3        1 MOL1         0.1162
      21    H14     21.050000   19.379345   25.405222 H          1 MOL1         0.0910
      22    C8      20.570285   17.976069   26.956632 C.3        1 MOL1        -0.2491
      23    H15     21.097427   18.531641   27.742024 H          1 MOL1         0.0959
      24    H16     19.699653   17.485933   27.410150 H          1 MOL1         0.0959
      25    H17     21.248274   17.196040   26.588356 H          1 MOL1         0.0959
      26    N1      19.286827   20.031278   26.339601 N.4        1 MOL1        -0.5987
      27    H18     19.769502   20.568441   27.065579 H          1 MOL1         0.3605
      28    H19     18.419959   19.672108   26.748234 H          1 MOL1         0.3605
      29    H20     19.029867   20.683017   25.593204 H          1 MOL1         0.3605
@<TRIPOS>BOND
    1     1     2    1
    2     1     3    1
    3     1     4    1
    4     1     5    1
    5     5     6    1
    6     5     7    1
    7     5     8    1
    8     8     9    1
    9     8    10    1
   10     8    11    1
   11    11    12    1
   12    11    13    1
   13    11    14    1
   14    14    15    1
   15    14    16    1
   16    14    17    1
   17    17    18    1
   18    17    19    1
   19    17    20    1
   20    20    21    1
   21    20    22    1
   22    22    23    1
   23    22    24    1
   24    22    25    1
   25    20    26    1
   26    26    27    1
   27    26    28    1
   28    26    29    1
@<TRIPOS>SUBSTRUCTURE
       1 MOL1            1 RESIDUE      1      MOL     
@<SCITEGIC>MOL_PROPERTY
VM2 Rank
SciTegic.value.IntegerValue
112

@<SCITEGIC>MOL_PROPERTY
Conf_Id
SciTegic.value.IntegerValue
1352

@<SCITEGIC>MOL_PROPERTY
Probability
SciTegic.value.DoubleValue
0.02

@<SCITEGIC>MOL_PROPERTY
Sum Probability
SciTegic.value.DoubleValue
99.59

@<SCITEGIC>MOL_PROPERTY
Delta G
SciTegic.value.DoubleValue
3.896

@<SCITEGIC>MOL_PROPERTY
G
SciTegic.value.DoubleValue
37.599

@<SCITEGIC>MOL_PROPERTY
E
SciTegic.value.DoubleValue
-0.364

@<SCITEGIC>MOL_PROPERTY
-TS
SciTegic.value.DoubleValue
37.963

@<SCITEGIC>MOL_PROPERTY
U+W
SciTegic.value.DoubleValue
-24.509

@<SCITEGIC>MOL_PROPERTY
U
SciTegic.value.DoubleValue
27.887

@<SCITEGIC>MOL_PROPERTY
W
SciTegic.value.DoubleValue
-52.396

@<SCITEGIC>MOL_PROPERTY
W(PB)
SciTegic.value.DoubleValue
-54.858

@<SCITEGIC>MOL_PROPERTY
W(SA)
SciTegic.value.DoubleValue
2.462

@<SCITEGIC>MOL_PROPERTY
Valence
SciTegic.value.DoubleValue
6.471

@<SCITEGIC>MOL_PROPERTY
Coulomb
SciTegic.value.DoubleValue
20.362

@<SCITEGIC>MOL_PROPERTY
VdW
SciTegic.value.DoubleValue
1.054

@<SCITEGIC>MOL_PROPERTY
VdW6
SciTegic.value.DoubleValue
-10.398

@<SCITEGIC>MOL_PROPERTY
VdW12
SciTegic.value.DoubleValue
11.452

@<SCITEGIC>MOL_PROPERTY
Bond
SciTegic.value.DoubleValue
0.305

@<SCITEGIC>MOL_PROPERTY
Angle
SciTegic.value.DoubleValue
1.802

@<SCITEGIC>MOL_PROPERTY
Pdih
SciTegic.value.DoubleValue
4.364

@<SCITEGIC>MOL_PROPERTY
Idih
SciTegic.value.DoubleValue
0.000

@<SCITEGIC>MOL_PROPERTY
Tether
SciTegic.value.DoubleValue
0.000

@<TRIPOS>MOLECULE
guest-s15_vm2.mol2 : vm2 ligand conformer 113
          29          28           1
SMALL
USER_CHARGES
 
@<TRIPOS>ATOM
       1    C1      20.577214   18.265392   19.801556 C.3        1 MOL1        -0.2426
       2    H1      20.478813   18.991141   18.983740 H          1 MOL1         0.0959
       3    H2      21.576165   17.815359   19.733938 H          1 MOL1         0.0959
       4    H3      19.837471   17.469720   19.643676 H          1 MOL1         0.0959
       5    C2      20.377089   18.943875   21.173195 C.3        1 MOL1        -0.1410
       6    H4      21.146464   19.715749   21.313630 H          1 MOL1         0.0948
       7    H5      20.520453   18.194252   21.962551 H          1 MOL1         0.0948
       8    C3      18.972144   19.576378   21.296754 C.3        1 MOL1        -0.1435
       9    H6      18.799556   20.233663   20.433357 H          1 MOL1         0.0948
      10    H7      18.210671   18.786649   21.235964 H          1 MOL1         0.0948
      11    C4      18.752741   20.404172   22.589487 C.3        1 MOL1        -0.1435
      12    H8      17.740889   20.829870   22.541008 H          1 MOL1         0.0948
      13    H9      19.434727   21.265408   22.606544 H          1 MOL1         0.0948
      14    C5      18.873759   19.592906   23.905824 C.3        1 MOL1        -0.1435
      15    H10     18.126097   19.975643   24.613063 H          1 MOL1         0.0948
      16    H11     18.606427   18.545349   23.716724 H          1 MOL1         0.0948
      17    C6      20.277831   19.702162   24.562919 C.3        1 MOL1        -0.1500
      18    H12     20.484699   20.757120   24.785498 H          1 MOL1         0.0948
      19    H13     21.054486   19.391980   23.855027 H          1 MOL1         0.0948
      20    C7      20.450501   18.887982   25.866681 C.3        1 MOL1         0.1162
      21    H14     21.451335   19.103172   26.253704 H          1 MOL1         0.0910
      22    C8      20.366634   17.372220   25.615529 C.3        1 MOL1        -0.2491
      23    H15     21.066615   17.068051   24.827449 H          1 MOL1         0.0959
      24    H16     20.629350   16.818246   26.525079 H          1 MOL1         0.0959
      25    H17     19.357704   17.064559   25.316712 H          1 MOL1         0.0959
      26    N1      19.488089   19.310912   26.942056 N.4        1 MOL1        -0.5987
      27    H18     19.569629   20.311013   27.146557 H          1 MOL1         0.3605
      28    H19     19.657395   18.804637   27.815915 H          1 MOL1         0.3605
      29    H20     18.519993   19.130404   26.664959 H          1 MOL1         0.3605
@<TRIPOS>BOND
    1     1     2    1
    2     1     3    1
    3     1     4    1
    4     1     5    1
    5     5     6    1
    6     5     7    1
    7     5     8    1
    8     8     9    1
    9     8    10    1
   10     8    11    1
   11    11    12    1
   12    11    13    1
   13    11    14    1
   14    14    15    1
   15    14    16    1
   16    14    17    1
   17    17    18    1
   18    17    19    1
   19    17    20    1
   20    20    21    1
   21    20    22    1
   22    22    23    1
   23    22    24    1
   24    22    25    1
   25    20    26    1
   26    26    27    1
   27    26    28    1
   28    26    29    1
@<TRIPOS>SUBSTRUCTURE
       1 MOL1            1 RESIDUE      1      MOL     
@<SCITEGIC>MOL_PROPERTY
VM2 Rank
SciTegic.value.IntegerValue
113

@<SCITEGIC>MOL_PROPERTY
Conf_Id
SciTegic.value.IntegerValue
153

@<SCITEGIC>MOL_PROPERTY
Probability
SciTegic.value.DoubleValue
0.01

@<SCITEGIC>MOL_PROPERTY
Sum Probability
SciTegic.value.DoubleValue
99.60

@<SCITEGIC>MOL_PROPERTY
Delta G
SciTegic.value.DoubleValue
3.906

@<SCITEGIC>MOL_PROPERTY
G
SciTegic.value.DoubleValue
37.608

@<SCITEGIC>MOL_PROPERTY
E
SciTegic.value.DoubleValue
-0.302

@<SCITEGIC>MOL_PROPERTY
-TS
SciTegic.value.DoubleValue
37.910

@<SCITEGIC>MOL_PROPERTY
U+W
SciTegic.value.DoubleValue
-24.446

@<SCITEGIC>MOL_PROPERTY
U
SciTegic.value.DoubleValue
27.947

@<SCITEGIC>MOL_PROPERTY
W
SciTegic.value.DoubleValue
-52.394

@<SCITEGIC>MOL_PROPERTY
W(PB)
SciTegic.value.DoubleValue
-54.842

@<SCITEGIC>MOL_PROPERTY
W(SA)
SciTegic.value.DoubleValue
2.448

@<SCITEGIC>MOL_PROPERTY
Valence
SciTegic.value.DoubleValue
6.732

@<SCITEGIC>MOL_PROPERTY
Coulomb
SciTegic.value.DoubleValue
20.067

@<SCITEGIC>MOL_PROPERTY
VdW
SciTegic.value.DoubleValue
1.149

@<SCITEGIC>MOL_PROPERTY
VdW6
SciTegic.value.DoubleValue
-10.428

@<SCITEGIC>MOL_PROPERTY
VdW12
SciTegic.value.DoubleValue
11.576

@<SCITEGIC>MOL_PROPERTY
Bond
SciTegic.value.DoubleValue
0.324

@<SCITEGIC>MOL_PROPERTY
Angle
SciTegic.value.DoubleValue
1.942

@<SCITEGIC>MOL_PROPERTY
Pdih
SciTegic.value.DoubleValue
4.467

@<SCITEGIC>MOL_PROPERTY
Idih
SciTegic.value.DoubleValue
0.000

@<SCITEGIC>MOL_PROPERTY
Tether
SciTegic.value.DoubleValue
0.000

@<TRIPOS>MOLECULE
guest-s15_vm2.mol2 : vm2 ligand conformer 114
          29          28           1
SMALL
USER_CHARGES
 
@<TRIPOS>ATOM
       1    C1      19.014614   20.800420   20.325758 C.3        1 MOL1        -0.2426
       2    H1      18.369220   21.159764   19.513793 H          1 MOL1         0.0959
       3    H2      18.506961   21.022769   21.272311 H          1 MOL1         0.0959
       4    H3      19.948654   21.376151   20.291735 H          1 MOL1         0.0959
       5    C2      19.288359   19.287413   20.168748 C.3        1 MOL1        -0.1410
       6    H4      19.677362   19.101665   19.157836 H          1 MOL1         0.0948
       7    H5      18.343307   18.731220   20.241256 H          1 MOL1         0.0948
       8    C3      20.302094   18.734019   21.199185 C.3        1 MOL1        -0.1435
       9    H6      20.520716   17.687974   20.943705 H          1 MOL1         0.0948
      10    H7      21.251772   19.279277   21.109070 H          1 MOL1         0.0948
      11    C4      19.796515   18.804108   22.660041 C.3        1 MOL1        -0.1435
      12    H8      18.826535   18.293476   22.734852 H          1 MOL1         0.0948
      13    H9      19.642079   19.854194   22.932017 H          1 MOL1         0.0948
      14    C5      20.802564   18.160578   23.643890 C.3        1 MOL1        -0.1435
      15    H10     21.084283   17.168817   23.263881 H          1 MOL1         0.0948
      16    H11     21.727371   18.753793   23.660964 H          1 MOL1         0.0948
      17    C6      20.276167   17.982974   25.092565 C.3        1 MOL1        -0.1500
      18    H12     21.044642   17.429200   25.648348 H          1 MOL1         0.0948
      19    H13     19.384851   17.341736   25.095609 H          1 MOL1         0.0948
      20    C7      19.978740   19.303073   25.842566 C.3        1 MOL1         0.1162
      21    H14     20.753783   20.030498   25.582368 H          1 MOL1         0.0910
      22    C8      20.021624   19.076872   27.362861 C.3        1 MOL1        -0.2491
      23    H15     19.271203   18.339916   27.675598 H          1 MOL1         0.0959
      24    H16     21.008565   18.714444   27.676533 H          1 MOL1         0.0959
      25    H17     19.826908   20.012932   27.900792 H          1 MOL1         0.0959
      26    N1      18.655322   19.906544   25.458386 N.4        1 MOL1        -0.5987
      27    H18     17.879025   19.289582   25.712086 H          1 MOL1         0.3605
      28    H19     18.599145   20.074069   24.451251 H          1 MOL1         0.3605
      29    H20     18.501668   20.801967   25.931106 H          1 MOL1         0.3605
@<TRIPOS>BOND
    1     1     2    1
    2     1     3    1
    3     1     4    1
    4     1     5    1
    5     5     6    1
    6     5     7    1
    7     5     8    1
    8     8     9    1
    9     8    10    1
   10     8    11    1
   11    11    12    1
   12    11    13    1
   13    11    14    1
   14    14    15    1
   15    14    16    1
   16    14    17    1
   17    17    18    1
   18    17    19    1
   19    17    20    1
   20    20    21    1
   21    20    22    1
   22    22    23    1
   23    22    24    1
   24    22    25    1
   25    20    26    1
   26    26    27    1
   27    26    28    1
   28    26    29    1
@<TRIPOS>SUBSTRUCTURE
       1 MOL1            1 RESIDUE      1      MOL     
@<SCITEGIC>MOL_PROPERTY
VM2 Rank
SciTegic.value.IntegerValue
114

@<SCITEGIC>MOL_PROPERTY
Conf_Id
SciTegic.value.IntegerValue
1464

@<SCITEGIC>MOL_PROPERTY
Probability
SciTegic.value.DoubleValue
0.01

@<SCITEGIC>MOL_PROPERTY
Sum Probability
SciTegic.value.DoubleValue
99.62

@<SCITEGIC>MOL_PROPERTY
Delta G
SciTegic.value.DoubleValue
3.940

@<SCITEGIC>MOL_PROPERTY
G
SciTegic.value.DoubleValue
37.642

@<SCITEGIC>MOL_PROPERTY
E
SciTegic.value.DoubleValue
0.129

@<SCITEGIC>MOL_PROPERTY
-TS
SciTegic.value.DoubleValue
37.514

@<SCITEGIC>MOL_PROPERTY
U+W
SciTegic.value.DoubleValue
-24.016

@<SCITEGIC>MOL_PROPERTY
U
SciTegic.value.DoubleValue
27.949

@<SCITEGIC>MOL_PROPERTY
W
SciTegic.value.DoubleValue
-51.965

@<SCITEGIC>MOL_PROPERTY
W(PB)
SciTegic.value.DoubleValue
-54.444

@<SCITEGIC>MOL_PROPERTY
W(SA)
SciTegic.value.DoubleValue
2.478

@<SCITEGIC>MOL_PROPERTY
Valence
SciTegic.value.DoubleValue
5.463

@<SCITEGIC>MOL_PROPERTY
Coulomb
SciTegic.value.DoubleValue
21.337

@<SCITEGIC>MOL_PROPERTY
VdW
SciTegic.value.DoubleValue
1.149

@<SCITEGIC>MOL_PROPERTY
VdW6
SciTegic.value.DoubleValue
-9.730

@<SCITEGIC>MOL_PROPERTY
VdW12
SciTegic.value.DoubleValue
10.879

@<SCITEGIC>MOL_PROPERTY
Bond
SciTegic.value.DoubleValue
0.280

@<SCITEGIC>MOL_PROPERTY
Angle
SciTegic.value.DoubleValue
1.828

@<SCITEGIC>MOL_PROPERTY
Pdih
SciTegic.value.DoubleValue
3.354

@<SCITEGIC>MOL_PROPERTY
Idih
SciTegic.value.DoubleValue
0.000

@<SCITEGIC>MOL_PROPERTY
Tether
SciTegic.value.DoubleValue
0.000

@<TRIPOS>MOLECULE
guest-s15_vm2.mol2 : vm2 ligand conformer 115
          29          28           1
SMALL
USER_CHARGES
 
@<TRIPOS>ATOM
       1    C1      18.541312   18.917061   19.688305 C.3        1 MOL1        -0.2426
       2    H1      17.591182   18.810703   20.227903 H          1 MOL1         0.0959
       3    H2      18.605274   19.944771   19.307569 H          1 MOL1         0.0959
       4    H3      18.516677   18.238868   18.825475 H          1 MOL1         0.0959
       5    C2      19.739264   18.589703   20.604517 C.3        1 MOL1        -0.1410
       6    H4      20.671710   18.670561   20.028437 H          1 MOL1         0.0948
       7    H5      19.664831   17.546740   20.942917 H          1 MOL1         0.0948
       8    C3      19.797792   19.531467   21.827217 C.3        1 MOL1        -0.1435
       9    H6      19.876057   20.572275   21.484103 H          1 MOL1         0.0948
      10    H7      18.856381   19.453428   22.385353 H          1 MOL1         0.0948
      11    C4      20.996969   19.201421   22.748443 C.3        1 MOL1        -0.1435
      12    H8      21.922187   19.273914   22.160198 H          1 MOL1         0.0948
      13    H9      20.941747   18.159742   23.089279 H          1 MOL1         0.0948
      14    C5      21.119425   20.153225   23.964218 C.3        1 MOL1        -0.1435
      15    H10     22.053762   19.925725   24.495872 H          1 MOL1         0.0948
      16    H11     21.229307   21.182788   23.596567 H          1 MOL1         0.0948
      17    C6      19.946730   20.109029   24.980211 C.3        1 MOL1        -0.1500
      18    H12     19.004075   20.405392   24.503113 H          1 MOL1         0.0948
      19    H13     20.146119   20.885665   25.730377 H          1 MOL1         0.0948
      20    C7      19.790676   18.748155   25.702717 C.3        1 MOL1         0.1162
      21    H14     20.743221   18.213683   25.635750 H          1 MOL1         0.0910
      22    C8      18.689644   17.879137   25.067895 C.3        1 MOL1        -0.2491
      23    H15     18.899739   17.665113   24.015091 H          1 MOL1         0.0959
      24    H16     18.611316   16.916250   25.587493 H          1 MOL1         0.0959
      25    H17     17.712426   18.374642   25.124805 H          1 MOL1         0.0959
      26    N1      19.514188   18.926802   27.170477 N.4        1 MOL1        -0.5987
      27    H18     18.633584   19.424653   27.327173 H          1 MOL1         0.3605
      28    H19     20.256949   19.460608   27.631312 H          1 MOL1         0.3605
      29    H20     19.444963   18.024716   27.650245 H          1 MOL1         0.3605
@<TRIPOS>BOND
    1     1     2    1
    2     1     3    1
    3     1     4    1
    4     1     5    1
    5     5     6    1
    6     5     7    1
    7     5     8    1
    8     8     9    1
    9     8    10    1
   10     8    11    1
   11    11    12    1
   12    11    13    1
   13    11    14    1
   14    14    15    1
   15    14    16    1
   16    14    17    1
   17    17    18    1
   18    17    19    1
   19    17    20    1
   20    20    21    1
   21    20    22    1
   22    22    23    1
   23    22    24    1
   24    22    25    1
   25    20    26    1
   26    26    27    1
   27    26    28    1
   28    26    29    1
@<TRIPOS>SUBSTRUCTURE
       1 MOL1            1 RESIDUE      1      MOL     
@<SCITEGIC>MOL_PROPERTY
VM2 Rank
SciTegic.value.IntegerValue
115

@<SCITEGIC>MOL_PROPERTY
Conf_Id
SciTegic.value.IntegerValue
1688

@<SCITEGIC>MOL_PROPERTY
Probability
SciTegic.value.DoubleValue
0.01

@<SCITEGIC>MOL_PROPERTY
Sum Probability
SciTegic.value.DoubleValue
99.63

@<SCITEGIC>MOL_PROPERTY
Delta G
SciTegic.value.DoubleValue
3.951

@<SCITEGIC>MOL_PROPERTY
G
SciTegic.value.DoubleValue
37.653

@<SCITEGIC>MOL_PROPERTY
E
SciTegic.value.DoubleValue
-0.364

@<SCITEGIC>MOL_PROPERTY
-TS
SciTegic.value.DoubleValue
38.017

@<SCITEGIC>MOL_PROPERTY
U+W
SciTegic.value.DoubleValue
-24.508

@<SCITEGIC>MOL_PROPERTY
U
SciTegic.value.DoubleValue
27.828

@<SCITEGIC>MOL_PROPERTY
W
SciTegic.value.DoubleValue
-52.337

@<SCITEGIC>MOL_PROPERTY
W(PB)
SciTegic.value.DoubleValue
-54.787

@<SCITEGIC>MOL_PROPERTY
W(SA)
SciTegic.value.DoubleValue
2.450

@<SCITEGIC>MOL_PROPERTY
Valence
SciTegic.value.DoubleValue
6.936

@<SCITEGIC>MOL_PROPERTY
Coulomb
SciTegic.value.DoubleValue
20.037

@<SCITEGIC>MOL_PROPERTY
VdW
SciTegic.value.DoubleValue
0.855

@<SCITEGIC>MOL_PROPERTY
VdW6
SciTegic.value.DoubleValue
-10.295

@<SCITEGIC>MOL_PROPERTY
VdW12
SciTegic.value.DoubleValue
11.150

@<SCITEGIC>MOL_PROPERTY
Bond
SciTegic.value.DoubleValue
0.273

@<SCITEGIC>MOL_PROPERTY
Angle
SciTegic.value.DoubleValue
1.992

@<SCITEGIC>MOL_PROPERTY
Pdih
SciTegic.value.DoubleValue
4.672

@<SCITEGIC>MOL_PROPERTY
Idih
SciTegic.value.DoubleValue
0.000

@<SCITEGIC>MOL_PROPERTY
Tether
SciTegic.value.DoubleValue
0.000

@<TRIPOS>MOLECULE
guest-s15_vm2.mol2 : vm2 ligand conformer 116
          29          28           1
SMALL
USER_CHARGES
 
@<TRIPOS>ATOM
       1    C1      19.222109   20.558297   20.433300 C.3        1 MOL1        -0.2426
       2    H1      18.266318   20.035485   20.561872 H          1 MOL1         0.0959
       3    H2      19.268004   21.376523   21.163644 H          1 MOL1         0.0959
       4    H3      19.222228   21.003424   19.429923 H          1 MOL1         0.0959
       5    C2      20.421461   19.597752   20.598736 C.3        1 MOL1        -0.1410
       6    H4      21.344590   20.137190   20.344566 H          1 MOL1         0.0948
       7    H5      20.338201   18.773709   19.876423 H          1 MOL1         0.0948
       8    C3      20.557105   19.028633   22.031339 C.3        1 MOL1        -0.1435
       9    H6      21.492049   18.454619   22.088682 H          1 MOL1         0.0948
      10    H7      20.664214   19.862284   22.733872 H          1 MOL1         0.0948
      11    C4      19.375732   18.111035   22.439516 C.3        1 MOL1        -0.1435
      12    H8      19.262063   17.340492   21.664533 H          1 MOL1         0.0948
      13    H9      18.432656   18.672830   22.449551 H          1 MOL1         0.0948
      14    C5      19.572241   17.396956   23.802720 C.3        1 MOL1        -0.1435
      15    H10     19.022876   16.446153   23.763798 H          1 MOL1         0.0948
      16    H11     20.624127   17.115452   23.942607 H          1 MOL1         0.0948
      17    C6      19.038839   18.182134   25.032002 C.3        1 MOL1        -0.1500
      18    H12     19.125381   17.543915   25.921378 H          1 MOL1         0.0948
      19    H13     17.963849   18.354794   24.890244 H          1 MOL1         0.0948
      20    C7      19.722886   19.537009   25.321894 C.3        1 MOL1         0.1162
      21    H14     19.637187   20.165065   24.431602 H          1 MOL1         0.0910
      22    C8      21.212131   19.367610   25.672551 C.3        1 MOL1        -0.2491
      23    H15     21.669129   20.339224   25.896943 H          1 MOL1         0.0959
      24    H16     21.340967   18.720583   26.549121 H          1 MOL1         0.0959
      25    H17     21.772646   18.928568   24.839560 H          1 MOL1         0.0959
      26    N1      19.013496   20.276573   26.421941 N.4        1 MOL1        -0.5987
      27    H18     19.439999   21.191708   26.593056 H          1 MOL1         0.3605
      28    H19     19.044566   19.755944   27.302681 H          1 MOL1         0.3605
      29    H20     18.028075   20.437278   26.193986 H          1 MOL1         0.3605
@<TRIPOS>BOND
    1     1     2    1
    2     1     3    1
    3     1     4    1
    4     1     5    1
    5     5     6    1
    6     5     7    1
    7     5     8    1
    8     8     9    1
    9     8    10    1
   10     8    11    1
   11    11    12    1
   12    11    13    1
   13    11    14    1
   14    14    15    1
   15    14    16    1
   16    14    17    1
   17    17    18    1
   18    17    19    1
   19    17    20    1
   20    20    21    1
   21    20    22    1
   22    22    23    1
   23    22    24    1
   24    22    25    1
   25    20    26    1
   26    26    27    1
   27    26    28    1
   28    26    29    1
@<TRIPOS>SUBSTRUCTURE
       1 MOL1            1 RESIDUE      1      MOL     
@<SCITEGIC>MOL_PROPERTY
VM2 Rank
SciTegic.value.IntegerValue
116

@<SCITEGIC>MOL_PROPERTY
Conf_Id
SciTegic.value.IntegerValue
312

@<SCITEGIC>MOL_PROPERTY
Probability
SciTegic.value.DoubleValue
0.01

@<SCITEGIC>MOL_PROPERTY
Sum Probability
SciTegic.value.DoubleValue
99.64

@<SCITEGIC>MOL_PROPERTY
Delta G
SciTegic.value.DoubleValue
3.968

@<SCITEGIC>MOL_PROPERTY
G
SciTegic.value.DoubleValue
37.670

@<SCITEGIC>MOL_PROPERTY
E
SciTegic.value.DoubleValue
-0.452

@<SCITEGIC>MOL_PROPERTY
-TS
SciTegic.value.DoubleValue
38.123

@<SCITEGIC>MOL_PROPERTY
U+W
SciTegic.value.DoubleValue
-24.597

@<SCITEGIC>MOL_PROPERTY
U
SciTegic.value.DoubleValue
28.108

@<SCITEGIC>MOL_PROPERTY
W
SciTegic.value.DoubleValue
-52.704

@<SCITEGIC>MOL_PROPERTY
W(PB)
SciTegic.value.DoubleValue
-55.108

@<SCITEGIC>MOL_PROPERTY
W(SA)
SciTegic.value.DoubleValue
2.404

@<SCITEGIC>MOL_PROPERTY
Valence
SciTegic.value.DoubleValue
6.824

@<SCITEGIC>MOL_PROPERTY
Coulomb
SciTegic.value.DoubleValue
20.447

@<SCITEGIC>MOL_PROPERTY
VdW
SciTegic.value.DoubleValue
0.837

@<SCITEGIC>MOL_PROPERTY
VdW6
SciTegic.value.DoubleValue
-11.014

@<SCITEGIC>MOL_PROPERTY
VdW12
SciTegic.value.DoubleValue
11.852

@<SCITEGIC>MOL_PROPERTY
Bond
SciTegic.value.DoubleValue
0.324

@<SCITEGIC>MOL_PROPERTY
Angle
SciTegic.value.DoubleValue
2.453

@<SCITEGIC>MOL_PROPERTY
Pdih
SciTegic.value.DoubleValue
4.046

@<SCITEGIC>MOL_PROPERTY
Idih
SciTegic.value.DoubleValue
0.000

@<SCITEGIC>MOL_PROPERTY
Tether
SciTegic.value.DoubleValue
0.000

@<TRIPOS>MOLECULE
guest-s15_vm2.mol2 : vm2 ligand conformer 117
          29          28           1
SMALL
USER_CHARGES
 
@<TRIPOS>ATOM
       1    C1      20.097775   19.737149   19.051103 C.3        1 MOL1        -0.2426
       2    H1      21.013707   20.333912   19.152023 H          1 MOL1         0.0959
       3    H2      20.359642   18.788048   18.565451 H          1 MOL1         0.0959
       4    H3      19.414008   20.278957   18.384815 H          1 MOL1         0.0959
       5    C2      19.440241   19.494410   20.426135 C.3        1 MOL1        -0.1410
       6    H4      18.512631   18.921067   20.290178 H          1 MOL1         0.0948
       7    H5      19.156559   20.462079   20.860778 H          1 MOL1         0.0948
       8    C3      20.387818   18.735440   21.384750 C.3        1 MOL1        -0.1435
       9    H6      20.722583   17.809698   20.896654 H          1 MOL1         0.0948
      10    H7      21.291785   19.334165   21.562406 H          1 MOL1         0.0948
      11    C4      19.735574   18.367098   22.739834 C.3        1 MOL1        -0.1435
      12    H8      20.435513   17.732775   23.296839 H          1 MOL1         0.0948
      13    H9      18.845062   17.749013   22.560484 H          1 MOL1         0.0948
      14    C5      19.345311   19.601526   23.593082 C.3        1 MOL1        -0.1435
      15    H10     20.188456   20.302504   23.663885 H          1 MOL1         0.0948
      16    H11     18.541850   20.143084   23.076655 H          1 MOL1         0.0948
      17    C6      18.840890   19.230553   25.012891 C.3        1 MOL1        -0.1500
      18    H12     18.405375   18.222484   25.011548 H          1 MOL1         0.0948
      19    H13     18.016931   19.911477   25.264275 H          1 MOL1         0.0948
      20    C7      19.903390   19.353435   26.131594 C.3        1 MOL1         0.1162
      21    H14     20.280510   20.380740   26.130664 H          1 MOL1         0.0910
      22    C8      21.096861   18.404754   25.929240 C.3        1 MOL1        -0.2491
      23    H15     21.662327   18.670333   25.028481 H          1 MOL1         0.0959
      24    H16     21.790631   18.469798   26.776434 H          1 MOL1         0.0959
      25    H17     20.765706   17.362726   25.839455 H          1 MOL1         0.0959
      26    N1      19.288141   19.131636   27.485371 N.4        1 MOL1        -0.5987
      27    H18     19.975586   19.258177   28.233750 H          1 MOL1         0.3605
      28    H19     18.911208   18.184109   27.573868 H          1 MOL1         0.3605
      29    H20     18.520726   19.786191   27.662853 H          1 MOL1         0.3605
@<TRIPOS>BOND
    1     1     2    1
    2     1     3    1
    3     1     4    1
    4     1     5    1
    5     5     6    1
    6     5     7    1
    7     5     8    1
    8     8     9    1
    9     8    10    1
   10     8    11    1
   11    11    12    1
   12    11    13    1
   13    11    14    1
   14    14    15    1
   15    14    16    1
   16    14    17    1
   17    17    18    1
   18    17    19    1
   19    17    20    1
   20    20    21    1
   21    20    22    1
   22    22    23    1
   23    22    24    1
   24    22    25    1
   25    20    26    1
   26    26    27    1
   27    26    28    1
   28    26    29    1
@<TRIPOS>SUBSTRUCTURE
       1 MOL1            1 RESIDUE      1      MOL     
@<SCITEGIC>MOL_PROPERTY
VM2 Rank
SciTegic.value.IntegerValue
117

@<SCITEGIC>MOL_PROPERTY
Conf_Id
SciTegic.value.IntegerValue
334

@<SCITEGIC>MOL_PROPERTY
Probability
SciTegic.value.DoubleValue
0.01

@<SCITEGIC>MOL_PROPERTY
Sum Probability
SciTegic.value.DoubleValue
99.66

@<SCITEGIC>MOL_PROPERTY
Delta G
SciTegic.value.DoubleValue
3.972

@<SCITEGIC>MOL_PROPERTY
G
SciTegic.value.DoubleValue
37.674

@<SCITEGIC>MOL_PROPERTY
E
SciTegic.value.DoubleValue
-0.135

@<SCITEGIC>MOL_PROPERTY
-TS
SciTegic.value.DoubleValue
37.810

@<SCITEGIC>MOL_PROPERTY
U+W
SciTegic.value.DoubleValue
-24.280

@<SCITEGIC>MOL_PROPERTY
U
SciTegic.value.DoubleValue
27.820

@<SCITEGIC>MOL_PROPERTY
W
SciTegic.value.DoubleValue
-52.100

@<SCITEGIC>MOL_PROPERTY
W(PB)
SciTegic.value.DoubleValue
-54.587

@<SCITEGIC>MOL_PROPERTY
W(SA)
SciTegic.value.DoubleValue
2.487

@<SCITEGIC>MOL_PROPERTY
Valence
SciTegic.value.DoubleValue
6.838

@<SCITEGIC>MOL_PROPERTY
Coulomb
SciTegic.value.DoubleValue
19.703

@<SCITEGIC>MOL_PROPERTY
VdW
SciTegic.value.DoubleValue
1.279

@<SCITEGIC>MOL_PROPERTY
VdW6
SciTegic.value.DoubleValue
-9.734

@<SCITEGIC>MOL_PROPERTY
VdW12
SciTegic.value.DoubleValue
11.013

@<SCITEGIC>MOL_PROPERTY
Bond
SciTegic.value.DoubleValue
0.292

@<SCITEGIC>MOL_PROPERTY
Angle
SciTegic.value.DoubleValue
1.870

@<SCITEGIC>MOL_PROPERTY
Pdih
SciTegic.value.DoubleValue
4.676

@<SCITEGIC>MOL_PROPERTY
Idih
SciTegic.value.DoubleValue
0.000

@<SCITEGIC>MOL_PROPERTY
Tether
SciTegic.value.DoubleValue
0.000

@<TRIPOS>MOLECULE
guest-s15_vm2.mol2 : vm2 ligand conformer 118
          29          28           1
SMALL
USER_CHARGES
 
@<TRIPOS>ATOM
       1    C1      20.741946   18.810075   19.724967 C.3        1 MOL1        -0.2426
       2    H1      21.520463   18.049239   19.583360 H          1 MOL1         0.0959
       3    H2      19.883642   18.535174   19.098066 H          1 MOL1         0.0959
       4    H3      21.137550   19.767851   19.362502 H          1 MOL1         0.0959
       5    C2      20.335418   18.903468   21.210916 C.3        1 MOL1        -0.1410
       6    H4      21.217587   19.155575   21.815708 H          1 MOL1         0.0948
       7    H5      19.983604   17.917627   21.540630 H          1 MOL1         0.0948
       8    C3      19.226575   19.956547   21.433423 C.3        1 MOL1        -0.1435
       9    H6      19.523991   20.894395   20.944230 H          1 MOL1         0.0948
      10    H7      18.306564   19.629231   20.929829 H          1 MOL1         0.0948
      11    C4      18.920214   20.266871   22.921348 C.3        1 MOL1        -0.1435
      12    H8      18.159649   21.059761   22.936669 H          1 MOL1         0.0948
      13    H9      19.804638   20.705434   23.399644 H          1 MOL1         0.0948
      14    C5      18.372942   19.068123   23.744567 C.3        1 MOL1        -0.1435
      15    H10     17.655146   19.450245   24.482463 H          1 MOL1         0.0948
      16    H11     17.786001   18.411149   23.088154 H          1 MOL1         0.0948
      17    C6      19.445845   18.227023   24.491031 C.3        1 MOL1        -0.1500
      18    H12     20.118165   17.753565   23.767807 H          1 MOL1         0.0948
      19    H13     18.942587   17.402951   25.013919 H          1 MOL1         0.0948
      20    C7      20.292492   19.024308   25.509310 C.3        1 MOL1         0.1162
      21    H14     20.814242   19.824219   24.976619 H          1 MOL1         0.0910
      22    C8      21.350071   18.113801   26.153063 C.3        1 MOL1        -0.2491
      23    H15     22.006055   17.678054   25.389141 H          1 MOL1         0.0959
      24    H16     21.980466   18.682183   26.847994 H          1 MOL1         0.0959
      25    H17     20.881589   17.292730   26.710095 H          1 MOL1         0.0959
      26    N1      19.450498   19.685783   26.565375 N.4        1 MOL1        -0.5987
      27    H18     18.769910   20.327049   26.148844 H          1 MOL1         0.3605
      28    H19     20.024604   20.227265   27.217850 H          1 MOL1         0.3605
      29    H20     18.930074   18.995737   27.113476 H          1 MOL1         0.3605
@<TRIPOS>BOND
    1     1     2    1
    2     1     3    1
    3     1     4    1
    4     1     5    1
    5     5     6    1
    6     5     7    1
    7     5     8    1
    8     8     9    1
    9     8    10    1
   10     8    11    1
   11    11    12    1
   12    11    13    1
   13    11    14    1
   14    14    15    1
   15    14    16    1
   16    14    17    1
   17    17    18    1
   18    17    19    1
   19    17    20    1
   20    20    21    1
   21    20    22    1
   22    22    23    1
   23    22    24    1
   24    22    25    1
   25    20    26    1
   26    26    27    1
   27    26    28    1
   28    26    29    1
@<TRIPOS>SUBSTRUCTURE
       1 MOL1            1 RESIDUE      1      MOL     
@<SCITEGIC>MOL_PROPERTY
VM2 Rank
SciTegic.value.IntegerValue
118

@<SCITEGIC>MOL_PROPERTY
Conf_Id
SciTegic.value.IntegerValue
1364

@<SCITEGIC>MOL_PROPERTY
Probability
SciTegic.value.DoubleValue
0.01

@<SCITEGIC>MOL_PROPERTY
Sum Probability
SciTegic.value.DoubleValue
99.67

@<SCITEGIC>MOL_PROPERTY
Delta G
SciTegic.value.DoubleValue
3.973

@<SCITEGIC>MOL_PROPERTY
G
SciTegic.value.DoubleValue
37.675

@<SCITEGIC>MOL_PROPERTY
E
SciTegic.value.DoubleValue
0.012

@<SCITEGIC>MOL_PROPERTY
-TS
SciTegic.value.DoubleValue
37.663

@<SCITEGIC>MOL_PROPERTY
U+W
SciTegic.value.DoubleValue
-24.132

@<SCITEGIC>MOL_PROPERTY
U
SciTegic.value.DoubleValue
28.213

@<SCITEGIC>MOL_PROPERTY
W
SciTegic.value.DoubleValue
-52.345

@<SCITEGIC>MOL_PROPERTY
W(PB)
SciTegic.value.DoubleValue
-54.784

@<SCITEGIC>MOL_PROPERTY
W(SA)
SciTegic.value.DoubleValue
2.438

@<SCITEGIC>MOL_PROPERTY
Valence
SciTegic.value.DoubleValue
6.654

@<SCITEGIC>MOL_PROPERTY
Coulomb
SciTegic.value.DoubleValue
20.544

@<SCITEGIC>MOL_PROPERTY
VdW
SciTegic.value.DoubleValue
1.015

@<SCITEGIC>MOL_PROPERTY
VdW6
SciTegic.value.DoubleValue
-10.510

@<SCITEGIC>MOL_PROPERTY
VdW12
SciTegic.value.DoubleValue
11.525

@<SCITEGIC>MOL_PROPERTY
Bond
SciTegic.value.DoubleValue
0.340

@<SCITEGIC>MOL_PROPERTY
Angle
SciTegic.value.DoubleValue
2.189

@<SCITEGIC>MOL_PROPERTY
Pdih
SciTegic.value.DoubleValue
4.124

@<SCITEGIC>MOL_PROPERTY
Idih
SciTegic.value.DoubleValue
0.000

@<SCITEGIC>MOL_PROPERTY
Tether
SciTegic.value.DoubleValue
0.000

@<TRIPOS>MOLECULE
guest-s15_vm2.mol2 : vm2 ligand conformer 119
          29          28           1
SMALL
USER_CHARGES
 
@<TRIPOS>ATOM
       1    C1      19.237451   20.622977   19.908638 C.3        1 MOL1        -0.2426
       2    H1      20.218914   21.067716   19.698442 H          1 MOL1         0.0959
       3    H2      18.949642   20.006495   19.047048 H          1 MOL1         0.0959
       4    H3      18.509106   21.439539   19.996676 H          1 MOL1         0.0959
       5    C2      19.274916   19.784418   21.203732 C.3        1 MOL1        -0.1410
       6    H4      18.274434   19.375370   21.401651 H          1 MOL1         0.0948
       7    H5      19.528957   20.443204   22.044641 H          1 MOL1         0.0948
       8    C3      20.301561   18.632881   21.107591 C.3        1 MOL1        -0.1435
       9    H6      20.099684   18.050571   20.197953 H          1 MOL1         0.0948
      10    H7      21.309478   19.052407   20.983779 H          1 MOL1         0.0948
      11    C4      20.293051   17.663220   22.317600 C.3        1 MOL1        -0.1435
      12    H8      21.023027   16.868847   22.108886 H          1 MOL1         0.0948
      13    H9      19.319976   17.158230   22.390987 H          1 MOL1         0.0948
      14    C5      20.664902   18.317433   23.673783 C.3        1 MOL1        -0.1435
      15    H10     21.262039   17.595488   24.246336 H          1 MOL1         0.0948
      16    H11     21.314770   19.187494   23.506653 H          1 MOL1         0.0948
      17    C6      19.427958   18.719725   24.519121 C.3        1 MOL1        -0.1500
      18    H12     18.871650   17.817389   24.805677 H          1 MOL1         0.0948
      19    H13     18.743963   19.316277   23.905391 H          1 MOL1         0.0948
      20    C7      19.779864   19.534082   25.784915 C.3        1 MOL1         0.1162
      21    H14     20.362624   20.408392   25.478987 H          1 MOL1         0.0910
      22    C8      20.615968   18.718241   26.787158 C.3        1 MOL1        -0.2491
      23    H15     20.098710   17.794987   27.076563 H          1 MOL1         0.0959
      24    H16     21.591556   18.448834   26.366222 H          1 MOL1         0.0959
      25    H17     20.805604   19.301295   27.696792 H          1 MOL1         0.0959
      26    N1      18.540329   20.063024   26.451460 N.4        1 MOL1        -0.5987
      27    H18     17.935300   19.302533   26.772983 H          1 MOL1         0.3605
      28    H19     17.989628   20.647141   25.815599 H          1 MOL1         0.3605
      29    H20     18.770881   20.635907   27.268399 H          1 MOL1         0.3605
@<TRIPOS>BOND
    1     1     2    1
    2     1     3    1
    3     1     4    1
    4     1     5    1
    5     5     6    1
    6     5     7    1
    7     5     8    1
    8     8     9    1
    9     8    10    1
   10     8    11    1
   11    11    12    1
   12    11    13    1
   13    11    14    1
   14    14    15    1
   15    14    16    1
   16    14    17    1
   17    17    18    1
   18    17    19    1
   19    17    20    1
   20    20    21    1
   21    20    22    1
   22    22    23    1
   23    22    24    1
   24    22    25    1
   25    20    26    1
   26    26    27    1
   27    26    28    1
   28    26    29    1
@<TRIPOS>SUBSTRUCTURE
       1 MOL1            1 RESIDUE      1      MOL     
@<SCITEGIC>MOL_PROPERTY
VM2 Rank
SciTegic.value.IntegerValue
119

@<SCITEGIC>MOL_PROPERTY
Conf_Id
SciTegic.value.IntegerValue
1663

@<SCITEGIC>MOL_PROPERTY
Probability
SciTegic.value.DoubleValue
0.01

@<SCITEGIC>MOL_PROPERTY
Sum Probability
SciTegic.value.DoubleValue
99.68

@<SCITEGIC>MOL_PROPERTY
Delta G
SciTegic.value.DoubleValue
3.981

@<SCITEGIC>MOL_PROPERTY
G
SciTegic.value.DoubleValue
37.684

@<SCITEGIC>MOL_PROPERTY
E
SciTegic.value.DoubleValue
-0.144

@<SCITEGIC>MOL_PROPERTY
-TS
SciTegic.value.DoubleValue
37.828

@<SCITEGIC>MOL_PROPERTY
U+W
SciTegic.value.DoubleValue
-24.289

@<SCITEGIC>MOL_PROPERTY
U
SciTegic.value.DoubleValue
28.312

@<SCITEGIC>MOL_PROPERTY
W
SciTegic.value.DoubleValue
-52.601

@<SCITEGIC>MOL_PROPERTY
W(PB)
SciTegic.value.DoubleValue
-55.091

@<SCITEGIC>MOL_PROPERTY
W(SA)
SciTegic.value.DoubleValue
2.490

@<SCITEGIC>MOL_PROPERTY
Valence
SciTegic.value.DoubleValue
6.782

@<SCITEGIC>MOL_PROPERTY
Coulomb
SciTegic.value.DoubleValue
20.298

@<SCITEGIC>MOL_PROPERTY
VdW
SciTegic.value.DoubleValue
1.232

@<SCITEGIC>MOL_PROPERTY
VdW6
SciTegic.value.DoubleValue
-9.819

@<SCITEGIC>MOL_PROPERTY
VdW12
SciTegic.value.DoubleValue
11.051

@<SCITEGIC>MOL_PROPERTY
Bond
SciTegic.value.DoubleValue
0.292

@<SCITEGIC>MOL_PROPERTY
Angle
SciTegic.value.DoubleValue
1.855

@<SCITEGIC>MOL_PROPERTY
Pdih
SciTegic.value.DoubleValue
4.635

@<SCITEGIC>MOL_PROPERTY
Idih
SciTegic.value.DoubleValue
0.000

@<SCITEGIC>MOL_PROPERTY
Tether
SciTegic.value.DoubleValue
0.000

@<TRIPOS>MOLECULE
guest-s15_vm2.mol2 : vm2 ligand conformer 120
          29          28           1
SMALL
USER_CHARGES
 
@<TRIPOS>ATOM
       1    C1      18.105150   19.062742   20.767487 C.3        1 MOL1        -0.2426
       2    H1      17.468954   18.302042   20.296877 H          1 MOL1         0.0959
       3    H2      17.895703   19.051305   21.842631 H          1 MOL1         0.0959
       4    H3      17.799896   20.041212   20.374480 H          1 MOL1         0.0959
       5    C2      19.595492   18.786018   20.460533 C.3        1 MOL1        -0.1410
       6    H4      19.721670   18.787968   19.368774 H          1 MOL1         0.0948
       7    H5      19.873720   17.776888   20.794905 H          1 MOL1         0.0948
       8    C3      20.555852   19.839716   21.069970 C.3        1 MOL1        -0.1435
       9    H6      21.389268   19.987846   20.369380 H          1 MOL1         0.0948
      10    H7      20.054009   20.814417   21.142280 H          1 MOL1         0.0948
      11    C4      21.164794   19.450564   22.441850 C.3        1 MOL1        -0.1435
      12    H8      21.875112   20.235346   22.736448 H          1 MOL1         0.0948
      13    H9      21.754586   18.530194   22.331016 H          1 MOL1         0.0948
      14    C5      20.125079   19.261931   23.570487 C.3        1 MOL1        -0.1435
      15    H10     19.472626   20.143851   23.611754 H          1 MOL1         0.0948
      16    H11     19.493685   18.397049   23.334227 H          1 MOL1         0.0948
      17    C6      20.807807   19.041210   24.945409 C.3        1 MOL1        -0.1500
      18    H12     21.476724   19.885834   25.156472 H          1 MOL1         0.0948
      19    H13     21.450685   18.152575   24.892406 H          1 MOL1         0.0948
      20    C7      19.834503   18.880688   26.137095 C.3        1 MOL1         0.1162
      21    H14     20.442377   18.762303   27.039447 H          1 MOL1         0.0910
      22    C8      18.954221   17.625984   26.001609 C.3        1 MOL1        -0.2491
      23    H15     19.570125   16.733975   25.832614 H          1 MOL1         0.0959
      24    H16     18.376757   17.462145   26.919698 H          1 MOL1         0.0959
      25    H17     18.243739   17.716068   25.171348 H          1 MOL1         0.0959
      26    N1      18.993103   20.107148   26.359562 N.4        1 MOL1        -0.5987
      27    H18     19.572976   20.940133   26.495990 H          1 MOL1         0.3605
      28    H19     18.399521   20.008163   27.188131 H          1 MOL1         0.3605
      29    H20     18.379168   20.285766   25.561042 H          1 MOL1         0.3605
@<TRIPOS>BOND
    1     1     2    1
    2     1     3    1
    3     1     4    1
    4     1     5    1
    5     5     6    1
    6     5     7    1
    7     5     8    1
    8     8     9    1
    9     8    10    1
   10     8    11    1
   11    11    12    1
   12    11    13    1
   13    11    14    1
   14    14    15    1
   15    14    16    1
   16    14    17    1
   17    17    18    1
   18    17    19    1
   19    17    20    1
   20    20    21    1
   21    20    22    1
   22    22    23    1
   23    22    24    1
   24    22    25    1
   25    20    26    1
   26    26    27    1
   27    26    28    1
   28    26    29    1
@<TRIPOS>SUBSTRUCTURE
       1 MOL1            1 RESIDUE      1      MOL     
@<SCITEGIC>MOL_PROPERTY
VM2 Rank
SciTegic.value.IntegerValue
120

@<SCITEGIC>MOL_PROPERTY
Conf_Id
SciTegic.value.IntegerValue
1547

@<SCITEGIC>MOL_PROPERTY
Probability
SciTegic.value.DoubleValue
0.01

@<SCITEGIC>MOL_PROPERTY
Sum Probability
SciTegic.value.DoubleValue
99.69

@<SCITEGIC>MOL_PROPERTY
Delta G
SciTegic.value.DoubleValue
3.988

@<SCITEGIC>MOL_PROPERTY
G
SciTegic.value.DoubleValue
37.690

@<SCITEGIC>MOL_PROPERTY
E
SciTegic.value.DoubleValue
-0.198

@<SCITEGIC>MOL_PROPERTY
-TS
SciTegic.value.DoubleValue
37.889

@<SCITEGIC>MOL_PROPERTY
U+W
SciTegic.value.DoubleValue
-24.343

@<SCITEGIC>MOL_PROPERTY
U
SciTegic.value.DoubleValue
28.035

@<SCITEGIC>MOL_PROPERTY
W
SciTegic.value.DoubleValue
-52.378

@<SCITEGIC>MOL_PROPERTY
W(PB)
SciTegic.value.DoubleValue
-54.816

@<SCITEGIC>MOL_PROPERTY
W(SA)
SciTegic.value.DoubleValue
2.438

@<SCITEGIC>MOL_PROPERTY
Valence
SciTegic.value.DoubleValue
6.660

@<SCITEGIC>MOL_PROPERTY
Coulomb
SciTegic.value.DoubleValue
20.146

@<SCITEGIC>MOL_PROPERTY
VdW
SciTegic.value.DoubleValue
1.229

@<SCITEGIC>MOL_PROPERTY
VdW6
SciTegic.value.DoubleValue
-10.257

@<SCITEGIC>MOL_PROPERTY
VdW12
SciTegic.value.DoubleValue
11.486

@<SCITEGIC>MOL_PROPERTY
Bond
SciTegic.value.DoubleValue
0.309

@<SCITEGIC>MOL_PROPERTY
Angle
SciTegic.value.DoubleValue
1.997

@<SCITEGIC>MOL_PROPERTY
Pdih
SciTegic.value.DoubleValue
4.354

@<SCITEGIC>MOL_PROPERTY
Idih
SciTegic.value.DoubleValue
0.000

@<SCITEGIC>MOL_PROPERTY
Tether
SciTegic.value.DoubleValue
0.000

@<TRIPOS>MOLECULE
guest-s15_vm2.mol2 : vm2 ligand conformer 121
          29          28           1
SMALL
USER_CHARGES
 
@<TRIPOS>ATOM
       1    C1      19.143294   19.325318   19.136254 C.3        1 MOL1        -0.2426
       2    H1      20.140130   19.553032   18.736612 H          1 MOL1         0.0959
       3    H2      18.650363   18.635053   18.439410 H          1 MOL1         0.0959
       4    H3      18.561987   20.256406   19.156274 H          1 MOL1         0.0959
       5    C2      19.239699   18.701376   20.544505 C.3        1 MOL1        -0.1410
       6    H4      19.797004   17.755860   20.486964 H          1 MOL1         0.0948
       7    H5      18.230802   18.453577   20.903080 H          1 MOL1         0.0948
       8    C3      19.930369   19.653566   21.545676 C.3        1 MOL1        -0.1435
       9    H6      20.936873   19.900225   21.180284 H          1 MOL1         0.0948
      10    H7      19.371128   20.597952   21.598681 H          1 MOL1         0.0948
      11    C4      20.029552   19.031324   22.956711 C.3        1 MOL1        -0.1435
      12    H8      20.597534   18.092248   22.903639 H          1 MOL1         0.0948
      13    H9      19.018836   18.782907   23.301756 H          1 MOL1         0.0948
      14    C5      20.707178   19.992646   23.960695 C.3        1 MOL1        -0.1435
      15    H10     21.645527   20.354749   23.518268 H          1 MOL1         0.0948
      16    H11     20.081673   20.885003   24.097021 H          1 MOL1         0.0948
      17    C6      21.049943   19.365291   25.341921 C.3        1 MOL1        -0.1500
      18    H12     21.571471   20.133471   25.927738 H          1 MOL1         0.0948
      19    H13     21.783194   18.559035   25.208090 H          1 MOL1         0.0948
      20    C7      19.869101   18.853684   26.207293 C.3        1 MOL1         0.1162
      21    H14     20.208579   18.882399   27.247323 H          1 MOL1         0.0910
      22    C8      19.506966   17.386478   25.911278 C.3        1 MOL1        -0.2491
      23    H15     18.757730   17.027281   26.627367 H          1 MOL1         0.0959
      24    H16     19.096822   17.249900   24.906442 H          1 MOL1         0.0959
      25    H17     20.389047   16.741629   26.008759 H          1 MOL1         0.0959
      26    N1      18.659898   19.746317   26.149666 N.4        1 MOL1        -0.5987
      27    H18     18.279096   19.788603   25.201119 H          1 MOL1         0.3605
      28    H19     18.889102   20.703242   26.433281 H          1 MOL1         0.3605
      29    H20     17.916554   19.411767   26.769488 H          1 MOL1         0.3605
@<TRIPOS>BOND
    1     1     2    1
    2     1     3    1
    3     1     4    1
    4     1     5    1
    5     5     6    1
    6     5     7    1
    7     5     8    1
    8     8     9    1
    9     8    10    1
   10     8    11    1
   11    11    12    1
   12    11    13    1
   13    11    14    1
   14    14    15    1
   15    14    16    1
   16    14    17    1
   17    17    18    1
   18    17    19    1
   19    17    20    1
   20    20    21    1
   21    20    22    1
   22    22    23    1
   23    22    24    1
   24    22    25    1
   25    20    26    1
   26    26    27    1
   27    26    28    1
   28    26    29    1
@<TRIPOS>SUBSTRUCTURE
       1 MOL1            1 RESIDUE      1      MOL     
@<SCITEGIC>MOL_PROPERTY
VM2 Rank
SciTegic.value.IntegerValue
121

@<SCITEGIC>MOL_PROPERTY
Conf_Id
SciTegic.value.IntegerValue
703

@<SCITEGIC>MOL_PROPERTY
Probability
SciTegic.value.DoubleValue
0.01

@<SCITEGIC>MOL_PROPERTY
Sum Probability
SciTegic.value.DoubleValue
99.71

@<SCITEGIC>MOL_PROPERTY
Delta G
SciTegic.value.DoubleValue
4.004

@<SCITEGIC>MOL_PROPERTY
G
SciTegic.value.DoubleValue
37.706

@<SCITEGIC>MOL_PROPERTY
E
SciTegic.value.DoubleValue
-0.180

@<SCITEGIC>MOL_PROPERTY
-TS
SciTegic.value.DoubleValue
37.886

@<SCITEGIC>MOL_PROPERTY
U+W
SciTegic.value.DoubleValue
-24.324

@<SCITEGIC>MOL_PROPERTY
U
SciTegic.value.DoubleValue
27.917

@<SCITEGIC>MOL_PROPERTY
W
SciTegic.value.DoubleValue
-52.242

@<SCITEGIC>MOL_PROPERTY
W(PB)
SciTegic.value.DoubleValue
-54.697

@<SCITEGIC>MOL_PROPERTY
W(SA)
SciTegic.value.DoubleValue
2.455

@<SCITEGIC>MOL_PROPERTY
Valence
SciTegic.value.DoubleValue
6.272

@<SCITEGIC>MOL_PROPERTY
Coulomb
SciTegic.value.DoubleValue
20.553

@<SCITEGIC>MOL_PROPERTY
VdW
SciTegic.value.DoubleValue
1.092

@<SCITEGIC>MOL_PROPERTY
VdW6
SciTegic.value.DoubleValue
-9.903

@<SCITEGIC>MOL_PROPERTY
VdW12
SciTegic.value.DoubleValue
10.994

@<SCITEGIC>MOL_PROPERTY
Bond
SciTegic.value.DoubleValue
0.299

@<SCITEGIC>MOL_PROPERTY
Angle
SciTegic.value.DoubleValue
2.362

@<SCITEGIC>MOL_PROPERTY
Pdih
SciTegic.value.DoubleValue
3.611

@<SCITEGIC>MOL_PROPERTY
Idih
SciTegic.value.DoubleValue
0.000

@<SCITEGIC>MOL_PROPERTY
Tether
SciTegic.value.DoubleValue
0.000

@<TRIPOS>MOLECULE
guest-s15_vm2.mol2 : vm2 ligand conformer 122
          29          28           1
SMALL
USER_CHARGES
 
@<TRIPOS>ATOM
       1    C1      18.608360   20.357004   20.885218 C.3        1 MOL1        -0.2426
       2    H1      17.754536   19.806705   21.301107 H          1 MOL1         0.0959
       3    H2      19.095050   20.914131   21.695130 H          1 MOL1         0.0959
       4    H3      18.217928   21.092838   20.170400 H          1 MOL1         0.0959
       5    C2      19.600743   19.401579   20.187484 C.3        1 MOL1        -0.1410
       6    H4      20.473509   19.972583   19.841191 H          1 MOL1         0.0948
       7    H5      19.123840   18.997156   19.283762 H          1 MOL1         0.0948
       8    C3      20.071933   18.215313   21.066941 C.3        1 MOL1        -0.1435
       9    H6      19.216690   17.578457   21.331550 H          1 MOL1         0.0948
      10    H7      20.728584   17.587075   20.449308 H          1 MOL1         0.0948
      11    C4      20.854708   18.623957   22.341992 C.3        1 MOL1        -0.1435
      12    H8      21.377424   19.575445   22.173083 H          1 MOL1         0.0948
      13    H9      21.638010   17.875104   22.523726 H          1 MOL1         0.0948
      14    C5      19.967457   18.710488   23.607895 C.3        1 MOL1        -0.1435
      15    H10     19.149450   19.420563   23.445450 H          1 MOL1         0.0948
      16    H11     19.504110   17.730764   23.782922 H          1 MOL1         0.0948
      17    C6      20.790604   19.134349   24.852033 C.3        1 MOL1        -0.1500
      18    H12     21.293113   20.088002   24.643573 H          1 MOL1         0.0948
      19    H13     21.590982   18.402586   25.024241 H          1 MOL1         0.0948
      20    C7      19.970367   19.289509   26.154460 C.3        1 MOL1         0.1162
      21    H14     20.662442   19.614454   26.937534 H          1 MOL1         0.0910
      22    C8      19.346823   17.958106   26.608130 C.3        1 MOL1        -0.2491
      23    H15     20.110775   17.173925   26.678930 H          1 MOL1         0.0959
      24    H16     18.889401   18.067085   27.599132 H          1 MOL1         0.0959
      25    H17     18.567709   17.618068   25.915612 H          1 MOL1         0.0959
      26    N1      18.925005   20.365695   26.049847 N.4        1 MOL1        -0.5987
      27    H18     19.338263   21.266239   25.791115 H          1 MOL1         0.3605
      28    H19     18.434649   20.497987   26.939091 H          1 MOL1         0.3605
      29    H20     18.222712   20.133295   25.343282 H          1 MOL1         0.3605
@<TRIPOS>BOND
    1     1     2    1
    2     1     3    1
    3     1     4    1
    4     1     5    1
    5     5     6    1
    6     5     7    1
    7     5     8    1
    8     8     9    1
    9     8    10    1
   10     8    11    1
   11    11    12    1
   12    11    13    1
   13    11    14    1
   14    14    15    1
   15    14    16    1
   16    14    17    1
   17    17    18    1
   18    17    19    1
   19    17    20    1
   20    20    21    1
   21    20    22    1
   22    22    23    1
   23    22    24    1
   24    22    25    1
   25    20    26    1
   26    26    27    1
   27    26    28    1
   28    26    29    1
@<TRIPOS>SUBSTRUCTURE
       1 MOL1            1 RESIDUE      1      MOL     
@<SCITEGIC>MOL_PROPERTY
VM2 Rank
SciTegic.value.IntegerValue
122

@<SCITEGIC>MOL_PROPERTY
Conf_Id
SciTegic.value.IntegerValue
1598

@<SCITEGIC>MOL_PROPERTY
Probability
SciTegic.value.DoubleValue
0.01

@<SCITEGIC>MOL_PROPERTY
Sum Probability
SciTegic.value.DoubleValue
99.72

@<SCITEGIC>MOL_PROPERTY
Delta G
SciTegic.value.DoubleValue
4.037

@<SCITEGIC>MOL_PROPERTY
G
SciTegic.value.DoubleValue
37.739

@<SCITEGIC>MOL_PROPERTY
E
SciTegic.value.DoubleValue
-0.155

@<SCITEGIC>MOL_PROPERTY
-TS
SciTegic.value.DoubleValue
37.894

@<SCITEGIC>MOL_PROPERTY
U+W
SciTegic.value.DoubleValue
-24.300

@<SCITEGIC>MOL_PROPERTY
U
SciTegic.value.DoubleValue
28.237

@<SCITEGIC>MOL_PROPERTY
W
SciTegic.value.DoubleValue
-52.536

@<SCITEGIC>MOL_PROPERTY
W(PB)
SciTegic.value.DoubleValue
-54.984

@<SCITEGIC>MOL_PROPERTY
W(SA)
SciTegic.value.DoubleValue
2.448

@<SCITEGIC>MOL_PROPERTY
Valence
SciTegic.value.DoubleValue
6.639

@<SCITEGIC>MOL_PROPERTY
Coulomb
SciTegic.value.DoubleValue
20.375

@<SCITEGIC>MOL_PROPERTY
VdW
SciTegic.value.DoubleValue
1.223

@<SCITEGIC>MOL_PROPERTY
VdW6
SciTegic.value.DoubleValue
-10.233

@<SCITEGIC>MOL_PROPERTY
VdW12
SciTegic.value.DoubleValue
11.456

@<SCITEGIC>MOL_PROPERTY
Bond
SciTegic.value.DoubleValue
0.310

@<SCITEGIC>MOL_PROPERTY
Angle
SciTegic.value.DoubleValue
1.952

@<SCITEGIC>MOL_PROPERTY
Pdih
SciTegic.value.DoubleValue
4.377

@<SCITEGIC>MOL_PROPERTY
Idih
SciTegic.value.DoubleValue
0.000

@<SCITEGIC>MOL_PROPERTY
Tether
SciTegic.value.DoubleValue
0.000

@<TRIPOS>MOLECULE
guest-s15_vm2.mol2 : vm2 ligand conformer 123
          29          28           1
SMALL
USER_CHARGES
 
@<TRIPOS>ATOM
       1    C1      20.314553   17.843843   20.675536 C.3        1 MOL1        -0.2426
       2    H1      19.761706   17.375663   21.498633 H          1 MOL1         0.0959
       3    H2      19.704930   17.762168   19.766359 H          1 MOL1         0.0959
       4    H3      21.231636   17.261752   20.517705 H          1 MOL1         0.0959
       5    C2      20.655884   19.320349   20.980500 C.3        1 MOL1        -0.1410
       6    H4      21.266409   19.714425   20.156145 H          1 MOL1         0.0948
       7    H5      21.286950   19.389720   21.875575 H          1 MOL1         0.0948
       8    C3      19.404405   20.218473   21.135565 C.3        1 MOL1        -0.1435
       9    H6      19.730257   21.261689   21.247785 H          1 MOL1         0.0948
      10    H7      18.832638   20.185853   20.197939 H          1 MOL1         0.0948
      11    C4      18.450970   19.862550   22.308170 C.3        1 MOL1        -0.1435
      12    H8      18.046800   18.848795   22.188061 H          1 MOL1         0.0948
      13    H9      17.581950   20.530600   22.231749 H          1 MOL1         0.0948
      14    C5      19.063565   20.042939   23.722088 C.3        1 MOL1        -0.1435
      15    H10     19.835753   20.824288   23.700850 H          1 MOL1         0.0948
      16    H11     18.272807   20.414274   24.387286 H          1 MOL1         0.0948
      17    C6      19.639114   18.733829   24.321647 C.3        1 MOL1        -0.1500
      18    H12     20.385515   18.311929   23.640552 H          1 MOL1         0.0948
      19    H13     18.840574   17.985114   24.408012 H          1 MOL1         0.0948
      20    C7      20.301128   18.944981   25.700411 C.3        1 MOL1         0.1162
      21    H14     21.071973   19.714760   25.596139 H          1 MOL1         0.0910
      22    C8      20.975950   17.647508   26.173288 C.3        1 MOL1        -0.2491
      23    H15     20.242815   16.840242   26.294844 H          1 MOL1         0.0959
      24    H16     21.732736   17.315942   25.451394 H          1 MOL1         0.0959
      25    H17     21.479218   17.800137   27.136006 H          1 MOL1         0.0959
      26    N1      19.330431   19.441530   26.736795 N.4        1 MOL1        -0.5987
      27    H18     18.905844   20.329504   26.455922 H          1 MOL1         0.3605
      28    H19     19.791291   19.593819   27.638473 H          1 MOL1         0.3605
      29    H20     18.572230   18.771133   26.889063 H          1 MOL1         0.3605
@<TRIPOS>BOND
    1     1     2    1
    2     1     3    1
    3     1     4    1
    4     1     5    1
    5     5     6    1
    6     5     7    1
    7     5     8    1
    8     8     9    1
    9     8    10    1
   10     8    11    1
   11    11    12    1
   12    11    13    1
   13    11    14    1
   14    14    15    1
   15    14    16    1
   16    14    17    1
   17    17    18    1
   18    17    19    1
   19    17    20    1
   20    20    21    1
   21    20    22    1
   22    22    23    1
   23    22    24    1
   24    22    25    1
   25    20    26    1
   26    26    27    1
   27    26    28    1
   28    26    29    1
@<TRIPOS>SUBSTRUCTURE
       1 MOL1            1 RESIDUE      1      MOL     
@<SCITEGIC>MOL_PROPERTY
VM2 Rank
SciTegic.value.IntegerValue
123

@<SCITEGIC>MOL_PROPERTY
Conf_Id
SciTegic.value.IntegerValue
1362

@<SCITEGIC>MOL_PROPERTY
Probability
SciTegic.value.DoubleValue
0.01

@<SCITEGIC>MOL_PROPERTY
Sum Probability
SciTegic.value.DoubleValue
99.73

@<SCITEGIC>MOL_PROPERTY
Delta G
SciTegic.value.DoubleValue
4.049

@<SCITEGIC>MOL_PROPERTY
G
SciTegic.value.DoubleValue
37.751

@<SCITEGIC>MOL_PROPERTY
E
SciTegic.value.DoubleValue
-0.463

@<SCITEGIC>MOL_PROPERTY
-TS
SciTegic.value.DoubleValue
38.214

@<SCITEGIC>MOL_PROPERTY
U+W
SciTegic.value.DoubleValue
-24.607

@<SCITEGIC>MOL_PROPERTY
U
SciTegic.value.DoubleValue
27.913

@<SCITEGIC>MOL_PROPERTY
W
SciTegic.value.DoubleValue
-52.521

@<SCITEGIC>MOL_PROPERTY
W(PB)
SciTegic.value.DoubleValue
-54.943

@<SCITEGIC>MOL_PROPERTY
W(SA)
SciTegic.value.DoubleValue
2.423

@<SCITEGIC>MOL_PROPERTY
Valence
SciTegic.value.DoubleValue
6.822

@<SCITEGIC>MOL_PROPERTY
Coulomb
SciTegic.value.DoubleValue
20.150

@<SCITEGIC>MOL_PROPERTY
VdW
SciTegic.value.DoubleValue
0.941

@<SCITEGIC>MOL_PROPERTY
VdW6
SciTegic.value.DoubleValue
-10.666

@<SCITEGIC>MOL_PROPERTY
VdW12
SciTegic.value.DoubleValue
11.607

@<SCITEGIC>MOL_PROPERTY
Bond
SciTegic.value.DoubleValue
0.323

@<SCITEGIC>MOL_PROPERTY
Angle
SciTegic.value.DoubleValue
2.170

@<SCITEGIC>MOL_PROPERTY
Pdih
SciTegic.value.DoubleValue
4.329

@<SCITEGIC>MOL_PROPERTY
Idih
SciTegic.value.DoubleValue
0.000

@<SCITEGIC>MOL_PROPERTY
Tether
SciTegic.value.DoubleValue
0.000

@<TRIPOS>MOLECULE
guest-s15_vm2.mol2 : vm2 ligand conformer 124
          29          28           1
SMALL
USER_CHARGES
 
@<TRIPOS>ATOM
       1    C1      20.183146   20.555217   19.854370 C.3        1 MOL1        -0.2426
       2    H1      19.556637   20.249716   19.006202 H          1 MOL1         0.0959
       3    H2      19.713047   21.425337   20.330920 H          1 MOL1         0.0959
       4    H3      21.156077   20.872895   19.457496 H          1 MOL1         0.0959
       5    C2      20.356613   19.398526   20.861115 C.3        1 MOL1        -0.1410
       6    H4      21.021124   19.723245   21.670790 H          1 MOL1         0.0948
       7    H5      20.859904   18.557984   20.363205 H          1 MOL1         0.0948
       8    C3      18.995431   18.925248   21.425634 C.3        1 MOL1        -0.1435
       9    H6      18.448284   19.769586   21.866940 H          1 MOL1         0.0948
      10    H7      18.381512   18.573523   20.584927 H          1 MOL1         0.0948
      11    C4      19.122515   17.773448   22.456568 C.3        1 MOL1        -0.1435
      12    H8      20.024538   17.179127   22.255804 H          1 MOL1         0.0948
      13    H9      18.277765   17.086762   22.307288 H          1 MOL1         0.0948
      14    C5      19.100178   18.223946   23.940105 C.3        1 MOL1        -0.1435
      15    H10     18.143323   18.720898   24.148060 H          1 MOL1         0.0948
      16    H11     19.119801   17.320854   24.563190 H          1 MOL1         0.0948
      17    C6      20.274416   19.157899   24.337294 C.3        1 MOL1        -0.1500
      18    H12     20.196001   20.095618   23.773949 H          1 MOL1         0.0948
      19    H13     21.225286   18.696631   24.039803 H          1 MOL1         0.0948
      20    C7      20.342332   19.516077   25.840803 C.3        1 MOL1         0.1162
      21    H14     21.160478   20.232017   25.966598 H          1 MOL1         0.0910
      22    C8      20.661390   18.291692   26.716575 C.3        1 MOL1        -0.2491
      23    H15     20.844920   18.600167   27.753086 H          1 MOL1         0.0959
      24    H16     19.836156   17.570105   26.724554 H          1 MOL1         0.0959
      25    H17     21.562986   17.779775   26.357944 H          1 MOL1         0.0959
      26    N1      19.099978   20.213947   26.321536 N.4        1 MOL1        -0.5987
      27    H18     19.185741   20.497603   27.301744 H          1 MOL1         0.3605
      28    H19     18.281324   19.604787   26.248322 H          1 MOL1         0.3605
      29    H20     18.907525   21.057530   25.773887 H          1 MOL1         0.3605
@<TRIPOS>BOND
    1     1     2    1
    2     1     3    1
    3     1     4    1
    4     1     5    1
    5     5     6    1
    6     5     7    1
    7     5     8    1
    8     8     9    1
    9     8    10    1
   10     8    11    1
   11    11    12    1
   12    11    13    1
   13    11    14    1
   14    14    15    1
   15    14    16    1
   16    14    17    1
   17    17    18    1
   18    17    19    1
   19    17    20    1
   20    20    21    1
   21    20    22    1
   22    22    23    1
   23    22    24    1
   24    22    25    1
   25    20    26    1
   26    26    27    1
   27    26    28    1
   28    26    29    1
@<TRIPOS>SUBSTRUCTURE
       1 MOL1            1 RESIDUE      1      MOL     
@<SCITEGIC>MOL_PROPERTY
VM2 Rank
SciTegic.value.IntegerValue
124

@<SCITEGIC>MOL_PROPERTY
Conf_Id
SciTegic.value.IntegerValue
1595

@<SCITEGIC>MOL_PROPERTY
Probability
SciTegic.value.DoubleValue
0.01

@<SCITEGIC>MOL_PROPERTY
Sum Probability
SciTegic.value.DoubleValue
99.74

@<SCITEGIC>MOL_PROPERTY
Delta G
SciTegic.value.DoubleValue
4.056

@<SCITEGIC>MOL_PROPERTY
G
SciTegic.value.DoubleValue
37.759

@<SCITEGIC>MOL_PROPERTY
E
SciTegic.value.DoubleValue
-0.139

@<SCITEGIC>MOL_PROPERTY
-TS
SciTegic.value.DoubleValue
37.898

@<SCITEGIC>MOL_PROPERTY
U+W
SciTegic.value.DoubleValue
-24.284

@<SCITEGIC>MOL_PROPERTY
U
SciTegic.value.DoubleValue
28.217

@<SCITEGIC>MOL_PROPERTY
W
SciTegic.value.DoubleValue
-52.501

@<SCITEGIC>MOL_PROPERTY
W(PB)
SciTegic.value.DoubleValue
-54.947

@<SCITEGIC>MOL_PROPERTY
W(SA)
SciTegic.value.DoubleValue
2.446

@<SCITEGIC>MOL_PROPERTY
Valence
SciTegic.value.DoubleValue
6.821

@<SCITEGIC>MOL_PROPERTY
Coulomb
SciTegic.value.DoubleValue
20.147

@<SCITEGIC>MOL_PROPERTY
VdW
SciTegic.value.DoubleValue
1.249

@<SCITEGIC>MOL_PROPERTY
VdW6
SciTegic.value.DoubleValue
-10.236

@<SCITEGIC>MOL_PROPERTY
VdW12
SciTegic.value.DoubleValue
11.486

@<SCITEGIC>MOL_PROPERTY
Bond
SciTegic.value.DoubleValue
0.316

@<SCITEGIC>MOL_PROPERTY
Angle
SciTegic.value.DoubleValue
1.990

@<SCITEGIC>MOL_PROPERTY
Pdih
SciTegic.value.DoubleValue
4.515

@<SCITEGIC>MOL_PROPERTY
Idih
SciTegic.value.DoubleValue
0.000

@<SCITEGIC>MOL_PROPERTY
Tether
SciTegic.value.DoubleValue
0.000

@<TRIPOS>MOLECULE
guest-s15_vm2.mol2 : vm2 ligand conformer 125
          29          28           1
SMALL
USER_CHARGES
 
@<TRIPOS>ATOM
       1    C1      20.551552   19.350855   19.242983 C.3        1 MOL1        -0.2426
       2    H1      20.015500   20.260630   18.942651 H          1 MOL1         0.0959
       3    H2      21.569520   19.635751   19.539303 H          1 MOL1         0.0959
       4    H3      20.626722   18.698086   18.363621 H          1 MOL1         0.0959
       5    C2      19.819451   18.630741   20.395106 C.3        1 MOL1        -0.1410
       6    H4      20.360394   17.708894   20.650958 H          1 MOL1         0.0948
       7    H5      18.818386   18.327818   20.057508 H          1 MOL1         0.0948
       8    C3      19.699150   19.528718   21.646269 C.3        1 MOL1        -0.1435
       9    H6      20.703844   19.833354   21.965227 H          1 MOL1         0.0948
      10    H7      19.156922   20.447759   21.384561 H          1 MOL1         0.0948
      11    C4      18.965010   18.806118   22.802002 C.3        1 MOL1        -0.1435
      12    H8      19.511718   17.895440   23.072966 H          1 MOL1         0.0948
      13    H9      17.982837   18.473762   22.438517 H          1 MOL1         0.0948
      14    C5      18.742335   19.702767   24.048399 C.3        1 MOL1        -0.1435
      15    H10     18.267964   20.636422   23.716004 H          1 MOL1         0.0948
      16    H11     18.008669   19.225512   24.710590 H          1 MOL1         0.0948
      17    C6      20.029176   20.057313   24.849702 C.3        1 MOL1        -0.1500
      18    H12     19.911111   21.071416   25.253447 H          1 MOL1         0.0948
      19    H13     20.896378   20.115499   24.182047 H          1 MOL1         0.0948
      20    C7      20.369555   19.124832   26.038707 C.3        1 MOL1         0.1162
      21    H14     21.293072   19.503041   26.487918 H          1 MOL1         0.0910
      22    C8      20.629076   17.673130   25.605677 C.3        1 MOL1        -0.2491
      23    H15     19.708500   17.185494   25.263990 H          1 MOL1         0.0959
      24    H16     21.367688   17.633322   24.795495 H          1 MOL1         0.0959
      25    H17     21.024180   17.088231   26.445251 H          1 MOL1         0.0959
      26    N1      19.330696   19.181527   27.125155 N.4        1 MOL1        -0.5987
      27    H18     18.427141   18.834405   26.794390 H          1 MOL1         0.3605
      28    H19     19.189403   20.138893   27.460049 H          1 MOL1         0.3605
      29    H20     19.602086   18.612095   27.931816 H          1 MOL1         0.3605
@<TRIPOS>BOND
    1     1     2    1
    2     1     3    1
    3     1     4    1
    4     1     5    1
    5     5     6    1
    6     5     7    1
    7     5     8    1
    8     8     9    1
    9     8    10    1
   10     8    11    1
   11    11    12    1
   12    11    13    1
   13    11    14    1
   14    14    15    1
   15    14    16    1
   16    14    17    1
   17    17    18    1
   18    17    19    1
   19    17    20    1
   20    20    21    1
   21    20    22    1
   22    22    23    1
   23    22    24    1
   24    22    25    1
   25    20    26    1
   26    26    27    1
   27    26    28    1
   28    26    29    1
@<TRIPOS>SUBSTRUCTURE
       1 MOL1            1 RESIDUE      1      MOL     
@<SCITEGIC>MOL_PROPERTY
VM2 Rank
SciTegic.value.IntegerValue
125

@<SCITEGIC>MOL_PROPERTY
Conf_Id
SciTegic.value.IntegerValue
1675

@<SCITEGIC>MOL_PROPERTY
Probability
SciTegic.value.DoubleValue
0.01

@<SCITEGIC>MOL_PROPERTY
Sum Probability
SciTegic.value.DoubleValue
99.75

@<SCITEGIC>MOL_PROPERTY
Delta G
SciTegic.value.DoubleValue
4.063

@<SCITEGIC>MOL_PROPERTY
G
SciTegic.value.DoubleValue
37.765

@<SCITEGIC>MOL_PROPERTY
E
SciTegic.value.DoubleValue
0.044

@<SCITEGIC>MOL_PROPERTY
-TS
SciTegic.value.DoubleValue
37.721

@<SCITEGIC>MOL_PROPERTY
U+W
SciTegic.value.DoubleValue
-24.101

@<SCITEGIC>MOL_PROPERTY
U
SciTegic.value.DoubleValue
28.164

@<SCITEGIC>MOL_PROPERTY
W
SciTegic.value.DoubleValue
-52.265

@<SCITEGIC>MOL_PROPERTY
W(PB)
SciTegic.value.DoubleValue
-54.734

@<SCITEGIC>MOL_PROPERTY
W(SA)
SciTegic.value.DoubleValue
2.469

@<SCITEGIC>MOL_PROPERTY
Valence
SciTegic.value.DoubleValue
6.996

@<SCITEGIC>MOL_PROPERTY
Coulomb
SciTegic.value.DoubleValue
19.940

@<SCITEGIC>MOL_PROPERTY
VdW
SciTegic.value.DoubleValue
1.228

@<SCITEGIC>MOL_PROPERTY
VdW6
SciTegic.value.DoubleValue
-10.119

@<SCITEGIC>MOL_PROPERTY
VdW12
SciTegic.value.DoubleValue
11.347

@<SCITEGIC>MOL_PROPERTY
Bond
SciTegic.value.DoubleValue
0.347

@<SCITEGIC>MOL_PROPERTY
Angle
SciTegic.value.DoubleValue
2.178

@<SCITEGIC>MOL_PROPERTY
Pdih
SciTegic.value.DoubleValue
4.471

@<SCITEGIC>MOL_PROPERTY
Idih
SciTegic.value.DoubleValue
0.000

@<SCITEGIC>MOL_PROPERTY
Tether
SciTegic.value.DoubleValue
0.000

@<TRIPOS>MOLECULE
guest-s15_vm2.mol2 : vm2 ligand conformer 126
          29          28           1
SMALL
USER_CHARGES
 
@<TRIPOS>ATOM
       1    C1      20.980788   19.898360   20.356077 C.3        1 MOL1        -0.2426
       2    H1      21.575562   20.487286   21.066300 H          1 MOL1         0.0959
       3    H2      21.315465   18.854998   20.409094 H          1 MOL1         0.0959
       4    H3      21.203863   20.265421   19.345924 H          1 MOL1         0.0959
       5    C2      19.470142   20.025963   20.656328 C.3        1 MOL1        -0.1410
       6    H4      18.898897   19.407043   19.950396 H          1 MOL1         0.0948
       7    H5      19.159789   21.064552   20.475246 H          1 MOL1         0.0948
       8    C3      19.100047   19.642902   22.109258 C.3        1 MOL1        -0.1435
       9    H6      19.659585   20.287660   22.795503 H          1 MOL1         0.0948
      10    H7      18.036563   19.869575   22.265442 H          1 MOL1         0.0948
      11    C4      19.351121   18.146375   22.428780 C.3        1 MOL1        -0.1435
      12    H8      20.419248   17.905996   22.347821 H          1 MOL1         0.0948
      13    H9      18.845872   17.546639   21.659137 H          1 MOL1         0.0948
      14    C5      18.818571   17.695476   23.814314 C.3        1 MOL1        -0.1435
      15    H10     17.871092   18.200110   24.045115 H          1 MOL1         0.0948
      16    H11     18.567785   16.627937   23.744371 H          1 MOL1         0.0948
      17    C6      19.827571   17.852043   24.984210 C.3        1 MOL1        -0.1500
      18    H12     20.727384   17.266275   24.753835 H          1 MOL1         0.0948
      19    H13     19.393534   17.397497   25.884724 H          1 MOL1         0.0948
      20    C7      20.243692   19.302605   25.307967 C.3        1 MOL1         0.1162
      21    H14     20.711987   19.733308   24.419209 H          1 MOL1         0.0910
      22    C8      21.278746   19.320977   26.443767 C.3        1 MOL1        -0.2491
      23    H15     20.862120   18.901711   27.368192 H          1 MOL1         0.0959
      24    H16     22.165596   18.734969   26.172029 H          1 MOL1         0.0959
      25    H17     21.608401   20.346363   26.651830 H          1 MOL1         0.0959
      26    N1      19.065320   20.171298   25.653300 N.4        1 MOL1        -0.5987
      27    H18     19.351763   21.137536   25.834936 H          1 MOL1         0.3605
      28    H19     18.585973   19.830567   26.491005 H          1 MOL1         0.3605
      29    H20     18.382209   20.187208   24.891285 H          1 MOL1         0.3605
@<TRIPOS>BOND
    1     1     2    1
    2     1     3    1
    3     1     4    1
    4     1     5    1
    5     5     6    1
    6     5     7    1
    7     5     8    1
    8     8     9    1
    9     8    10    1
   10     8    11    1
   11    11    12    1
   12    11    13    1
   13    11    14    1
   14    14    15    1
   15    14    16    1
   16    14    17    1
   17    17    18    1
   18    17    19    1
   19    17    20    1
   20    20    21    1
   21    20    22    1
   22    22    23    1
   23    22    24    1
   24    22    25    1
   25    20    26    1
   26    26    27    1
   27    26    28    1
   28    26    29    1
@<TRIPOS>SUBSTRUCTURE
       1 MOL1            1 RESIDUE      1      MOL     
@<SCITEGIC>MOL_PROPERTY
VM2 Rank
SciTegic.value.IntegerValue
126

@<SCITEGIC>MOL_PROPERTY
Conf_Id
SciTegic.value.IntegerValue
302

@<SCITEGIC>MOL_PROPERTY
Probability
SciTegic.value.DoubleValue
0.01

@<SCITEGIC>MOL_PROPERTY
Sum Probability
SciTegic.value.DoubleValue
99.76

@<SCITEGIC>MOL_PROPERTY
Delta G
SciTegic.value.DoubleValue
4.079

@<SCITEGIC>MOL_PROPERTY
G
SciTegic.value.DoubleValue
37.781

@<SCITEGIC>MOL_PROPERTY
E
SciTegic.value.DoubleValue
-0.158

@<SCITEGIC>MOL_PROPERTY
-TS
SciTegic.value.DoubleValue
37.940

@<SCITEGIC>MOL_PROPERTY
U+W
SciTegic.value.DoubleValue
-24.303

@<SCITEGIC>MOL_PROPERTY
U
SciTegic.value.DoubleValue
28.166

@<SCITEGIC>MOL_PROPERTY
W
SciTegic.value.DoubleValue
-52.469

@<SCITEGIC>MOL_PROPERTY
W(PB)
SciTegic.value.DoubleValue
-54.892

@<SCITEGIC>MOL_PROPERTY
W(SA)
SciTegic.value.DoubleValue
2.423

@<SCITEGIC>MOL_PROPERTY
Valence
SciTegic.value.DoubleValue
6.294

@<SCITEGIC>MOL_PROPERTY
Coulomb
SciTegic.value.DoubleValue
21.099

@<SCITEGIC>MOL_PROPERTY
VdW
SciTegic.value.DoubleValue
0.773

@<SCITEGIC>MOL_PROPERTY
VdW6
SciTegic.value.DoubleValue
-10.791

@<SCITEGIC>MOL_PROPERTY
VdW12
SciTegic.value.DoubleValue
11.563

@<SCITEGIC>MOL_PROPERTY
Bond
SciTegic.value.DoubleValue
0.315

@<SCITEGIC>MOL_PROPERTY
Angle
SciTegic.value.DoubleValue
2.120

@<SCITEGIC>MOL_PROPERTY
Pdih
SciTegic.value.DoubleValue
3.859

@<SCITEGIC>MOL_PROPERTY
Idih
SciTegic.value.DoubleValue
0.000

@<SCITEGIC>MOL_PROPERTY
Tether
SciTegic.value.DoubleValue
0.000

@<TRIPOS>MOLECULE
guest-s15_vm2.mol2 : vm2 ligand conformer 127
          29          28           1
SMALL
USER_CHARGES
 
@<TRIPOS>ATOM
       1    C1      18.430149   19.550532   20.249842 C.3        1 MOL1        -0.2426
       2    H1      18.592617   18.831231   19.436672 H          1 MOL1         0.0959
       3    H2      17.920084   19.027093   21.065727 H          1 MOL1         0.0959
       4    H3      17.749585   20.326587   19.876403 H          1 MOL1         0.0959
       5    C2      19.767788   20.178655   20.705585 C.3        1 MOL1        -0.1410
       6    H4      19.588521   20.945710   21.471606 H          1 MOL1         0.0948
       7    H5      20.202883   20.706863   19.845606 H          1 MOL1         0.0948
       8    C3      20.796562   19.136809   21.215585 C.3        1 MOL1        -0.1435
       9    H6      20.649316   18.175086   20.705159 H          1 MOL1         0.0948
      10    H7      21.799580   19.476332   20.922241 H          1 MOL1         0.0948
      11    C4      20.806577   18.930159   22.752008 C.3        1 MOL1        -0.1435
      12    H8      21.053618   19.882676   23.239421 H          1 MOL1         0.0948
      13    H9      21.623258   18.238088   22.999639 H          1 MOL1         0.0948
      14    C5      19.482695   18.370600   23.327177 C.3        1 MOL1        -0.1435
      15    H10     18.682882   19.112841   23.214883 H          1 MOL1         0.0948
      16    H11     19.177284   17.492835   22.741292 H          1 MOL1         0.0948
      17    C6      19.595924   17.954835   24.816117 C.3        1 MOL1        -0.1500
      18    H12     20.322925   17.136052   24.899883 H          1 MOL1         0.0948
      19    H13     18.632965   17.544555   25.148106 H          1 MOL1         0.0948
      20    C7      20.017719   19.101332   25.762145 C.3        1 MOL1         0.1162
      21    H14     20.984397   19.487626   25.425713 H          1 MOL1         0.0910
      22    C8      20.184142   18.577129   27.197129 C.3        1 MOL1        -0.2491
      23    H15     20.932040   17.775266   27.234593 H          1 MOL1         0.0959
      24    H16     20.521235   19.378238   27.866437 H          1 MOL1         0.0959
      25    H17     19.238341   18.180829   27.587408 H          1 MOL1         0.0959
      26    N1      19.054443   20.255949   25.728414 N.4        1 MOL1        -0.5987
      27    H18     19.362212   21.018561   26.338610 H          1 MOL1         0.3605
      28    H19     18.121559   19.971569   26.038844 H          1 MOL1         0.3605
      29    H20     18.963469   20.635283   24.782022 H          1 MOL1         0.3605
@<TRIPOS>BOND
    1     1     2    1
    2     1     3    1
    3     1     4    1
    4     1     5    1
    5     5     6    1
    6     5     7    1
    7     5     8    1
    8     8     9    1
    9     8    10    1
   10     8    11    1
   11    11    12    1
   12    11    13    1
   13    11    14    1
   14    14    15    1
   15    14    16    1
   16    14    17    1
   17    17    18    1
   18    17    19    1
   19    17    20    1
   20    20    21    1
   21    20    22    1
   22    22    23    1
   23    22    24    1
   24    22    25    1
   25    20    26    1
   26    26    27    1
   27    26    28    1
   28    26    29    1
@<TRIPOS>SUBSTRUCTURE
       1 MOL1            1 RESIDUE      1      MOL     
@<SCITEGIC>MOL_PROPERTY
VM2 Rank
SciTegic.value.IntegerValue
127

@<SCITEGIC>MOL_PROPERTY
Conf_Id
SciTegic.value.IntegerValue
996

@<SCITEGIC>MOL_PROPERTY
Probability
SciTegic.value.DoubleValue
0.01

@<SCITEGIC>MOL_PROPERTY
Sum Probability
SciTegic.value.DoubleValue
99.78

@<SCITEGIC>MOL_PROPERTY
Delta G
SciTegic.value.DoubleValue
4.093

@<SCITEGIC>MOL_PROPERTY
G
SciTegic.value.DoubleValue
37.795

@<SCITEGIC>MOL_PROPERTY
E
SciTegic.value.DoubleValue
-0.125

@<SCITEGIC>MOL_PROPERTY
-TS
SciTegic.value.DoubleValue
37.920

@<SCITEGIC>MOL_PROPERTY
U+W
SciTegic.value.DoubleValue
-24.269

@<SCITEGIC>MOL_PROPERTY
U
SciTegic.value.DoubleValue
28.133

@<SCITEGIC>MOL_PROPERTY
W
SciTegic.value.DoubleValue
-52.402

@<SCITEGIC>MOL_PROPERTY
W(PB)
SciTegic.value.DoubleValue
-54.856

@<SCITEGIC>MOL_PROPERTY
W(SA)
SciTegic.value.DoubleValue
2.454

@<SCITEGIC>MOL_PROPERTY
Valence
SciTegic.value.DoubleValue
6.427

@<SCITEGIC>MOL_PROPERTY
Coulomb
SciTegic.value.DoubleValue
20.720

@<SCITEGIC>MOL_PROPERTY
VdW
SciTegic.value.DoubleValue
0.986

@<SCITEGIC>MOL_PROPERTY
VdW6
SciTegic.value.DoubleValue
-10.460

@<SCITEGIC>MOL_PROPERTY
VdW12
SciTegic.value.DoubleValue
11.446

@<SCITEGIC>MOL_PROPERTY
Bond
SciTegic.value.DoubleValue
0.299

@<SCITEGIC>MOL_PROPERTY
Angle
SciTegic.value.DoubleValue
1.839

@<SCITEGIC>MOL_PROPERTY
Pdih
SciTegic.value.DoubleValue
4.289

@<SCITEGIC>MOL_PROPERTY
Idih
SciTegic.value.DoubleValue
0.000

@<SCITEGIC>MOL_PROPERTY
Tether
SciTegic.value.DoubleValue
0.000

@<TRIPOS>MOLECULE
guest-s15_vm2.mol2 : vm2 ligand conformer 128
          29          28           1
SMALL
USER_CHARGES
 
@<TRIPOS>ATOM
       1    C1      20.268005   20.762435   20.648010 C.3        1 MOL1        -0.2426
       2    H1      20.563803   20.966890   21.684489 H          1 MOL1         0.0959
       3    H2      21.071576   21.129861   19.996776 H          1 MOL1         0.0959
       4    H3      19.363524   21.343628   20.426511 H          1 MOL1         0.0959
       5    C2      20.029547   19.253522   20.414255 C.3        1 MOL1        -0.1410
       6    H4      20.939543   18.691759   20.664392 H          1 MOL1         0.0948
       7    H5      19.856994   19.084819   19.342164 H          1 MOL1         0.0948
       8    C3      18.819482   18.691046   21.202827 C.3        1 MOL1        -0.1435
       9    H6      17.904976   19.191397   20.855760 H          1 MOL1         0.0948
      10    H7      18.695034   17.629110   20.949912 H          1 MOL1         0.0948
      11    C4      18.912909   18.835115   22.743517 C.3        1 MOL1        -0.1435
      12    H8      18.001421   18.410137   23.185907 H          1 MOL1         0.0948
      13    H9      18.921176   19.900274   23.001045 H          1 MOL1         0.0948
      14    C5      20.151635   18.128618   23.348615 C.3        1 MOL1        -0.1435
      15    H10     20.231465   17.124064   22.910777 H          1 MOL1         0.0948
      16    H11     21.064991   18.663690   23.055797 H          1 MOL1         0.0948
      17    C6      20.124683   17.976710   24.892253 C.3        1 MOL1        -0.1500
      18    H12     20.983444   17.350582   25.168967 H          1 MOL1         0.0948
      19    H13     19.233240   17.416138   25.203186 H          1 MOL1         0.0948
      20    C7      20.213473   19.307359   25.676380 C.3        1 MOL1         0.1162
      21    H14     20.936752   19.956735   25.173679 H          1 MOL1         0.0910
      22    C8      20.710370   19.051785   27.108856 C.3        1 MOL1        -0.2491
      23    H15     21.703160   18.584788   27.100899 H          1 MOL1         0.0959
      24    H16     20.792388   19.993439   27.665672 H          1 MOL1         0.0959
      25    H17     20.025479   18.390276   27.654165 H          1 MOL1         0.0959
      26    N1      18.905896   20.049411   25.719288 N.4        1 MOL1        -0.5987
      27    H18     18.556454   20.244930   24.778542 H          1 MOL1         0.3605
      28    H19     19.000211   20.944826   26.207223 H          1 MOL1         0.3605
      29    H20     18.188239   19.508177   26.208752 H          1 MOL1         0.3605
@<TRIPOS>BOND
    1     1     2    1
    2     1     3    1
    3     1     4    1
    4     1     5    1
    5     5     6    1
    6     5     7    1
    7     5     8    1
    8     8     9    1
    9     8    10    1
   10     8    11    1
   11    11    12    1
   12    11    13    1
   13    11    14    1
   14    14    15    1
   15    14    16    1
   16    14    17    1
   17    17    18    1
   18    17    19    1
   19    17    20    1
   20    20    21    1
   21    20    22    1
   22    22    23    1
   23    22    24    1
   24    22    25    1
   25    20    26    1
   26    26    27    1
   27    26    28    1
   28    26    29    1
@<TRIPOS>SUBSTRUCTURE
       1 MOL1            1 RESIDUE      1      MOL     
@<SCITEGIC>MOL_PROPERTY
VM2 Rank
SciTegic.value.IntegerValue
128

@<SCITEGIC>MOL_PROPERTY
Conf_Id
SciTegic.value.IntegerValue
329

@<SCITEGIC>MOL_PROPERTY
Probability
SciTegic.value.DoubleValue
0.01

@<SCITEGIC>MOL_PROPERTY
Sum Probability
SciTegic.value.DoubleValue
99.79

@<SCITEGIC>MOL_PROPERTY
Delta G
SciTegic.value.DoubleValue
4.113

@<SCITEGIC>MOL_PROPERTY
G
SciTegic.value.DoubleValue
37.815

@<SCITEGIC>MOL_PROPERTY
E
SciTegic.value.DoubleValue
0.011

@<SCITEGIC>MOL_PROPERTY
-TS
SciTegic.value.DoubleValue
37.805

@<SCITEGIC>MOL_PROPERTY
U+W
SciTegic.value.DoubleValue
-24.134

@<SCITEGIC>MOL_PROPERTY
U
SciTegic.value.DoubleValue
28.192

@<SCITEGIC>MOL_PROPERTY
W
SciTegic.value.DoubleValue
-52.326

@<SCITEGIC>MOL_PROPERTY
W(PB)
SciTegic.value.DoubleValue
-54.782

@<SCITEGIC>MOL_PROPERTY
W(SA)
SciTegic.value.DoubleValue
2.456

@<SCITEGIC>MOL_PROPERTY
Valence
SciTegic.value.DoubleValue
5.839

@<SCITEGIC>MOL_PROPERTY
Coulomb
SciTegic.value.DoubleValue
21.296

@<SCITEGIC>MOL_PROPERTY
VdW
SciTegic.value.DoubleValue
1.058

@<SCITEGIC>MOL_PROPERTY
VdW6
SciTegic.value.DoubleValue
-10.712

@<SCITEGIC>MOL_PROPERTY
VdW12
SciTegic.value.DoubleValue
11.770

@<SCITEGIC>MOL_PROPERTY
Bond
SciTegic.value.DoubleValue
0.323

@<SCITEGIC>MOL_PROPERTY
Angle
SciTegic.value.DoubleValue
2.126

@<SCITEGIC>MOL_PROPERTY
Pdih
SciTegic.value.DoubleValue
3.390

@<SCITEGIC>MOL_PROPERTY
Idih
SciTegic.value.DoubleValue
0.000

@<SCITEGIC>MOL_PROPERTY
Tether
SciTegic.value.DoubleValue
0.000

@<TRIPOS>MOLECULE
guest-s15_vm2.mol2 : vm2 ligand conformer 129
          29          28           1
SMALL
USER_CHARGES
 
@<TRIPOS>ATOM
       1    C1      18.924195   18.455496   19.934021 C.3        1 MOL1        -0.2426
       2    H1      18.020092   18.862599   20.402525 H          1 MOL1         0.0959
       3    H2      19.167312   19.077166   19.062580 H          1 MOL1         0.0959
       4    H3      18.682562   17.448698   19.569491 H          1 MOL1         0.0959
       5    C2      20.109264   18.401272   20.925320 C.3        1 MOL1        -0.1410
       6    H4      20.955317   17.905409   20.429407 H          1 MOL1         0.0948
       7    H5      19.842622   17.767147   21.779475 H          1 MOL1         0.0948
       8    C3      20.569666   19.803043   21.402162 C.3        1 MOL1        -0.1435
       9    H6      21.551843   19.722631   21.887738 H          1 MOL1         0.0948
      10    H7      20.732585   20.430841   20.515272 H          1 MOL1         0.0948
      11    C4      19.578419   20.527487   22.353356 C.3        1 MOL1        -0.1435
      12    H8      18.545936   20.213252   22.156428 H          1 MOL1         0.0948
      13    H9      19.607623   21.600981   22.121014 H          1 MOL1         0.0948
      14    C5      19.895570   20.369220   23.862830 C.3        1 MOL1        -0.1435
      15    H10     20.889708   20.787718   24.072516 H          1 MOL1         0.0948
      16    H11     19.179812   20.985426   24.422271 H          1 MOL1         0.0948
      17    C6      19.834843   18.908083   24.374087 C.3        1 MOL1        -0.1500
      18    H12     20.609508   18.321095   23.865676 H          1 MOL1         0.0948
      19    H13     18.867859   18.459955   24.109820 H          1 MOL1         0.0948
      20    C7      20.063385   18.791053   25.896758 C.3        1 MOL1         0.1162
      21    H14     21.010756   19.281716   26.140436 H          1 MOL1         0.0910
      22    C8      20.164844   17.313737   26.308899 C.3        1 MOL1        -0.2491
      23    H15     20.361433   17.223215   27.384338 H          1 MOL1         0.0959
      24    H16     19.236068   16.774346   26.084420 H          1 MOL1         0.0959
      25    H17     20.985884   16.816001   25.777946 H          1 MOL1         0.0959
      26    N1      18.995814   19.486610   26.696567 N.4        1 MOL1        -0.5987
      27    H18     19.173897   19.412275   27.702240 H          1 MOL1         0.3605
      28    H19     18.072864   19.082057   26.517710 H          1 MOL1         0.3605
      29    H20     18.945882   20.482859   26.467422 H          1 MOL1         0.3605
@<TRIPOS>BOND
    1     1     2    1
    2     1     3    1
    3     1     4    1
    4     1     5    1
    5     5     6    1
    6     5     7    1
    7     5     8    1
    8     8     9    1
    9     8    10    1
   10     8    11    1
   11    11    12    1
   12    11    13    1
   13    11    14    1
   14    14    15    1
   15    14    16    1
   16    14    17    1
   17    17    18    1
   18    17    19    1
   19    17    20    1
   20    20    21    1
   21    20    22    1
   22    22    23    1
   23    22    24    1
   24    22    25    1
   25    20    26    1
   26    26    27    1
   27    26    28    1
   28    26    29    1
@<TRIPOS>SUBSTRUCTURE
       1 MOL1            1 RESIDUE      1      MOL     
@<SCITEGIC>MOL_PROPERTY
VM2 Rank
SciTegic.value.IntegerValue
129

@<SCITEGIC>MOL_PROPERTY
Conf_Id
SciTegic.value.IntegerValue
637

@<SCITEGIC>MOL_PROPERTY
Probability
SciTegic.value.DoubleValue
0.01

@<SCITEGIC>MOL_PROPERTY
Sum Probability
SciTegic.value.DoubleValue
99.80

@<SCITEGIC>MOL_PROPERTY
Delta G
SciTegic.value.DoubleValue
4.148

@<SCITEGIC>MOL_PROPERTY
G
SciTegic.value.DoubleValue
37.851

@<SCITEGIC>MOL_PROPERTY
E
SciTegic.value.DoubleValue
0.035

@<SCITEGIC>MOL_PROPERTY
-TS
SciTegic.value.DoubleValue
37.815

@<SCITEGIC>MOL_PROPERTY
U+W
SciTegic.value.DoubleValue
-24.109

@<SCITEGIC>MOL_PROPERTY
U
SciTegic.value.DoubleValue
28.258

@<SCITEGIC>MOL_PROPERTY
W
SciTegic.value.DoubleValue
-52.367

@<SCITEGIC>MOL_PROPERTY
W(PB)
SciTegic.value.DoubleValue
-54.799

@<SCITEGIC>MOL_PROPERTY
W(SA)
SciTegic.value.DoubleValue
2.432

@<SCITEGIC>MOL_PROPERTY
Valence
SciTegic.value.DoubleValue
6.945

@<SCITEGIC>MOL_PROPERTY
Coulomb
SciTegic.value.DoubleValue
20.034

@<SCITEGIC>MOL_PROPERTY
VdW
SciTegic.value.DoubleValue
1.280

@<SCITEGIC>MOL_PROPERTY
VdW6
SciTegic.value.DoubleValue
-10.156

@<SCITEGIC>MOL_PROPERTY
VdW12
SciTegic.value.DoubleValue
11.436

@<SCITEGIC>MOL_PROPERTY
Bond
SciTegic.value.DoubleValue
0.326

@<SCITEGIC>MOL_PROPERTY
Angle
SciTegic.value.DoubleValue
1.948

@<SCITEGIC>MOL_PROPERTY
Pdih
SciTegic.value.DoubleValue
4.671

@<SCITEGIC>MOL_PROPERTY
Idih
SciTegic.value.DoubleValue
0.000

@<SCITEGIC>MOL_PROPERTY
Tether
SciTegic.value.DoubleValue
0.000

@<TRIPOS>MOLECULE
guest-s15_vm2.mol2 : vm2 ligand conformer 130
          29          28           1
SMALL
USER_CHARGES
 
@<TRIPOS>ATOM
       1    C1      18.503372   19.336566   20.050222 C.3        1 MOL1        -0.2426
       2    H1      18.228184   20.377579   19.836644 H          1 MOL1         0.0959
       3    H2      18.183769   18.725889   19.195929 H          1 MOL1         0.0959
       4    H3      17.930644   19.009722   20.925107 H          1 MOL1         0.0959
       5    C2      20.028459   19.203678   20.269608 C.3        1 MOL1        -0.1410
       6    H4      20.532440   19.530952   19.349411 H          1 MOL1         0.0948
       7    H5      20.304709   18.148899   20.406282 H          1 MOL1         0.0948
       8    C3      20.555375   20.056982   21.451972 C.3        1 MOL1        -0.1435
       9    H6      21.546838   20.443772   21.178500 H          1 MOL1         0.0948
      10    H7      19.921589   20.943261   21.593086 H          1 MOL1         0.0948
      11    C4      20.707678   19.291905   22.791993 C.3        1 MOL1        -0.1435
      12    H8      21.154940   19.980119   23.520708 H          1 MOL1         0.0948
      13    H9      21.428124   18.472448   22.663158 H          1 MOL1         0.0948
      14    C5      19.381405   18.725178   23.355834 C.3        1 MOL1        -0.1435
      15    H10     18.626937   19.521084   23.408634 H          1 MOL1         0.0948
      16    H11     18.988673   17.971810   22.661155 H          1 MOL1         0.0948
      17    C6      19.543171   18.050814   24.742663 C.3        1 MOL1        -0.1500
      18    H12     20.239409   17.207082   24.646123 H          1 MOL1         0.0948
      19    H13     18.579131   17.619228   25.043052 H          1 MOL1         0.0948
      20    C7      20.047027   18.994447   25.857927 C.3        1 MOL1         0.1162
      21    H14     21.021620   19.392096   25.560550 H          1 MOL1         0.0910
      22    C8      20.228719   18.219135   27.172330 C.3        1 MOL1        -0.2491
      23    H15     20.624447   18.874449   27.958043 H          1 MOL1         0.0959
      24    H16     19.276160   17.802161   27.522583 H          1 MOL1         0.0959
      25    H17     20.936651   17.391218   27.041440 H          1 MOL1         0.0959
      26    N1      19.140794   20.177295   26.061451 N.4        1 MOL1        -0.5987
      27    H18     18.203333   19.883362   26.348184 H          1 MOL1         0.3605
      28    H19     19.044312   20.722472   25.200370 H          1 MOL1         0.3605
      29    H20     19.501143   20.805419   26.785455 H          1 MOL1         0.3605
@<TRIPOS>BOND
    1     1     2    1
    2     1     3    1
    3     1     4    1
    4     1     5    1
    5     5     6    1
    6     5     7    1
    7     5     8    1
    8     8     9    1
    9     8    10    1
   10     8    11    1
   11    11    12    1
   12    11    13    1
   13    11    14    1
   14    14    15    1
   15    14    16    1
   16    14    17    1
   17    17    18    1
   18    17    19    1
   19    17    20    1
   20    20    21    1
   21    20    22    1
   22    22    23    1
   23    22    24    1
   24    22    25    1
   25    20    26    1
   26    26    27    1
   27    26    28    1
   28    26    29    1
@<TRIPOS>SUBSTRUCTURE
       1 MOL1            1 RESIDUE      1      MOL     
@<SCITEGIC>MOL_PROPERTY
VM2 Rank
SciTegic.value.IntegerValue
130

@<SCITEGIC>MOL_PROPERTY
Conf_Id
SciTegic.value.IntegerValue
1301

@<SCITEGIC>MOL_PROPERTY
Probability
SciTegic.value.DoubleValue
0.01

@<SCITEGIC>MOL_PROPERTY
Sum Probability
SciTegic.value.DoubleValue
99.81

@<SCITEGIC>MOL_PROPERTY
Delta G
SciTegic.value.DoubleValue
4.169

@<SCITEGIC>MOL_PROPERTY
G
SciTegic.value.DoubleValue
37.871

@<SCITEGIC>MOL_PROPERTY
E
SciTegic.value.DoubleValue
-0.035

@<SCITEGIC>MOL_PROPERTY
-TS
SciTegic.value.DoubleValue
37.906

@<SCITEGIC>MOL_PROPERTY
U+W
SciTegic.value.DoubleValue
-24.179

@<SCITEGIC>MOL_PROPERTY
U
SciTegic.value.DoubleValue
28.057

@<SCITEGIC>MOL_PROPERTY
W
SciTegic.value.DoubleValue
-52.237

@<SCITEGIC>MOL_PROPERTY
W(PB)
SciTegic.value.DoubleValue
-54.697

@<SCITEGIC>MOL_PROPERTY
W(SA)
SciTegic.value.DoubleValue
2.460

@<SCITEGIC>MOL_PROPERTY
Valence
SciTegic.value.DoubleValue
6.543

@<SCITEGIC>MOL_PROPERTY
Coulomb
SciTegic.value.DoubleValue
20.387

@<SCITEGIC>MOL_PROPERTY
VdW
SciTegic.value.DoubleValue
1.127

@<SCITEGIC>MOL_PROPERTY
VdW6
SciTegic.value.DoubleValue
-10.342

@<SCITEGIC>MOL_PROPERTY
VdW12
SciTegic.value.DoubleValue
11.469

@<SCITEGIC>MOL_PROPERTY
Bond
SciTegic.value.DoubleValue
0.308

@<SCITEGIC>MOL_PROPERTY
Angle
SciTegic.value.DoubleValue
1.938

@<SCITEGIC>MOL_PROPERTY
Pdih
SciTegic.value.DoubleValue
4.297

@<SCITEGIC>MOL_PROPERTY
Idih
SciTegic.value.DoubleValue
0.000

@<SCITEGIC>MOL_PROPERTY
Tether
SciTegic.value.DoubleValue
0.000

@<TRIPOS>MOLECULE
guest-s15_vm2.mol2 : vm2 ligand conformer 131
          29          28           1
SMALL
USER_CHARGES
 
@<TRIPOS>ATOM
       1    C1      18.125187   19.276010   20.443193 C.3        1 MOL1        -0.2426
       2    H1      17.969571   18.189709   20.415302 H          1 MOL1         0.0959
       3    H2      17.690775   19.662719   21.373150 H          1 MOL1         0.0959
       4    H3      17.563678   19.716899   19.609366 H          1 MOL1         0.0959
       5    C2      19.626325   19.625523   20.328063 C.3        1 MOL1        -0.1410
       6    H4      19.758582   20.714497   20.394152 H          1 MOL1         0.0948
       7    H5      19.981871   19.332821   19.330232 H          1 MOL1         0.0948
       8    C3      20.505555   18.925664   21.392351 C.3        1 MOL1        -0.1435
       9    H6      20.385147   17.836683   21.309306 H          1 MOL1         0.0948
      10    H7      21.559663   19.138318   21.166771 H          1 MOL1         0.0948
      11    C4      20.196315   19.376083   22.839991 C.3        1 MOL1        -0.1435
      12    H8      19.163007   19.106284   23.083773 H          1 MOL1         0.0948
      13    H9      20.278860   20.469539   22.907592 H          1 MOL1         0.0948
      14    C5      21.155042   18.717351   23.860204 C.3        1 MOL1        -0.1435
      15    H10     21.003423   17.629636   23.860186 H          1 MOL1         0.0948
      16    H11     22.188816   18.872462   23.521945 H          1 MOL1         0.0948
      17    C6      21.043803   19.271405   25.308724 C.3        1 MOL1        -0.1500
      18    H12     21.322812   20.333206   25.312923 H          1 MOL1         0.0948
      19    H13     21.806681   18.768202   25.917265 H          1 MOL1         0.0948
      20    C7      19.684302   19.106212   26.034848 C.3        1 MOL1         0.1162
      21    H14     19.859537   19.340915   27.089319 H          1 MOL1         0.0910
      22    C8      19.153108   17.663757   25.968832 C.3        1 MOL1        -0.2491
      23    H15     18.865179   17.384208   24.948353 H          1 MOL1         0.0959
      24    H16     19.912670   16.953840   26.319018 H          1 MOL1         0.0959
      25    H17     18.270264   17.549846   26.609695 H          1 MOL1         0.0959
      26    N1      18.646363   20.093996   25.577794 N.4        1 MOL1        -0.5987
      27    H18     18.417642   19.961951   24.590511 H          1 MOL1         0.3605
      28    H19     18.971401   21.058221   25.693630 H          1 MOL1         0.3605
      29    H20     17.778526   19.997792   26.112997 H          1 MOL1         0.3605
@<TRIPOS>BOND
    1     1     2    1
    2     1     3    1
    3     1     4    1
    4     1     5    1
    5     5     6    1
    6     5     7    1
    7     5     8    1
    8     8     9    1
    9     8    10    1
   10     8    11    1
   11    11    12    1
   12    11    13    1
   13    11    14    1
   14    14    15    1
   15    14    16    1
   16    14    17    1
   17    17    18    1
   18    17    19    1
   19    17    20    1
   20    20    21    1
   21    20    22    1
   22    22    23    1
   23    22    24    1
   24    22    25    1
   25    20    26    1
   26    26    27    1
   27    26    28    1
   28    26    29    1
@<TRIPOS>SUBSTRUCTURE
       1 MOL1            1 RESIDUE      1      MOL     
@<SCITEGIC>MOL_PROPERTY
VM2 Rank
SciTegic.value.IntegerValue
131

@<SCITEGIC>MOL_PROPERTY
Conf_Id
SciTegic.value.IntegerValue
1523

@<SCITEGIC>MOL_PROPERTY
Probability
SciTegic.value.DoubleValue
0.01

@<SCITEGIC>MOL_PROPERTY
Sum Probability
SciTegic.value.DoubleValue
99.81

@<SCITEGIC>MOL_PROPERTY
Delta G
SciTegic.value.DoubleValue
4.207

@<SCITEGIC>MOL_PROPERTY
G
SciTegic.value.DoubleValue
37.910

@<SCITEGIC>MOL_PROPERTY
E
SciTegic.value.DoubleValue
-0.174

@<SCITEGIC>MOL_PROPERTY
-TS
SciTegic.value.DoubleValue
38.083

@<SCITEGIC>MOL_PROPERTY
U+W
SciTegic.value.DoubleValue
-24.318

@<SCITEGIC>MOL_PROPERTY
U
SciTegic.value.DoubleValue
28.045

@<SCITEGIC>MOL_PROPERTY
W
SciTegic.value.DoubleValue
-52.364

@<SCITEGIC>MOL_PROPERTY
W(PB)
SciTegic.value.DoubleValue
-54.808

@<SCITEGIC>MOL_PROPERTY
W(SA)
SciTegic.value.DoubleValue
2.445

@<SCITEGIC>MOL_PROPERTY
Valence
SciTegic.value.DoubleValue
5.555

@<SCITEGIC>MOL_PROPERTY
Coulomb
SciTegic.value.DoubleValue
21.509

@<SCITEGIC>MOL_PROPERTY
VdW
SciTegic.value.DoubleValue
0.981

@<SCITEGIC>MOL_PROPERTY
VdW6
SciTegic.value.DoubleValue
-10.796

@<SCITEGIC>MOL_PROPERTY
VdW12
SciTegic.value.DoubleValue
11.777

@<SCITEGIC>MOL_PROPERTY
Bond
SciTegic.value.DoubleValue
0.331

@<SCITEGIC>MOL_PROPERTY
Angle
SciTegic.value.DoubleValue
2.400

@<SCITEGIC>MOL_PROPERTY
Pdih
SciTegic.value.DoubleValue
2.824

@<SCITEGIC>MOL_PROPERTY
Idih
SciTegic.value.DoubleValue
0.000

@<SCITEGIC>MOL_PROPERTY
Tether
SciTegic.value.DoubleValue
0.000

@<TRIPOS>MOLECULE
guest-s15_vm2.mol2 : vm2 ligand conformer 132
          29          28           1
SMALL
USER_CHARGES
 
@<TRIPOS>ATOM
       1    C1      20.225496   21.044855   20.912961 C.3        1 MOL1        -0.2426
       2    H1      21.019887   21.357636   21.603109 H          1 MOL1         0.0959
       3    H2      20.692668   20.753076   19.963322 H          1 MOL1         0.0959
       4    H3      19.584778   21.915018   20.719850 H          1 MOL1         0.0959
       5    C2      19.401758   19.882787   21.506102 C.3        1 MOL1        -0.1410
       6    H4      18.595657   19.613717   20.809379 H          1 MOL1         0.0948
       7    H5      18.918701   20.224328   22.429408 H          1 MOL1         0.0948
       8    C3      20.284147   18.642790   21.782384 C.3        1 MOL1        -0.1435
       9    H6      20.757951   18.333196   20.840642 H          1 MOL1         0.0948
      10    H7      21.110392   18.902496   22.455782 H          1 MOL1         0.0948
      11    C4      19.496253   17.434738   22.347837 C.3        1 MOL1        -0.1435
      12    H8      20.182000   16.580803   22.435715 H          1 MOL1         0.0948
      13    H9      18.740063   17.132186   21.610363 H          1 MOL1         0.0948
      14    C5      18.793749   17.652198   23.715557 C.3        1 MOL1        -0.1435
      15    H10     18.006886   18.411374   23.628331 H          1 MOL1         0.0948
      16    H11     18.266470   16.719794   23.960240 H          1 MOL1         0.0948
      17    C6      19.753526   17.974786   24.893242 C.3        1 MOL1        -0.1500
      18    H12     20.679637   17.398000   24.768935 H          1 MOL1         0.0948
      19    H13     19.300891   17.617021   25.827602 H          1 MOL1         0.0948
      20    C7      20.087433   19.474993   25.059039 C.3        1 MOL1         0.1162
      21    H14     20.436297   19.868219   24.101449 H          1 MOL1         0.0910
      22    C8      21.211565   19.661024   26.090083 C.3        1 MOL1        -0.2491
      23    H15     21.472226   20.721577   26.193444 H          1 MOL1         0.0959
      24    H16     20.912304   19.284514   27.076302 H          1 MOL1         0.0959
      25    H17     22.117210   19.124961   25.779945 H          1 MOL1         0.0959
      26    N1      18.882072   20.287829   25.446796 N.4        1 MOL1        -0.5987
      27    H18     18.508792   19.989208   26.351878 H          1 MOL1         0.3605
      28    H19     18.130256   20.196198   24.758889 H          1 MOL1         0.3605
      29    H20     19.110976   21.283003   25.523948 H          1 MOL1         0.3605
@<TRIPOS>BOND
    1     1     2    1
    2     1     3    1
    3     1     4    1
    4     1     5    1
    5     5     6    1
    6     5     7    1
    7     5     8    1
    8     8     9    1
    9     8    10    1
   10     8    11    1
   11    11    12    1
   12    11    13    1
   13    11    14    1
   14    14    15    1
   15    14    16    1
   16    14    17    1
   17    17    18    1
   18    17    19    1
   19    17    20    1
   20    20    21    1
   21    20    22    1
   22    22    23    1
   23    22    24    1
   24    22    25    1
   25    20    26    1
   26    26    27    1
   27    26    28    1
   28    26    29    1
@<TRIPOS>SUBSTRUCTURE
       1 MOL1            1 RESIDUE      1      MOL     
@<SCITEGIC>MOL_PROPERTY
VM2 Rank
SciTegic.value.IntegerValue
132

@<SCITEGIC>MOL_PROPERTY
Conf_Id
SciTegic.value.IntegerValue
1053

@<SCITEGIC>MOL_PROPERTY
Probability
SciTegic.value.DoubleValue
0.01

@<SCITEGIC>MOL_PROPERTY
Sum Probability
SciTegic.value.DoubleValue
99.82

@<SCITEGIC>MOL_PROPERTY
Delta G
SciTegic.value.DoubleValue
4.227

@<SCITEGIC>MOL_PROPERTY
G
SciTegic.value.DoubleValue
37.929

@<SCITEGIC>MOL_PROPERTY
E
SciTegic.value.DoubleValue
-0.489

@<SCITEGIC>MOL_PROPERTY
-TS
SciTegic.value.DoubleValue
38.419

@<SCITEGIC>MOL_PROPERTY
U+W
SciTegic.value.DoubleValue
-24.634

@<SCITEGIC>MOL_PROPERTY
U
SciTegic.value.DoubleValue
28.071

@<SCITEGIC>MOL_PROPERTY
W
SciTegic.value.DoubleValue
-52.705

@<SCITEGIC>MOL_PROPERTY
W(PB)
SciTegic.value.DoubleValue
-55.097

@<SCITEGIC>MOL_PROPERTY
W(SA)
SciTegic.value.DoubleValue
2.392

@<SCITEGIC>MOL_PROPERTY
Valence
SciTegic.value.DoubleValue
6.291

@<SCITEGIC>MOL_PROPERTY
Coulomb
SciTegic.value.DoubleValue
21.484

@<SCITEGIC>MOL_PROPERTY
VdW
SciTegic.value.DoubleValue
0.295

@<SCITEGIC>MOL_PROPERTY
VdW6
SciTegic.value.DoubleValue
-11.563

@<SCITEGIC>MOL_PROPERTY
VdW12
SciTegic.value.DoubleValue
11.858

@<SCITEGIC>MOL_PROPERTY
Bond
SciTegic.value.DoubleValue
0.313

@<SCITEGIC>MOL_PROPERTY
Angle
SciTegic.value.DoubleValue
2.279

@<SCITEGIC>MOL_PROPERTY
Pdih
SciTegic.value.DoubleValue
3.700

@<SCITEGIC>MOL_PROPERTY
Idih
SciTegic.value.DoubleValue
0.000

@<SCITEGIC>MOL_PROPERTY
Tether
SciTegic.value.DoubleValue
0.000

@<TRIPOS>MOLECULE
guest-s15_vm2.mol2 : vm2 ligand conformer 133
          29          28           1
SMALL
USER_CHARGES
 
@<TRIPOS>ATOM
       1    C1      19.377398   20.700368   20.001528 C.3        1 MOL1        -0.2426
       2    H1      19.801376   20.266577   19.086497 H          1 MOL1         0.0959
       3    H2      18.283065   20.656605   19.925640 H          1 MOL1         0.0959
       4    H3      19.670745   21.757465   20.040247 H          1 MOL1         0.0959
       5    C2      19.876426   19.950291   21.254573 C.3        1 MOL1        -0.1410
       6    H4      19.460903   20.436824   22.146628 H          1 MOL1         0.0948
       7    H5      20.970240   20.034131   21.317824 H          1 MOL1         0.0948
       8    C3      19.466275   18.460298   21.228057 C.3        1 MOL1        -0.1435
       9    H6      18.370332   18.383521   21.242490 H          1 MOL1         0.0948
      10    H7      19.790442   18.018357   20.275762 H          1 MOL1         0.0948
      11    C4      20.056933   17.611768   22.383693 C.3        1 MOL1        -0.1435
      12    H8      21.153497   17.593894   22.317322 H          1 MOL1         0.0948
      13    H9      19.734753   16.572829   22.228020 H          1 MOL1         0.0948
      14    C5      19.609023   18.049290   23.802587 C.3        1 MOL1        -0.1435
      15    H10     18.621069   18.524839   23.748924 H          1 MOL1         0.0948
      16    H11     19.479293   17.144603   24.411159 H          1 MOL1         0.0948
      17    C6      20.636195   18.977311   24.508392 C.3        1 MOL1        -0.1500
      18    H12     20.876473   19.831980   23.866506 H          1 MOL1         0.0948
      19    H13     21.580070   18.431896   24.639708 H          1 MOL1         0.0948
      20    C7      20.183237   19.518693   25.884753 C.3        1 MOL1         0.1162
      21    H14     20.987080   20.157475   26.263636 H          1 MOL1         0.0910
      22    C8      19.963778   18.390944   26.908098 C.3        1 MOL1        -0.2491
      23    H15     19.104660   17.763609   26.642150 H          1 MOL1         0.0959
      24    H16     20.850810   17.749086   26.977123 H          1 MOL1         0.0959
      25    H17     19.777304   18.808825   27.904990 H          1 MOL1         0.0959
      26    N1      18.966736   20.397038   25.782318 N.4        1 MOL1        -0.5987
      27    H18     18.157961   19.871972   25.440729 H          1 MOL1         0.3605
      28    H19     19.121519   21.179774   25.140630 H          1 MOL1         0.3605
      29    H20     18.714211   20.792584   26.692529 H          1 MOL1         0.3605
@<TRIPOS>BOND
    1     1     2    1
    2     1     3    1
    3     1     4    1
    4     1     5    1
    5     5     6    1
    6     5     7    1
    7     5     8    1
    8     8     9    1
    9     8    10    1
   10     8    11    1
   11    11    12    1
   12    11    13    1
   13    11    14    1
   14    14    15    1
   15    14    16    1
   16    14    17    1
   17    17    18    1
   18    17    19    1
   19    17    20    1
   20    20    21    1
   21    20    22    1
   22    22    23    1
   23    22    24    1
   24    22    25    1
   25    20    26    1
   26    26    27    1
   27    26    28    1
   28    26    29    1
@<TRIPOS>SUBSTRUCTURE
       1 MOL1            1 RESIDUE      1      MOL     
@<SCITEGIC>MOL_PROPERTY
VM2 Rank
SciTegic.value.IntegerValue
133

@<SCITEGIC>MOL_PROPERTY
Conf_Id
SciTegic.value.IntegerValue
1532

@<SCITEGIC>MOL_PROPERTY
Probability
SciTegic.value.DoubleValue
0.01

@<SCITEGIC>MOL_PROPERTY
Sum Probability
SciTegic.value.DoubleValue
99.83

@<SCITEGIC>MOL_PROPERTY
Delta G
SciTegic.value.DoubleValue
4.241

@<SCITEGIC>MOL_PROPERTY
G
SciTegic.value.DoubleValue
37.943

@<SCITEGIC>MOL_PROPERTY
E
SciTegic.value.DoubleValue
-0.002

@<SCITEGIC>MOL_PROPERTY
-TS
SciTegic.value.DoubleValue
37.945

@<SCITEGIC>MOL_PROPERTY
U+W
SciTegic.value.DoubleValue
-24.147

@<SCITEGIC>MOL_PROPERTY
U
SciTegic.value.DoubleValue
28.637

@<SCITEGIC>MOL_PROPERTY
W
SciTegic.value.DoubleValue
-52.784

@<SCITEGIC>MOL_PROPERTY
W(PB)
SciTegic.value.DoubleValue
-55.214

@<SCITEGIC>MOL_PROPERTY
W(SA)
SciTegic.value.DoubleValue
2.430

@<SCITEGIC>MOL_PROPERTY
Valence
SciTegic.value.DoubleValue
6.737

@<SCITEGIC>MOL_PROPERTY
Coulomb
SciTegic.value.DoubleValue
20.768

@<SCITEGIC>MOL_PROPERTY
VdW
SciTegic.value.DoubleValue
1.133

@<SCITEGIC>MOL_PROPERTY
VdW6
SciTegic.value.DoubleValue
-10.383

@<SCITEGIC>MOL_PROPERTY
VdW12
SciTegic.value.DoubleValue
11.516

@<SCITEGIC>MOL_PROPERTY
Bond
SciTegic.value.DoubleValue
0.321

@<SCITEGIC>MOL_PROPERTY
Angle
SciTegic.value.DoubleValue
1.946

@<SCITEGIC>MOL_PROPERTY
Pdih
SciTegic.value.DoubleValue
4.470

@<SCITEGIC>MOL_PROPERTY
Idih
SciTegic.value.DoubleValue
0.000

@<SCITEGIC>MOL_PROPERTY
Tether
SciTegic.value.DoubleValue
0.000

@<TRIPOS>MOLECULE
guest-s15_vm2.mol2 : vm2 ligand conformer 134
          29          28           1
SMALL
USER_CHARGES
 
@<TRIPOS>ATOM
       1    C1      18.668891   19.221805   20.113964 C.3        1 MOL1        -0.2426
       2    H1      18.564163   18.129453   20.139112 H          1 MOL1         0.0959
       3    H2      18.096955   19.647666   20.947609 H          1 MOL1         0.0959
       4    H3      18.210497   19.581950   19.183898 H          1 MOL1         0.0959
       5    C2      20.153691   19.640574   20.180987 C.3        1 MOL1        -0.1410
       6    H4      20.221869   20.737022   20.210050 H          1 MOL1         0.0948
       7    H5      20.649786   19.329458   19.251039 H          1 MOL1         0.0948
       8    C3      20.932825   19.040144   21.378886 C.3        1 MOL1        -0.1435
       9    H6      20.955924   17.944279   21.303651 H          1 MOL1         0.0948
      10    H7      21.978617   19.365047   21.288697 H          1 MOL1         0.0948
      11    C4      20.410509   19.473726   22.773248 C.3        1 MOL1        -0.1435
      12    H8      19.939459   20.464050   22.706785 H          1 MOL1         0.0948
      13    H9      21.275323   19.591244   23.439713 H          1 MOL1         0.0948
      14    C5      19.432968   18.450990   23.407078 C.3        1 MOL1        -0.1435
      15    H10     18.611447   18.238018   22.713031 H          1 MOL1         0.0948
      16    H11     19.947789   17.493053   23.557971 H          1 MOL1         0.0948
      17    C6      18.822418   18.941397   24.745244 C.3        1 MOL1        -0.1500
      18    H12     18.135647   18.174382   25.127053 H          1 MOL1         0.0948
      19    H13     18.206028   19.826501   24.539739 H          1 MOL1         0.0948
      20    C7      19.850827   19.298221   25.844320 C.3        1 MOL1         0.1162
      21    H14     20.526809   20.062621   25.449983 H          1 MOL1         0.0910
      22    C8      20.688468   18.079390   26.270166 C.3        1 MOL1        -0.2491
      23    H15     21.296703   17.704688   25.438706 H          1 MOL1         0.0959
      24    H16     21.376768   18.347620   27.081069 H          1 MOL1         0.0959
      25    H17     20.047888   17.261846   26.623595 H          1 MOL1         0.0959
      26    N1      19.175404   19.909753   27.040107 N.4        1 MOL1        -0.5987
      27    H18     18.522009   19.253708   27.476464 H          1 MOL1         0.3605
      28    H19     18.645697   20.748632   26.786053 H          1 MOL1         0.3605
      29    H20     19.855890   20.183807   27.754606 H          1 MOL1         0.3605
@<TRIPOS>BOND
    1     1     2    1
    2     1     3    1
    3     1     4    1
    4     1     5    1
    5     5     6    1
    6     5     7    1
    7     5     8    1
    8     8     9    1
    9     8    10    1
   10     8    11    1
   11    11    12    1
   12    11    13    1
   13    11    14    1
   14    14    15    1
   15    14    16    1
   16    14    17    1
   17    17    18    1
   18    17    19    1
   19    17    20    1
   20    20    21    1
   21    20    22    1
   22    22    23    1
   23    22    24    1
   24    22    25    1
   25    20    26    1
   26    26    27    1
   27    26    28    1
   28    26    29    1
@<TRIPOS>SUBSTRUCTURE
       1 MOL1            1 RESIDUE      1      MOL     
@<SCITEGIC>MOL_PROPERTY
VM2 Rank
SciTegic.value.IntegerValue
134

@<SCITEGIC>MOL_PROPERTY
Conf_Id
SciTegic.value.IntegerValue
668

@<SCITEGIC>MOL_PROPERTY
Probability
SciTegic.value.DoubleValue
0.01

@<SCITEGIC>MOL_PROPERTY
Sum Probability
SciTegic.value.DoubleValue
99.84

@<SCITEGIC>MOL_PROPERTY
Delta G
SciTegic.value.DoubleValue
4.255

@<SCITEGIC>MOL_PROPERTY
G
SciTegic.value.DoubleValue
37.957

@<SCITEGIC>MOL_PROPERTY
E
SciTegic.value.DoubleValue
-0.104

@<SCITEGIC>MOL_PROPERTY
-TS
SciTegic.value.DoubleValue
38.061

@<SCITEGIC>MOL_PROPERTY
U+W
SciTegic.value.DoubleValue
-24.249

@<SCITEGIC>MOL_PROPERTY
U
SciTegic.value.DoubleValue
28.141

@<SCITEGIC>MOL_PROPERTY
W
SciTegic.value.DoubleValue
-52.390

@<SCITEGIC>MOL_PROPERTY
W(PB)
SciTegic.value.DoubleValue
-54.810

@<SCITEGIC>MOL_PROPERTY
W(SA)
SciTegic.value.DoubleValue
2.420

@<SCITEGIC>MOL_PROPERTY
Valence
SciTegic.value.DoubleValue
6.969

@<SCITEGIC>MOL_PROPERTY
Coulomb
SciTegic.value.DoubleValue
20.046

@<SCITEGIC>MOL_PROPERTY
VdW
SciTegic.value.DoubleValue
1.125

@<SCITEGIC>MOL_PROPERTY
VdW6
SciTegic.value.DoubleValue
-10.615

@<SCITEGIC>MOL_PROPERTY
VdW12
SciTegic.value.DoubleValue
11.740

@<SCITEGIC>MOL_PROPERTY
Bond
SciTegic.value.DoubleValue
0.316

@<SCITEGIC>MOL_PROPERTY
Angle
SciTegic.value.DoubleValue
2.134

@<SCITEGIC>MOL_PROPERTY
Pdih
SciTegic.value.DoubleValue
4.519

@<SCITEGIC>MOL_PROPERTY
Idih
SciTegic.value.DoubleValue
0.000

@<SCITEGIC>MOL_PROPERTY
Tether
SciTegic.value.DoubleValue
0.000

@<TRIPOS>MOLECULE
guest-s15_vm2.mol2 : vm2 ligand conformer 135
          29          28           1
SMALL
USER_CHARGES
 
@<TRIPOS>ATOM
       1    C1      18.650858   20.378313   20.825390 C.3        1 MOL1        -0.2426
       2    H1      17.913295   20.123051   21.597194 H          1 MOL1         0.0959
       3    H2      19.375776   21.082458   21.251564 H          1 MOL1         0.0959
       4    H3      18.124105   20.900982   20.016569 H          1 MOL1         0.0959
       5    C2      19.351122   19.113402   20.283438 C.3        1 MOL1        -0.1410
       6    H4      20.134601   19.406900   19.570920 H          1 MOL1         0.0948
       7    H5      18.621211   18.527000   19.708047 H          1 MOL1         0.0948
       8    C3      19.958492   18.200713   21.379101 C.3        1 MOL1        -0.1435
       9    H6      19.161368   17.821180   22.029762 H          1 MOL1         0.0948
      10    H7      20.372294   17.315754   20.876299 H          1 MOL1         0.0948
      11    C4      21.095856   18.853678   22.211480 C.3        1 MOL1        -0.1435
      12    H8      21.625650   19.588421   21.589820 H          1 MOL1         0.0948
      13    H9      21.841874   18.084707   22.454991 H          1 MOL1         0.0948
      14    C5      20.642042   19.526572   23.533465 C.3        1 MOL1        -0.1435
      15    H10     21.487630   20.102693   23.934033 H          1 MOL1         0.0948
      16    H11     19.845280   20.251235   23.333695 H          1 MOL1         0.0948
      17    C6      20.180323   18.511683   24.611191 C.3        1 MOL1        -0.1500
      18    H12     20.964511   17.754821   24.745294 H          1 MOL1         0.0948
      19    H13     19.283419   17.977312   24.275026 H          1 MOL1         0.0948
      20    C7      19.893975   19.176742   25.974744 C.3        1 MOL1         0.1162
      21    H14     20.791272   19.719994   26.286765 H          1 MOL1         0.0910
      22    C8      19.582599   18.109200   27.035737 C.3        1 MOL1        -0.2491
      23    H15     20.419313   17.407152   27.139600 H          1 MOL1         0.0959
      24    H16     19.414101   18.573050   28.015453 H          1 MOL1         0.0959
      25    H17     18.685899   17.535242   26.770340 H          1 MOL1         0.0959
      26    N1      18.780733   20.185698   25.899454 N.4        1 MOL1        -0.5987
      27    H18     18.993961   20.927353   25.227092 H          1 MOL1         0.3605
      28    H19     18.618381   20.631573   26.806932 H          1 MOL1         0.3605
      29    H20     17.901345   19.749311   25.610124 H          1 MOL1         0.3605
@<TRIPOS>BOND
    1     1     2    1
    2     1     3    1
    3     1     4    1
    4     1     5    1
    5     5     6    1
    6     5     7    1
    7     5     8    1
    8     8     9    1
    9     8    10    1
   10     8    11    1
   11    11    12    1
   12    11    13    1
   13    11    14    1
   14    14    15    1
   15    14    16    1
   16    14    17    1
   17    17    18    1
   18    17    19    1
   19    17    20    1
   20    20    21    1
   21    20    22    1
   22    22    23    1
   23    22    24    1
   24    22    25    1
   25    20    26    1
   26    26    27    1
   27    26    28    1
   28    26    29    1
@<TRIPOS>SUBSTRUCTURE
       1 MOL1            1 RESIDUE      1      MOL     
@<SCITEGIC>MOL_PROPERTY
VM2 Rank
SciTegic.value.IntegerValue
135

@<SCITEGIC>MOL_PROPERTY
Conf_Id
SciTegic.value.IntegerValue
1360

@<SCITEGIC>MOL_PROPERTY
Probability
SciTegic.value.DoubleValue
0.01

@<SCITEGIC>MOL_PROPERTY
Sum Probability
SciTegic.value.DoubleValue
99.85

@<SCITEGIC>MOL_PROPERTY
Delta G
SciTegic.value.DoubleValue
4.273

@<SCITEGIC>MOL_PROPERTY
G
SciTegic.value.DoubleValue
37.975

@<SCITEGIC>MOL_PROPERTY
E
SciTegic.value.DoubleValue
0.245

@<SCITEGIC>MOL_PROPERTY
-TS
SciTegic.value.DoubleValue
37.730

@<SCITEGIC>MOL_PROPERTY
U+W
SciTegic.value.DoubleValue
-23.900

@<SCITEGIC>MOL_PROPERTY
U
SciTegic.value.DoubleValue
28.595

@<SCITEGIC>MOL_PROPERTY
W
SciTegic.value.DoubleValue
-52.494

@<SCITEGIC>MOL_PROPERTY
W(PB)
SciTegic.value.DoubleValue
-54.943

@<SCITEGIC>MOL_PROPERTY
W(SA)
SciTegic.value.DoubleValue
2.449

@<SCITEGIC>MOL_PROPERTY
Valence
SciTegic.value.DoubleValue
6.843

@<SCITEGIC>MOL_PROPERTY
Coulomb
SciTegic.value.DoubleValue
20.557

@<SCITEGIC>MOL_PROPERTY
VdW
SciTegic.value.DoubleValue
1.194

@<SCITEGIC>MOL_PROPERTY
VdW6
SciTegic.value.DoubleValue
-10.198

@<SCITEGIC>MOL_PROPERTY
VdW12
SciTegic.value.DoubleValue
11.392

@<SCITEGIC>MOL_PROPERTY
Bond
SciTegic.value.DoubleValue
0.333

@<SCITEGIC>MOL_PROPERTY
Angle
SciTegic.value.DoubleValue
1.972

@<SCITEGIC>MOL_PROPERTY
Pdih
SciTegic.value.DoubleValue
4.539

@<SCITEGIC>MOL_PROPERTY
Idih
SciTegic.value.DoubleValue
0.000

@<SCITEGIC>MOL_PROPERTY
Tether
SciTegic.value.DoubleValue
0.000

@<TRIPOS>MOLECULE
guest-s15_vm2.mol2 : vm2 ligand conformer 136
          29          28           1
SMALL
USER_CHARGES
 
@<TRIPOS>ATOM
       1    C1      20.598706   20.631218   20.309460 C.3        1 MOL1        -0.2426
       2    H1      19.743170   20.947157   19.698349 H          1 MOL1         0.0959
       3    H2      20.806803   21.422250   21.041723 H          1 MOL1         0.0959
       4    H3      21.471106   20.545509   19.648709 H          1 MOL1         0.0959
       5    C2      20.313123   19.287036   21.011831 C.3        1 MOL1        -0.1410
       6    H4      21.204566   18.985668   21.576059 H          1 MOL1         0.0948
       7    H5      20.140562   18.510190   20.253969 H          1 MOL1         0.0948
       8    C3      19.084740   19.384489   21.947721 C.3        1 MOL1        -0.1435
       9    H6      19.255516   20.159525   22.702299 H          1 MOL1         0.0948
      10    H7      18.224354   19.728031   21.357004 H          1 MOL1         0.0948
      11    C4      18.703202   18.036383   22.614210 C.3        1 MOL1        -0.1435
      12    H8      18.566354   17.292453   21.817218 H          1 MOL1         0.0948
      13    H9      17.719804   18.133539   23.094271 H          1 MOL1         0.0948
      14    C5      19.722133   17.472572   23.643086 C.3        1 MOL1        -0.1435
      15    H10     19.604982   16.380189   23.657392 H          1 MOL1         0.0948
      16    H11     20.754602   17.640802   23.316233 H          1 MOL1         0.0948
      17    C6      19.518271   17.967649   25.101117 C.3        1 MOL1        -0.1500
      18    H12     20.203993   17.415899   25.757752 H          1 MOL1         0.0948
      19    H13     18.506267   17.687813   25.422083 H          1 MOL1         0.0948
      20    C7      19.711592   19.482012   25.340211 C.3        1 MOL1         0.1162
      21    H14     19.025854   20.025970   24.685977 H          1 MOL1         0.0910
      22    C8      21.152013   19.934877   25.041279 C.3        1 MOL1        -0.2491
      23    H15     21.874997   19.389012   25.660065 H          1 MOL1         0.0959
      24    H16     21.412428   19.773059   23.989508 H          1 MOL1         0.0959
      25    H17     21.270342   21.006215   25.244818 H          1 MOL1         0.0959
      26    N1      19.332220   19.859765   26.745084 N.4        1 MOL1        -0.5987
      27    H18     19.929742   19.392077   27.432061 H          1 MOL1         0.3605
      28    H19     18.363031   19.604510   26.955708 H          1 MOL1         0.3605
      29    H20     19.422118   20.868233   26.898562 H          1 MOL1         0.3605
@<TRIPOS>BOND
    1     1     2    1
    2     1     3    1
    3     1     4    1
    4     1     5    1
    5     5     6    1
    6     5     7    1
    7     5     8    1
    8     8     9    1
    9     8    10    1
   10     8    11    1
   11    11    12    1
   12    11    13    1
   13    11    14    1
   14    14    15    1
   15    14    16    1
   16    14    17    1
   17    17    18    1
   18    17    19    1
   19    17    20    1
   20    20    21    1
   21    20    22    1
   22    22    23    1
   23    22    24    1
   24    22    25    1
   25    20    26    1
   26    26    27    1
   27    26    28    1
   28    26    29    1
@<TRIPOS>SUBSTRUCTURE
       1 MOL1            1 RESIDUE      1      MOL     
@<SCITEGIC>MOL_PROPERTY
VM2 Rank
SciTegic.value.IntegerValue
136

@<SCITEGIC>MOL_PROPERTY
Conf_Id
SciTegic.value.IntegerValue
1040

@<SCITEGIC>MOL_PROPERTY
Probability
SciTegic.value.DoubleValue
0.01

@<SCITEGIC>MOL_PROPERTY
Sum Probability
SciTegic.value.DoubleValue
99.85

@<SCITEGIC>MOL_PROPERTY
Delta G
SciTegic.value.DoubleValue
4.326

@<SCITEGIC>MOL_PROPERTY
G
SciTegic.value.DoubleValue
38.029

@<SCITEGIC>MOL_PROPERTY
E
SciTegic.value.DoubleValue
-0.424

@<SCITEGIC>MOL_PROPERTY
-TS
SciTegic.value.DoubleValue
38.453

@<SCITEGIC>MOL_PROPERTY
U+W
SciTegic.value.DoubleValue
-24.569

@<SCITEGIC>MOL_PROPERTY
U
SciTegic.value.DoubleValue
28.202

@<SCITEGIC>MOL_PROPERTY
W
SciTegic.value.DoubleValue
-52.771

@<SCITEGIC>MOL_PROPERTY
W(PB)
SciTegic.value.DoubleValue
-55.154

@<SCITEGIC>MOL_PROPERTY
W(SA)
SciTegic.value.DoubleValue
2.383

@<SCITEGIC>MOL_PROPERTY
Valence
SciTegic.value.DoubleValue
7.096

@<SCITEGIC>MOL_PROPERTY
Coulomb
SciTegic.value.DoubleValue
20.449

@<SCITEGIC>MOL_PROPERTY
VdW
SciTegic.value.DoubleValue
0.656

@<SCITEGIC>MOL_PROPERTY
VdW6
SciTegic.value.DoubleValue
-11.271

@<SCITEGIC>MOL_PROPERTY
VdW12
SciTegic.value.DoubleValue
11.927

@<SCITEGIC>MOL_PROPERTY
Bond
SciTegic.value.DoubleValue
0.347

@<SCITEGIC>MOL_PROPERTY
Angle
SciTegic.value.DoubleValue
2.799

@<SCITEGIC>MOL_PROPERTY
Pdih
SciTegic.value.DoubleValue
3.951

@<SCITEGIC>MOL_PROPERTY
Idih
SciTegic.value.DoubleValue
0.000

@<SCITEGIC>MOL_PROPERTY
Tether
SciTegic.value.DoubleValue
0.000

@<TRIPOS>MOLECULE
guest-s15_vm2.mol2 : vm2 ligand conformer 137
          29          28           1
SMALL
USER_CHARGES
 
@<TRIPOS>ATOM
       1    C1      18.479633   18.318733   20.815594 C.3        1 MOL1        -0.2426
       2    H1      18.344050   17.971666   21.847176 H          1 MOL1         0.0959
       3    H2      17.688089   19.044762   20.589159 H          1 MOL1         0.0959
       4    H3      18.340771   17.453123   20.155086 H          1 MOL1         0.0959
       5    C2      19.879110   18.939857   20.606210 C.3        1 MOL1        -0.1410
       6    H4      20.012082   19.158830   19.537577 H          1 MOL1         0.0948
       7    H5      20.653181   18.203465   20.860512 H          1 MOL1         0.0948
       8    C3      20.099731   20.247773   21.408158 C.3        1 MOL1        -0.1435
       9    H6      21.096716   20.644119   21.171385 H          1 MOL1         0.0948
      10    H7      19.384824   21.004726   21.057407 H          1 MOL1         0.0948
      11    C4      19.964441   20.109134   22.946185 C.3        1 MOL1        -0.1435
      12    H8      18.935676   19.820932   23.190228 H          1 MOL1         0.0948
      13    H9      20.129856   21.096980   23.397562 H          1 MOL1         0.0948
      14    C5      20.963105   19.096212   23.559349 C.3        1 MOL1        -0.1435
      15    H10     20.713349   18.078536   23.232940 H          1 MOL1         0.0948
      16    H11     21.963237   19.302360   23.154110 H          1 MOL1         0.0948
      17    C6      21.060231   19.140354   25.110326 C.3        1 MOL1        -0.1500
      18    H12     21.426335   20.126964   25.423078 H          1 MOL1         0.0948
      19    H13     21.840325   18.430723   25.415892 H          1 MOL1         0.0948
      20    C7      19.779358   18.800740   25.914520 C.3        1 MOL1         0.1162
      21    H14     20.086377   18.671859   26.957025 H          1 MOL1         0.0910
      22    C8      19.132362   17.480674   25.460741 C.3        1 MOL1        -0.2491
      23    H15     18.711736   17.561858   24.451535 H          1 MOL1         0.0959
      24    H16     19.867794   16.666625   25.463024 H          1 MOL1         0.0959
      25    H17     18.319913   17.197410   26.141019 H          1 MOL1         0.0959
      26    N1      18.778029   19.922522   25.932917 N.4        1 MOL1        -0.5987
      27    H18     19.188393   20.783867   26.304941 H          1 MOL1         0.3605
      28    H19     17.969672   19.691683   26.517752 H          1 MOL1         0.3605
      29    H20     18.432108   20.126221   24.993047 H          1 MOL1         0.3605
@<TRIPOS>BOND
    1     1     2    1
    2     1     3    1
    3     1     4    1
    4     1     5    1
    5     5     6    1
    6     5     7    1
    7     5     8    1
    8     8     9    1
    9     8    10    1
   10     8    11    1
   11    11    12    1
   12    11    13    1
   13    11    14    1
   14    14    15    1
   15    14    16    1
   16    14    17    1
   17    17    18    1
   18    17    19    1
   19    17    20    1
   20    20    21    1
   21    20    22    1
   22    22    23    1
   23    22    24    1
   24    22    25    1
   25    20    26    1
   26    26    27    1
   27    26    28    1
   28    26    29    1
@<TRIPOS>SUBSTRUCTURE
       1 MOL1            1 RESIDUE      1      MOL     
@<SCITEGIC>MOL_PROPERTY
VM2 Rank
SciTegic.value.IntegerValue
137

@<SCITEGIC>MOL_PROPERTY
Conf_Id
SciTegic.value.IntegerValue
1592

@<SCITEGIC>MOL_PROPERTY
Probability
SciTegic.value.DoubleValue
0.01

@<SCITEGIC>MOL_PROPERTY
Sum Probability
SciTegic.value.DoubleValue
99.86

@<SCITEGIC>MOL_PROPERTY
Delta G
SciTegic.value.DoubleValue
4.333

@<SCITEGIC>MOL_PROPERTY
G
SciTegic.value.DoubleValue
38.035

@<SCITEGIC>MOL_PROPERTY
E
SciTegic.value.DoubleValue
-0.462

@<SCITEGIC>MOL_PROPERTY
-TS
SciTegic.value.DoubleValue
38.497

@<SCITEGIC>MOL_PROPERTY
U+W
SciTegic.value.DoubleValue
-24.606

@<SCITEGIC>MOL_PROPERTY
U
SciTegic.value.DoubleValue
28.222

@<SCITEGIC>MOL_PROPERTY
W
SciTegic.value.DoubleValue
-52.828

@<SCITEGIC>MOL_PROPERTY
W(PB)
SciTegic.value.DoubleValue
-55.186

@<SCITEGIC>MOL_PROPERTY
W(SA)
SciTegic.value.DoubleValue
2.358

@<SCITEGIC>MOL_PROPERTY
Valence
SciTegic.value.DoubleValue
5.955

@<SCITEGIC>MOL_PROPERTY
Coulomb
SciTegic.value.DoubleValue
21.478

@<SCITEGIC>MOL_PROPERTY
VdW
SciTegic.value.DoubleValue
0.789

@<SCITEGIC>MOL_PROPERTY
VdW6
SciTegic.value.DoubleValue
-11.977

@<SCITEGIC>MOL_PROPERTY
VdW12
SciTegic.value.DoubleValue
12.766

@<SCITEGIC>MOL_PROPERTY
Bond
SciTegic.value.DoubleValue
0.372

@<SCITEGIC>MOL_PROPERTY
Angle
SciTegic.value.DoubleValue
2.690

@<SCITEGIC>MOL_PROPERTY
Pdih
SciTegic.value.DoubleValue
2.893

@<SCITEGIC>MOL_PROPERTY
Idih
SciTegic.value.DoubleValue
0.000

@<SCITEGIC>MOL_PROPERTY
Tether
SciTegic.value.DoubleValue
0.000

@<TRIPOS>MOLECULE
guest-s15_vm2.mol2 : vm2 ligand conformer 138
          29          28           1
SMALL
USER_CHARGES
 
@<TRIPOS>ATOM
       1    C1      20.306379   19.752072   19.662755 C.3        1 MOL1        -0.2426
       2    H1      21.317060   20.094133   19.920678 H          1 MOL1         0.0959
       3    H2      20.339113   18.666542   19.509698 H          1 MOL1         0.0959
       4    H3      20.031748   20.210876   18.704106 H          1 MOL1         0.0959
       5    C2      19.290146   20.144228   20.759494 C.3        1 MOL1        -0.1410
       6    H4      18.293796   19.762284   20.496539 H          1 MOL1         0.0948
       7    H5      19.203242   21.239569   20.781137 H          1 MOL1         0.0948
       8    C3      19.684763   19.652282   22.173123 C.3        1 MOL1        -0.1435
       9    H6      20.691866   20.014962   22.420535 H          1 MOL1         0.0948
      10    H7      18.994514   20.114100   22.889930 H          1 MOL1         0.0948
      11    C4      19.623220   18.112723   22.330769 C.3        1 MOL1        -0.1435
      12    H8      20.219996   17.639236   21.541109 H          1 MOL1         0.0948
      13    H9      18.589906   17.772715   22.176968 H          1 MOL1         0.0948
      14    C5      20.143927   17.583445   23.692416 C.3        1 MOL1        -0.1435
      15    H10     20.082592   16.486823   23.661976 H          1 MOL1         0.0948
      16    H11     21.211734   17.811648   23.795875 H          1 MOL1         0.0948
      17    C6      19.346331   18.070162   24.933439 C.3        1 MOL1        -0.1500
      18    H12     19.423608   17.312013   25.724102 H          1 MOL1         0.0948
      19    H13     18.281358   18.117394   24.670567 H          1 MOL1         0.0948
      20    C7      19.798593   19.430841   25.517201 C.3        1 MOL1         0.1162
      21    H14     19.877886   20.157093   24.705282 H          1 MOL1         0.0910
      22    C8      21.168660   19.333091   26.212529 C.3        1 MOL1        -0.2491
      23    H15     21.151400   18.591791   27.021147 H          1 MOL1         0.0959
      24    H16     21.958774   19.051449   25.507666 H          1 MOL1         0.0959
      25    H17     21.450680   20.300551   26.645917 H          1 MOL1         0.0959
      26    N1      18.773981   19.977155   26.472274 N.4        1 MOL1        -0.5987
      27    H18     17.861927   20.093831   26.021359 H          1 MOL1         0.3605
      28    H19     19.053102   20.892286   26.837427 H          1 MOL1         0.3605
      29    H20     18.642877   19.355533   27.274904 H          1 MOL1         0.3605
@<TRIPOS>BOND
    1     1     2    1
    2     1     3    1
    3     1     4    1
    4     1     5    1
    5     5     6    1
    6     5     7    1
    7     5     8    1
    8     8     9    1
    9     8    10    1
   10     8    11    1
   11    11    12    1
   12    11    13    1
   13    11    14    1
   14    14    15    1
   15    14    16    1
   16    14    17    1
   17    17    18    1
   18    17    19    1
   19    17    20    1
   20    20    21    1
   21    20    22    1
   22    22    23    1
   23    22    24    1
   24    22    25    1
   25    20    26    1
   26    26    27    1
   27    26    28    1
   28    26    29    1
@<TRIPOS>SUBSTRUCTURE
       1 MOL1            1 RESIDUE      1      MOL     
@<SCITEGIC>MOL_PROPERTY
VM2 Rank
SciTegic.value.IntegerValue
138

@<SCITEGIC>MOL_PROPERTY
Conf_Id
SciTegic.value.IntegerValue
108

@<SCITEGIC>MOL_PROPERTY
Probability
SciTegic.value.DoubleValue
0.01

@<SCITEGIC>MOL_PROPERTY
Sum Probability
SciTegic.value.DoubleValue
99.87

@<SCITEGIC>MOL_PROPERTY
Delta G
SciTegic.value.DoubleValue
4.336

@<SCITEGIC>MOL_PROPERTY
G
SciTegic.value.DoubleValue
38.039

@<SCITEGIC>MOL_PROPERTY
E
SciTegic.value.DoubleValue
0.299

@<SCITEGIC>MOL_PROPERTY
-TS
SciTegic.value.DoubleValue
37.740

@<SCITEGIC>MOL_PROPERTY
U+W
SciTegic.value.DoubleValue
-23.846

@<SCITEGIC>MOL_PROPERTY
U
SciTegic.value.DoubleValue
28.801

@<SCITEGIC>MOL_PROPERTY
W
SciTegic.value.DoubleValue
-52.647

@<SCITEGIC>MOL_PROPERTY
W(PB)
SciTegic.value.DoubleValue
-55.111

@<SCITEGIC>MOL_PROPERTY
W(SA)
SciTegic.value.DoubleValue
2.464

@<SCITEGIC>MOL_PROPERTY
Valence
SciTegic.value.DoubleValue
7.007

@<SCITEGIC>MOL_PROPERTY
Coulomb
SciTegic.value.DoubleValue
20.617

@<SCITEGIC>MOL_PROPERTY
VdW
SciTegic.value.DoubleValue
1.177

@<SCITEGIC>MOL_PROPERTY
VdW6
SciTegic.value.DoubleValue
-10.509

@<SCITEGIC>MOL_PROPERTY
VdW12
SciTegic.value.DoubleValue
11.686

@<SCITEGIC>MOL_PROPERTY
Bond
SciTegic.value.DoubleValue
0.329

@<SCITEGIC>MOL_PROPERTY
Angle
SciTegic.value.DoubleValue
2.381

@<SCITEGIC>MOL_PROPERTY
Pdih
SciTegic.value.DoubleValue
4.297

@<SCITEGIC>MOL_PROPERTY
Idih
SciTegic.value.DoubleValue
0.000

@<SCITEGIC>MOL_PROPERTY
Tether
SciTegic.value.DoubleValue
0.000

@<TRIPOS>MOLECULE
guest-s15_vm2.mol2 : vm2 ligand conformer 139
          29          28           1
SMALL
USER_CHARGES
 
@<TRIPOS>ATOM
       1    C1      18.700861   18.753412   20.042492 C.3        1 MOL1        -0.2426
       2    H1      18.371619   18.138588   20.889484 H          1 MOL1         0.0959
       3    H2      17.963221   19.551528   19.888101 H          1 MOL1         0.0959
       4    H3      18.697410   18.114731   19.149796 H          1 MOL1         0.0959
       5    C2      20.110421   19.338996   20.283611 C.3        1 MOL1        -0.1410
       6    H4      20.447492   19.837970   19.364346 H          1 MOL1         0.0948
       7    H5      20.825134   18.524253   20.459228 H          1 MOL1         0.0948
       8    C3      20.164103   20.363239   21.446281 C.3        1 MOL1        -0.1435
       9    H6      21.193560   20.734490   21.544034 H          1 MOL1         0.0948
      10    H7      19.555624   21.236141   21.172475 H          1 MOL1         0.0948
      11    C4      19.682677   19.840311   22.824975 C.3        1 MOL1        -0.1435
      12    H8      18.626892   19.544978   22.764651 H          1 MOL1         0.0948
      13    H9      19.733518   20.681901   23.525589 H          1 MOL1         0.0948
      14    C5      20.531391   18.666214   23.374501 C.3        1 MOL1        -0.1435
      15    H10     20.572715   17.866818   22.624079 H          1 MOL1         0.0948
      16    H11     21.567240   19.001567   23.521704 H          1 MOL1         0.0948
      17    C6      19.999964   18.037525   24.689700 C.3        1 MOL1        -0.1500
      18    H12     20.629248   17.163363   24.904078 H          1 MOL1         0.0948
      19    H13     18.985708   17.644962   24.538736 H          1 MOL1         0.0948
      20    C7      20.024765   18.977611   25.918298 C.3        1 MOL1         0.1162
      21    H14     20.930669   19.589394   25.867342 H          1 MOL1         0.0910
      22    C8      20.069357   18.158896   27.219150 C.3        1 MOL1        -0.2491
      23    H15     20.963868   17.524372   27.251290 H          1 MOL1         0.0959
      24    H16     20.101725   18.820274   28.093806 H          1 MOL1         0.0959
      25    H17     19.187596   17.512334   27.311357 H          1 MOL1         0.0959
      26    N1      18.852461   19.919796   25.954991 N.4        1 MOL1        -0.5987
      27    H18     18.914094   20.562153   26.750193 H          1 MOL1         0.3605
      28    H19     17.969329   19.409779   26.041605 H          1 MOL1         0.3605
      29    H20     18.799189   20.484857   25.104512 H          1 MOL1         0.3605
@<TRIPOS>BOND
    1     1     2    1
    2     1     3    1
    3     1     4    1
    4     1     5    1
    5     5     6    1
    6     5     7    1
    7     5     8    1
    8     8     9    1
    9     8    10    1
   10     8    11    1
   11    11    12    1
   12    11    13    1
   13    11    14    1
   14    14    15    1
   15    14    16    1
   16    14    17    1
   17    17    18    1
   18    17    19    1
   19    17    20    1
   20    20    21    1
   21    20    22    1
   22    22    23    1
   23    22    24    1
   24    22    25    1
   25    20    26    1
   26    26    27    1
   27    26    28    1
   28    26    29    1
@<TRIPOS>SUBSTRUCTURE
       1 MOL1            1 RESIDUE      1      MOL     
@<SCITEGIC>MOL_PROPERTY
VM2 Rank
SciTegic.value.IntegerValue
139

@<SCITEGIC>MOL_PROPERTY
Conf_Id
SciTegic.value.IntegerValue
1361

@<SCITEGIC>MOL_PROPERTY
Probability
SciTegic.value.DoubleValue
0.01

@<SCITEGIC>MOL_PROPERTY
Sum Probability
SciTegic.value.DoubleValue
99.88

@<SCITEGIC>MOL_PROPERTY
Delta G
SciTegic.value.DoubleValue
4.368

@<SCITEGIC>MOL_PROPERTY
G
SciTegic.value.DoubleValue
38.070

@<SCITEGIC>MOL_PROPERTY
E
SciTegic.value.DoubleValue
0.332

@<SCITEGIC>MOL_PROPERTY
-TS
SciTegic.value.DoubleValue
37.738

@<SCITEGIC>MOL_PROPERTY
U+W
SciTegic.value.DoubleValue
-23.812

@<SCITEGIC>MOL_PROPERTY
U
SciTegic.value.DoubleValue
28.429

@<SCITEGIC>MOL_PROPERTY
W
SciTegic.value.DoubleValue
-52.242

@<SCITEGIC>MOL_PROPERTY
W(PB)
SciTegic.value.DoubleValue
-54.684

@<SCITEGIC>MOL_PROPERTY
W(SA)
SciTegic.value.DoubleValue
2.442

@<SCITEGIC>MOL_PROPERTY
Valence
SciTegic.value.DoubleValue
6.077

@<SCITEGIC>MOL_PROPERTY
Coulomb
SciTegic.value.DoubleValue
21.131

@<SCITEGIC>MOL_PROPERTY
VdW
SciTegic.value.DoubleValue
1.221

@<SCITEGIC>MOL_PROPERTY
VdW6
SciTegic.value.DoubleValue
-10.542

@<SCITEGIC>MOL_PROPERTY
VdW12
SciTegic.value.DoubleValue
11.763

@<SCITEGIC>MOL_PROPERTY
Bond
SciTegic.value.DoubleValue
0.334

@<SCITEGIC>MOL_PROPERTY
Angle
SciTegic.value.DoubleValue
2.388

@<SCITEGIC>MOL_PROPERTY
Pdih
SciTegic.value.DoubleValue
3.355

@<SCITEGIC>MOL_PROPERTY
Idih
SciTegic.value.DoubleValue
0.000

@<SCITEGIC>MOL_PROPERTY
Tether
SciTegic.value.DoubleValue
0.000

@<TRIPOS>MOLECULE
guest-s15_vm2.mol2 : vm2 ligand conformer 140
          29          28           1
SMALL
USER_CHARGES
 
@<TRIPOS>ATOM
       1    C1      19.507393   18.171966   19.931545 C.3        1 MOL1        -0.2426
       2    H1      20.459453   17.743738   19.592048 H          1 MOL1         0.0959
       3    H2      19.151516   17.573084   20.777117 H          1 MOL1         0.0959
       4    H3      18.782123   18.059770   19.115282 H          1 MOL1         0.0959
       5    C2      19.675877   19.663389   20.304278 C.3        1 MOL1        -0.1410
       6    H4      18.704272   20.103819   20.568016 H          1 MOL1         0.0948
       7    H5      20.017140   20.199801   19.407802 H          1 MOL1         0.0948
       8    C3      20.702014   19.899485   21.442274 C.3        1 MOL1        -0.1435
       9    H6      21.462783   19.106791   21.438651 H          1 MOL1         0.0948
      10    H7      21.244400   20.830141   21.225316 H          1 MOL1         0.0948
      11    C4      20.085660   20.039053   22.858166 C.3        1 MOL1        -0.1435
      12    H8      19.407539   20.903296   22.876753 H          1 MOL1         0.0948
      13    H9      20.900478   20.273709   23.555205 H          1 MOL1         0.0948
      14    C5      19.328448   18.780919   23.349698 C.3        1 MOL1        -0.1435
      15    H10     18.466025   18.601721   22.695222 H          1 MOL1         0.0948
      16    H11     19.972811   17.896723   23.259053 H          1 MOL1         0.0948
      17    C6      18.799862   18.911104   24.801937 C.3        1 MOL1        -0.1500
      18    H12     18.242992   18.000527   25.059831 H          1 MOL1         0.0948
      19    H13     18.071321   19.731973   24.833192 H          1 MOL1         0.0948
      20    C7      19.880722   19.166537   25.879094 C.3        1 MOL1         0.1162
      21    H14     20.415918   20.085163   25.622009 H          1 MOL1         0.0910
      22    C8      20.899752   18.016251   25.961739 C.3        1 MOL1        -0.2491
      23    H15     21.622894   18.197386   26.766429 H          1 MOL1         0.0959
      24    H16     20.402113   17.058823   26.160023 H          1 MOL1         0.0959
      25    H17     21.468810   17.921893   25.029516 H          1 MOL1         0.0959
      26    N1      19.256273   19.407296   27.225270 N.4        1 MOL1        -0.5987
      27    H18     18.734730   18.587582   27.547424 H          1 MOL1         0.3605
      28    H19     18.604929   20.197312   27.202973 H          1 MOL1         0.3605
      29    H20     19.964877   19.616522   27.934340 H          1 MOL1         0.3605
@<TRIPOS>BOND
    1     1     2    1
    2     1     3    1
    3     1     4    1
    4     1     5    1
    5     5     6    1
    6     5     7    1
    7     5     8    1
    8     8     9    1
    9     8    10    1
   10     8    11    1
   11    11    12    1
   12    11    13    1
   13    11    14    1
   14    14    15    1
   15    14    16    1
   16    14    17    1
   17    17    18    1
   18    17    19    1
   19    17    20    1
   20    20    21    1
   21    20    22    1
   22    22    23    1
   23    22    24    1
   24    22    25    1
   25    20    26    1
   26    26    27    1
   27    26    28    1
   28    26    29    1
@<TRIPOS>SUBSTRUCTURE
       1 MOL1            1 RESIDUE      1      MOL     
@<SCITEGIC>MOL_PROPERTY
VM2 Rank
SciTegic.value.IntegerValue
140

@<SCITEGIC>MOL_PROPERTY
Conf_Id
SciTegic.value.IntegerValue
1209

@<SCITEGIC>MOL_PROPERTY
Probability
SciTegic.value.DoubleValue
0.01

@<SCITEGIC>MOL_PROPERTY
Sum Probability
SciTegic.value.DoubleValue
99.88

@<SCITEGIC>MOL_PROPERTY
Delta G
SciTegic.value.DoubleValue
4.394

@<SCITEGIC>MOL_PROPERTY
G
SciTegic.value.DoubleValue
38.096

@<SCITEGIC>MOL_PROPERTY
E
SciTegic.value.DoubleValue
0.102

@<SCITEGIC>MOL_PROPERTY
-TS
SciTegic.value.DoubleValue
37.994

@<SCITEGIC>MOL_PROPERTY
U+W
SciTegic.value.DoubleValue
-24.042

@<SCITEGIC>MOL_PROPERTY
U
SciTegic.value.DoubleValue
28.220

@<SCITEGIC>MOL_PROPERTY
W
SciTegic.value.DoubleValue
-52.263

@<SCITEGIC>MOL_PROPERTY
W(PB)
SciTegic.value.DoubleValue
-54.725

@<SCITEGIC>MOL_PROPERTY
W(SA)
SciTegic.value.DoubleValue
2.462

@<SCITEGIC>MOL_PROPERTY
Valence
SciTegic.value.DoubleValue
7.040

@<SCITEGIC>MOL_PROPERTY
Coulomb
SciTegic.value.DoubleValue
19.984

@<SCITEGIC>MOL_PROPERTY
VdW
SciTegic.value.DoubleValue
1.197

@<SCITEGIC>MOL_PROPERTY
VdW6
SciTegic.value.DoubleValue
-10.565

@<SCITEGIC>MOL_PROPERTY
VdW12
SciTegic.value.DoubleValue
11.762

@<SCITEGIC>MOL_PROPERTY
Bond
SciTegic.value.DoubleValue
0.320

@<SCITEGIC>MOL_PROPERTY
Angle
SciTegic.value.DoubleValue
2.281

@<SCITEGIC>MOL_PROPERTY
Pdih
SciTegic.value.DoubleValue
4.439

@<SCITEGIC>MOL_PROPERTY
Idih
SciTegic.value.DoubleValue
0.000

@<SCITEGIC>MOL_PROPERTY
Tether
SciTegic.value.DoubleValue
0.000

@<TRIPOS>MOLECULE
guest-s15_vm2.mol2 : vm2 ligand conformer 141
          29          28           1
SMALL
USER_CHARGES
 
@<TRIPOS>ATOM
       1    C1      20.063130   17.807137   20.185523 C.3        1 MOL1        -0.2426
       2    H1      21.055824   17.542560   20.572249 H          1 MOL1         0.0959
       3    H2      19.309487   17.274833   20.778938 H          1 MOL1         0.0959
       4    H3      19.994224   17.435672   19.154907 H          1 MOL1         0.0959
       5    C2      19.840765   19.336099   20.225197 C.3        1 MOL1        -0.1410
       6    H4      18.831224   19.572612   19.861086 H          1 MOL1         0.0948
       7    H5      20.539930   19.814077   19.524882 H          1 MOL1         0.0948
       8    C3      20.048424   19.949637   21.630791 C.3        1 MOL1        -0.1435
       9    H6      21.069096   19.729327   21.967997 H          1 MOL1         0.0948
      10    H7      19.978420   21.042864   21.547571 H          1 MOL1         0.0948
      11    C4      19.015273   19.453164   22.674429 C.3        1 MOL1        -0.1435
      12    H8      19.133641   18.376405   22.833832 H          1 MOL1         0.0948
      13    H9      18.006783   19.590051   22.260694 H          1 MOL1         0.0948
      14    C5      19.090058   20.210176   24.026966 C.3        1 MOL1        -0.1435
      15    H10     19.011774   21.285995   23.818037 H          1 MOL1         0.0948
      16    H11     18.203726   19.967271   24.626899 H          1 MOL1         0.0948
      17    C6      20.380675   19.962201   24.861815 C.3        1 MOL1        -0.1500
      18    H12     20.611674   20.884100   25.411436 H          1 MOL1         0.0948
      19    H13     21.241915   19.801088   24.203609 H          1 MOL1         0.0948
      20    C7      20.315255   18.814128   25.899663 C.3        1 MOL1         0.1162
      21    H14     21.291247   18.774527   26.393200 H          1 MOL1         0.0910
      22    C8      20.068022   17.438674   25.260135 C.3        1 MOL1        -0.2491
      23    H15     19.045717   17.353973   24.873515 H          1 MOL1         0.0959
      24    H16     20.770429   17.257922   24.436977 H          1 MOL1         0.0959
      25    H17     20.210389   16.641969   26.000450 H          1 MOL1         0.0959
      26    N1      19.314398   19.084785   26.989480 N.4        1 MOL1        -0.5987
      27    H18     19.503710   19.973941   27.460877 H          1 MOL1         0.3605
      28    H19     19.331086   18.350444   27.702963 H          1 MOL1         0.3605
      29    H20     18.362634   19.129832   26.617420 H          1 MOL1         0.3605
@<TRIPOS>BOND
    1     1     2    1
    2     1     3    1
    3     1     4    1
    4     1     5    1
    5     5     6    1
    6     5     7    1
    7     5     8    1
    8     8     9    1
    9     8    10    1
   10     8    11    1
   11    11    12    1
   12    11    13    1
   13    11    14    1
   14    14    15    1
   15    14    16    1
   16    14    17    1
   17    17    18    1
   18    17    19    1
   19    17    20    1
   20    20    21    1
   21    20    22    1
   22    22    23    1
   23    22    24    1
   24    22    25    1
   25    20    26    1
   26    26    27    1
   27    26    28    1
   28    26    29    1
@<TRIPOS>SUBSTRUCTURE
       1 MOL1            1 RESIDUE      1      MOL     
@<SCITEGIC>MOL_PROPERTY
VM2 Rank
SciTegic.value.IntegerValue
141

@<SCITEGIC>MOL_PROPERTY
Conf_Id
SciTegic.value.IntegerValue
1342

@<SCITEGIC>MOL_PROPERTY
Probability
SciTegic.value.DoubleValue
0.01

@<SCITEGIC>MOL_PROPERTY
Sum Probability
SciTegic.value.DoubleValue
99.89

@<SCITEGIC>MOL_PROPERTY
Delta G
SciTegic.value.DoubleValue
4.415

@<SCITEGIC>MOL_PROPERTY
G
SciTegic.value.DoubleValue
38.117

@<SCITEGIC>MOL_PROPERTY
E
SciTegic.value.DoubleValue
0.402

@<SCITEGIC>MOL_PROPERTY
-TS
SciTegic.value.DoubleValue
37.715

@<SCITEGIC>MOL_PROPERTY
U+W
SciTegic.value.DoubleValue
-23.742

@<SCITEGIC>MOL_PROPERTY
U
SciTegic.value.DoubleValue
28.725

@<SCITEGIC>MOL_PROPERTY
W
SciTegic.value.DoubleValue
-52.468

@<SCITEGIC>MOL_PROPERTY
W(PB)
SciTegic.value.DoubleValue
-54.857

@<SCITEGIC>MOL_PROPERTY
W(SA)
SciTegic.value.DoubleValue
2.389

@<SCITEGIC>MOL_PROPERTY
Valence
SciTegic.value.DoubleValue
7.453

@<SCITEGIC>MOL_PROPERTY
Coulomb
SciTegic.value.DoubleValue
19.993

@<SCITEGIC>MOL_PROPERTY
VdW
SciTegic.value.DoubleValue
1.279

@<SCITEGIC>MOL_PROPERTY
VdW6
SciTegic.value.DoubleValue
-10.882

@<SCITEGIC>MOL_PROPERTY
VdW12
SciTegic.value.DoubleValue
12.161

@<SCITEGIC>MOL_PROPERTY
Bond
SciTegic.value.DoubleValue
0.391

@<SCITEGIC>MOL_PROPERTY
Angle
SciTegic.value.DoubleValue
2.496

@<SCITEGIC>MOL_PROPERTY
Pdih
SciTegic.value.DoubleValue
4.566

@<SCITEGIC>MOL_PROPERTY
Idih
SciTegic.value.DoubleValue
0.000

@<SCITEGIC>MOL_PROPERTY
Tether
SciTegic.value.DoubleValue
0.000

@<TRIPOS>MOLECULE
guest-s15_vm2.mol2 : vm2 ligand conformer 142
          29          28           1
SMALL
USER_CHARGES
 
@<TRIPOS>ATOM
       1    C1      20.837529   20.465871   20.640760 C.3        1 MOL1        -0.2426
       2    H1      20.154295   21.182237   21.113300 H          1 MOL1         0.0959
       3    H2      21.732298   20.375771   21.270109 H          1 MOL1         0.0959
       4    H3      21.146945   20.891581   19.677462 H          1 MOL1         0.0959
       5    C2      20.164112   19.090526   20.431918 C.3        1 MOL1        -0.1410
       6    H4      20.845776   18.446399   19.859070 H          1 MOL1         0.0948
       7    H5      19.262456   19.209435   19.815022 H          1 MOL1         0.0948
       8    C3      19.802611   18.377328   21.756711 C.3        1 MOL1        -0.1435
       9    H6      19.449027   17.363868   21.522414 H          1 MOL1         0.0948
      10    H7      20.712212   18.253779   22.357801 H          1 MOL1         0.0948
      11    C4      18.709551   19.114392   22.571708 C.3        1 MOL1        -0.1435
      12    H8      17.834200   19.268798   21.925994 H          1 MOL1         0.0948
      13    H9      19.047709   20.116339   22.861077 H          1 MOL1         0.0948
      14    C5      18.253759   18.334031   23.829506 C.3        1 MOL1        -0.1435
      15    H10     17.405201   18.863765   24.284152 H          1 MOL1         0.0948
      16    H11     17.860892   17.357124   23.515632 H          1 MOL1         0.0948
      17    C6      19.339484   18.109203   24.915783 C.3        1 MOL1        -0.1500
      18    H12     20.176947   17.523214   24.516567 H          1 MOL1         0.0948
      19    H13     18.887920   17.475615   25.690578 H          1 MOL1         0.0948
      20    C7      19.849579   19.414002   25.575946 C.3        1 MOL1         0.1162
      21    H14     19.095497   20.192261   25.423791 H          1 MOL1         0.0910
      22    C8      21.181282   19.889025   24.966634 C.3        1 MOL1        -0.2491
      23    H15     21.970357   19.139808   25.107077 H          1 MOL1         0.0959
      24    H16     21.087967   20.085222   23.893948 H          1 MOL1         0.0959
      25    H17     21.511502   20.821145   25.441352 H          1 MOL1         0.0959
      26    N1      19.998094   19.261623   27.065034 N.4        1 MOL1        -0.5987
      27    H18     20.690035   18.544865   27.300271 H          1 MOL1         0.3605
      28    H19     19.113512   18.993491   27.506189 H          1 MOL1         0.3605
      29    H20     20.303332   20.136233   27.501610 H          1 MOL1         0.3605
@<TRIPOS>BOND
    1     1     2    1
    2     1     3    1
    3     1     4    1
    4     1     5    1
    5     5     6    1
    6     5     7    1
    7     5     8    1
    8     8     9    1
    9     8    10    1
   10     8    11    1
   11    11    12    1
   12    11    13    1
   13    11    14    1
   14    14    15    1
   15    14    16    1
   16    14    17    1
   17    17    18    1
   18    17    19    1
   19    17    20    1
   20    20    21    1
   21    20    22    1
   22    22    23    1
   23    22    24    1
   24    22    25    1
   25    20    26    1
   26    26    27    1
   27    26    28    1
   28    26    29    1
@<TRIPOS>SUBSTRUCTURE
       1 MOL1            1 RESIDUE      1      MOL     
@<SCITEGIC>MOL_PROPERTY
VM2 Rank
SciTegic.value.IntegerValue
142

@<SCITEGIC>MOL_PROPERTY
Conf_Id
SciTegic.value.IntegerValue
1664

@<SCITEGIC>MOL_PROPERTY
Probability
SciTegic.value.DoubleValue
0.01

@<SCITEGIC>MOL_PROPERTY
Sum Probability
SciTegic.value.DoubleValue
99.89

@<SCITEGIC>MOL_PROPERTY
Delta G
SciTegic.value.DoubleValue
4.417

@<SCITEGIC>MOL_PROPERTY
G
SciTegic.value.DoubleValue
38.119

@<SCITEGIC>MOL_PROPERTY
E
SciTegic.value.DoubleValue
-0.117

@<SCITEGIC>MOL_PROPERTY
-TS
SciTegic.value.DoubleValue
38.236

@<SCITEGIC>MOL_PROPERTY
U+W
SciTegic.value.DoubleValue
-24.262

@<SCITEGIC>MOL_PROPERTY
U
SciTegic.value.DoubleValue
28.334

@<SCITEGIC>MOL_PROPERTY
W
SciTegic.value.DoubleValue
-52.596

@<SCITEGIC>MOL_PROPERTY
W(PB)
SciTegic.value.DoubleValue
-54.973

@<SCITEGIC>MOL_PROPERTY
W(SA)
SciTegic.value.DoubleValue
2.377

@<SCITEGIC>MOL_PROPERTY
Valence
SciTegic.value.DoubleValue
7.422

@<SCITEGIC>MOL_PROPERTY
Coulomb
SciTegic.value.DoubleValue
20.098

@<SCITEGIC>MOL_PROPERTY
VdW
SciTegic.value.DoubleValue
0.814

@<SCITEGIC>MOL_PROPERTY
VdW6
SciTegic.value.DoubleValue
-11.202

@<SCITEGIC>MOL_PROPERTY
VdW12
SciTegic.value.DoubleValue
12.016

@<SCITEGIC>MOL_PROPERTY
Bond
SciTegic.value.DoubleValue
0.311

@<SCITEGIC>MOL_PROPERTY
Angle
SciTegic.value.DoubleValue
2.207

@<SCITEGIC>MOL_PROPERTY
Pdih
SciTegic.value.DoubleValue
4.903

@<SCITEGIC>MOL_PROPERTY
Idih
SciTegic.value.DoubleValue
0.000

@<SCITEGIC>MOL_PROPERTY
Tether
SciTegic.value.DoubleValue
0.000

@<TRIPOS>MOLECULE
guest-s15_vm2.mol2 : vm2 ligand conformer 143
          29          28           1
SMALL
USER_CHARGES
 
@<TRIPOS>ATOM
       1    C1      19.110788   20.680491   20.374581 C.3        1 MOL1        -0.2426
       2    H1      18.137599   20.206284   20.192213 H          1 MOL1         0.0959
       3    H2      18.943055   21.758490   20.496261 H          1 MOL1         0.0959
       4    H3      19.734444   20.535297   19.482844 H          1 MOL1         0.0959
       5    C2      19.788624   20.089509   21.628674 C.3        1 MOL1        -0.1410
       6    H4      19.157467   20.294996   22.499875 H          1 MOL1         0.0948
       7    H5      20.743585   20.605350   21.800508 H          1 MOL1         0.0948
       8    C3      20.036892   18.569482   21.477653 C.3        1 MOL1        -0.1435
       9    H6      19.087949   18.042986   21.306595 H          1 MOL1         0.0948
      10    H7      20.636617   18.413472   20.570219 H          1 MOL1         0.0948
      11    C4      20.794493   17.930150   22.670996 C.3        1 MOL1        -0.1435
      12    H8      21.514372   18.642184   23.095945 H          1 MOL1         0.0948
      13    H9      21.403440   17.105656   22.275035 H          1 MOL1         0.0948
      14    C5      19.886639   17.333352   23.780150 C.3        1 MOL1        -0.1435
      15    H10     19.223993   16.580484   23.331693 H          1 MOL1         0.0948
      16    H11     20.516790   16.778706   24.488056 H          1 MOL1         0.0948
      17    C6      19.020966   18.352885   24.564791 C.3        1 MOL1        -0.1500
      18    H12     18.472837   17.818698   25.352100 H          1 MOL1         0.0948
      19    H13     18.252901   18.754422   23.892708 H          1 MOL1         0.0948
      20    C7      19.809141   19.521709   25.201391 C.3        1 MOL1         0.1162
      21    H14     20.368159   20.031638   24.411487 H          1 MOL1         0.0910
      22    C8      20.808518   19.032536   26.264393 C.3        1 MOL1        -0.2491
      23    H15     21.575261   18.386217   25.821583 H          1 MOL1         0.0959
      24    H16     21.326399   19.881273   26.727751 H          1 MOL1         0.0959
      25    H17     20.300421   18.469573   27.057195 H          1 MOL1         0.0959
      26    N1      18.879939   20.545886   25.791370 N.4        1 MOL1        -0.5987
      27    H18     18.320536   20.147920   26.550662 H          1 MOL1         0.3605
      28    H19     18.230082   20.915449   25.091685 H          1 MOL1         0.3605
      29    H20     19.396874   21.340724   26.178341 H          1 MOL1         0.3605
@<TRIPOS>BOND
    1     1     2    1
    2     1     3    1
    3     1     4    1
    4     1     5    1
    5     5     6    1
    6     5     7    1
    7     5     8    1
    8     8     9    1
    9     8    10    1
   10     8    11    1
   11    11    12    1
   12    11    13    1
   13    11    14    1
   14    14    15    1
   15    14    16    1
   16    14    17    1
   17    17    18    1
   18    17    19    1
   19    17    20    1
   20    20    21    1
   21    20    22    1
   22    22    23    1
   23    22    24    1
   24    22    25    1
   25    20    26    1
   26    26    27    1
   27    26    28    1
   28    26    29    1
@<TRIPOS>SUBSTRUCTURE
       1 MOL1            1 RESIDUE      1      MOL     
@<SCITEGIC>MOL_PROPERTY
VM2 Rank
SciTegic.value.IntegerValue
143

@<SCITEGIC>MOL_PROPERTY
Conf_Id
SciTegic.value.IntegerValue
669

@<SCITEGIC>MOL_PROPERTY
Probability
SciTegic.value.DoubleValue
0.01

@<SCITEGIC>MOL_PROPERTY
Sum Probability
SciTegic.value.DoubleValue
99.90

@<SCITEGIC>MOL_PROPERTY
Delta G
SciTegic.value.DoubleValue
4.483

@<SCITEGIC>MOL_PROPERTY
G
SciTegic.value.DoubleValue
38.185

@<SCITEGIC>MOL_PROPERTY
E
SciTegic.value.DoubleValue
-0.111

@<SCITEGIC>MOL_PROPERTY
-TS
SciTegic.value.DoubleValue
38.296

@<SCITEGIC>MOL_PROPERTY
U+W
SciTegic.value.DoubleValue
-24.256

@<SCITEGIC>MOL_PROPERTY
U
SciTegic.value.DoubleValue
28.796

@<SCITEGIC>MOL_PROPERTY
W
SciTegic.value.DoubleValue
-53.051

@<SCITEGIC>MOL_PROPERTY
W(PB)
SciTegic.value.DoubleValue
-55.453

@<SCITEGIC>MOL_PROPERTY
W(SA)
SciTegic.value.DoubleValue
2.402

@<SCITEGIC>MOL_PROPERTY
Valence
SciTegic.value.DoubleValue
6.977

@<SCITEGIC>MOL_PROPERTY
Coulomb
SciTegic.value.DoubleValue
21.301

@<SCITEGIC>MOL_PROPERTY
VdW
SciTegic.value.DoubleValue
0.518

@<SCITEGIC>MOL_PROPERTY
VdW6
SciTegic.value.DoubleValue
-11.513

@<SCITEGIC>MOL_PROPERTY
VdW12
SciTegic.value.DoubleValue
12.031

@<SCITEGIC>MOL_PROPERTY
Bond
SciTegic.value.DoubleValue
0.321

@<SCITEGIC>MOL_PROPERTY
Angle
SciTegic.value.DoubleValue
2.483

@<SCITEGIC>MOL_PROPERTY
Pdih
SciTegic.value.DoubleValue
4.172

@<SCITEGIC>MOL_PROPERTY
Idih
SciTegic.value.DoubleValue
0.000

@<SCITEGIC>MOL_PROPERTY
Tether
SciTegic.value.DoubleValue
0.000

@<TRIPOS>MOLECULE
guest-s15_vm2.mol2 : vm2 ligand conformer 144
          29          28           1
SMALL
USER_CHARGES
 
@<TRIPOS>ATOM
       1    C1      18.053648   19.532035   21.493236 C.3        1 MOL1        -0.2426
       2    H1      18.206902   19.895887   22.513884 H          1 MOL1         0.0959
       3    H2      17.325169   20.198013   21.012980 H          1 MOL1         0.0959
       4    H3      17.603276   18.532676   21.550817 H          1 MOL1         0.0959
       5    C2      19.369883   19.500556   20.682511 C.3        1 MOL1        -0.1410
       6    H4      19.799970   20.509437   20.614833 H          1 MOL1         0.0948
       7    H5      19.121819   19.208922   19.652338 H          1 MOL1         0.0948
       8    C3      20.421725   18.501988   21.231855 C.3        1 MOL1        -0.1435
       9    H6      19.927420   17.628732   21.677203 H          1 MOL1         0.0948
      10    H7      20.986055   18.107586   20.375548 H          1 MOL1         0.0948
      11    C4      21.455844   19.113396   22.215656 C.3        1 MOL1        -0.1435
      12    H8      21.991181   19.926453   21.706303 H          1 MOL1         0.0948
      13    H9      22.216452   18.352704   22.439177 H          1 MOL1         0.0948
      14    C5      20.889356   19.652871   23.552136 C.3        1 MOL1        -0.1435
      15    H10     21.720705   20.079146   24.130521 H          1 MOL1         0.0948
      16    H11     20.206736   20.486789   23.350915 H          1 MOL1         0.0948
      17    C6      20.194871   18.563196   24.408634 C.3        1 MOL1        -0.1500
      18    H12     20.888200   17.721727   24.538930 H          1 MOL1         0.0948
      19    H13     19.317621   18.166128   23.883378 H          1 MOL1         0.0948
      20    C7      19.767973   19.076617   25.800379 C.3        1 MOL1         0.1162
      21    H14     20.651886   19.482359   26.302053 H          1 MOL1         0.0910
      22    C8      19.217850   17.920687   26.650831 C.3        1 MOL1        -0.2491
      23    H15     18.325427   17.478601   26.190319 H          1 MOL1         0.0959
      24    H16     19.969662   17.130081   26.766877 H          1 MOL1         0.0959
      25    H17     18.946704   18.271640   27.654176 H          1 MOL1         0.0959
      26    N1      18.764850   20.194654   25.718762 N.4        1 MOL1        -0.5987
      27    H18     17.901489   19.888162   25.262846 H          1 MOL1         0.3605
      28    H19     19.133064   20.988087   25.187247 H          1 MOL1         0.3605
      29    H20     18.514441   20.539432   26.649999 H          1 MOL1         0.3605
@<TRIPOS>BOND
    1     1     2    1
    2     1     3    1
    3     1     4    1
    4     1     5    1
    5     5     6    1
    6     5     7    1
    7     5     8    1
    8     8     9    1
    9     8    10    1
   10     8    11    1
   11    11    12    1
   12    11    13    1
   13    11    14    1
   14    14    15    1
   15    14    16    1
   16    14    17    1
   17    17    18    1
   18    17    19    1
   19    17    20    1
   20    20    21    1
   21    20    22    1
   22    22    23    1
   23    22    24    1
   24    22    25    1
   25    20    26    1
   26    26    27    1
   27    26    28    1
   28    26    29    1
@<TRIPOS>SUBSTRUCTURE
       1 MOL1            1 RESIDUE      1      MOL     
@<SCITEGIC>MOL_PROPERTY
VM2 Rank
SciTegic.value.IntegerValue
144

@<SCITEGIC>MOL_PROPERTY
Conf_Id
SciTegic.value.IntegerValue
282

@<SCITEGIC>MOL_PROPERTY
Probability
SciTegic.value.DoubleValue
0.01

@<SCITEGIC>MOL_PROPERTY
Sum Probability
SciTegic.value.DoubleValue
99.91

@<SCITEGIC>MOL_PROPERTY
Delta G
SciTegic.value.DoubleValue
4.507

@<SCITEGIC>MOL_PROPERTY
G
SciTegic.value.DoubleValue
38.209

@<SCITEGIC>MOL_PROPERTY
E
SciTegic.value.DoubleValue
-0.043

@<SCITEGIC>MOL_PROPERTY
-TS
SciTegic.value.DoubleValue
38.252

@<SCITEGIC>MOL_PROPERTY
U+W
SciTegic.value.DoubleValue
-24.187

@<SCITEGIC>MOL_PROPERTY
U
SciTegic.value.DoubleValue
28.509

@<SCITEGIC>MOL_PROPERTY
W
SciTegic.value.DoubleValue
-52.697

@<SCITEGIC>MOL_PROPERTY
W(PB)
SciTegic.value.DoubleValue
-55.107

@<SCITEGIC>MOL_PROPERTY
W(SA)
SciTegic.value.DoubleValue
2.410

@<SCITEGIC>MOL_PROPERTY
Valence
SciTegic.value.DoubleValue
6.730

@<SCITEGIC>MOL_PROPERTY
Coulomb
SciTegic.value.DoubleValue
21.117

@<SCITEGIC>MOL_PROPERTY
VdW
SciTegic.value.DoubleValue
0.663

@<SCITEGIC>MOL_PROPERTY
VdW6
SciTegic.value.DoubleValue
-11.041

@<SCITEGIC>MOL_PROPERTY
VdW12
SciTegic.value.DoubleValue
11.704

@<SCITEGIC>MOL_PROPERTY
Bond
SciTegic.value.DoubleValue
0.323

@<SCITEGIC>MOL_PROPERTY
Angle
SciTegic.value.DoubleValue
2.297

@<SCITEGIC>MOL_PROPERTY
Pdih
SciTegic.value.DoubleValue
4.110

@<SCITEGIC>MOL_PROPERTY
Idih
SciTegic.value.DoubleValue
0.000

@<SCITEGIC>MOL_PROPERTY
Tether
SciTegic.value.DoubleValue
0.000

@<TRIPOS>MOLECULE
guest-s15_vm2.mol2 : vm2 ligand conformer 145
          29          28           1
SMALL
USER_CHARGES
 
@<TRIPOS>ATOM
       1    C1      18.966398   17.924584   20.731497 C.3        1 MOL1        -0.2426
       2    H1      18.573335   17.376369   19.865588 H          1 MOL1         0.0959
       3    H2      19.483998   17.204795   21.378751 H          1 MOL1         0.0959
       4    H3      18.107167   18.332508   21.277741 H          1 MOL1         0.0959
       5    C2      19.921361   19.047172   20.270925 C.3        1 MOL1        -0.1410
       6    H4      19.358214   19.789102   19.687776 H          1 MOL1         0.0948
       7    H5      20.662188   18.617781   19.582081 H          1 MOL1         0.0948
       8    C3      20.676784   19.755244   21.424339 C.3        1 MOL1        -0.1435
       9    H6      21.320636   19.034474   21.942767 H          1 MOL1         0.0948
      10    H7      21.360440   20.485368   20.969681 H          1 MOL1         0.0948
      11    C4      19.764957   20.512949   22.428031 C.3        1 MOL1        -0.1435
      12    H8      18.862997   20.862009   21.906868 H          1 MOL1         0.0948
      13    H9      20.282269   21.423959   22.759069 H          1 MOL1         0.0948
      14    C5      19.354093   19.702056   23.684962 C.3        1 MOL1        -0.1435
      15    H10     18.557465   20.255391   24.198952 H          1 MOL1         0.0948
      16    H11     18.917776   18.743098   23.385710 H          1 MOL1         0.0948
      17    C6      20.530814   19.467828   24.672169 C.3        1 MOL1        -0.1500
      18    H12     20.989655   20.433406   24.921684 H          1 MOL1         0.0948
      19    H13     21.316641   18.878164   24.185091 H          1 MOL1         0.0948
      20    C7      20.140457   18.758094   25.990141 C.3        1 MOL1         0.1162
      21    H14     21.047556   18.679261   26.597358 H          1 MOL1         0.0910
      22    C8      19.619216   17.331179   25.745590 C.3        1 MOL1        -0.2491
      23    H15     20.332760   16.752900   25.145550 H          1 MOL1         0.0959
      24    H16     19.482156   16.804678   26.698054 H          1 MOL1         0.0959
      25    H17     18.654902   17.335194   25.223775 H          1 MOL1         0.0959
      26    N1      19.161920   19.556894   26.806346 N.4        1 MOL1        -0.5987
      27    H18     18.963923   19.102748   27.702543 H          1 MOL1         0.3605
      28    H19     18.271675   19.667501   26.314749 H          1 MOL1         0.3605
      29    H20     19.520618   20.494093   27.010511 H          1 MOL1         0.3605
@<TRIPOS>BOND
    1     1     2    1
    2     1     3    1
    3     1     4    1
    4     1     5    1
    5     5     6    1
    6     5     7    1
    7     5     8    1
    8     8     9    1
    9     8    10    1
   10     8    11    1
   11    11    12    1
   12    11    13    1
   13    11    14    1
   14    14    15    1
   15    14    16    1
   16    14    17    1
   17    17    18    1
   18    17    19    1
   19    17    20    1
   20    20    21    1
   21    20    22    1
   22    22    23    1
   23    22    24    1
   24    22    25    1
   25    20    26    1
   26    26    27    1
   27    26    28    1
   28    26    29    1
@<TRIPOS>SUBSTRUCTURE
       1 MOL1            1 RESIDUE      1      MOL     
@<SCITEGIC>MOL_PROPERTY
VM2 Rank
SciTegic.value.IntegerValue
145

@<SCITEGIC>MOL_PROPERTY
Conf_Id
SciTegic.value.IntegerValue
655

@<SCITEGIC>MOL_PROPERTY
Probability
SciTegic.value.DoubleValue
0.01

@<SCITEGIC>MOL_PROPERTY
Sum Probability
SciTegic.value.DoubleValue
99.91

@<SCITEGIC>MOL_PROPERTY
Delta G
SciTegic.value.DoubleValue
4.527

@<SCITEGIC>MOL_PROPERTY
G
SciTegic.value.DoubleValue
38.229

@<SCITEGIC>MOL_PROPERTY
E
SciTegic.value.DoubleValue
0.342

@<SCITEGIC>MOL_PROPERTY
-TS
SciTegic.value.DoubleValue
37.887

@<SCITEGIC>MOL_PROPERTY
U+W
SciTegic.value.DoubleValue
-23.802

@<SCITEGIC>MOL_PROPERTY
U
SciTegic.value.DoubleValue
28.700

@<SCITEGIC>MOL_PROPERTY
W
SciTegic.value.DoubleValue
-52.502

@<SCITEGIC>MOL_PROPERTY
W(PB)
SciTegic.value.DoubleValue
-54.904

@<SCITEGIC>MOL_PROPERTY
W(SA)
SciTegic.value.DoubleValue
2.401

@<SCITEGIC>MOL_PROPERTY
Valence
SciTegic.value.DoubleValue
7.367

@<SCITEGIC>MOL_PROPERTY
Coulomb
SciTegic.value.DoubleValue
20.019

@<SCITEGIC>MOL_PROPERTY
VdW
SciTegic.value.DoubleValue
1.314

@<SCITEGIC>MOL_PROPERTY
VdW6
SciTegic.value.DoubleValue
-10.862

@<SCITEGIC>MOL_PROPERTY
VdW12
SciTegic.value.DoubleValue
12.176

@<SCITEGIC>MOL_PROPERTY
Bond
SciTegic.value.DoubleValue
0.376

@<SCITEGIC>MOL_PROPERTY
Angle
SciTegic.value.DoubleValue
2.261

@<SCITEGIC>MOL_PROPERTY
Pdih
SciTegic.value.DoubleValue
4.731

@<SCITEGIC>MOL_PROPERTY
Idih
SciTegic.value.DoubleValue
0.000

@<SCITEGIC>MOL_PROPERTY
Tether
SciTegic.value.DoubleValue
0.000

@<TRIPOS>MOLECULE
guest-s15_vm2.mol2 : vm2 ligand conformer 146
          29          28           1
SMALL
USER_CHARGES
 
@<TRIPOS>ATOM
       1    C1      20.314309   20.973557   20.877074 C.3        1 MOL1        -0.2426
       2    H1      21.311570   21.352334   20.618244 H          1 MOL1         0.0959
       3    H2      19.702089   20.986343   19.965907 H          1 MOL1         0.0959
       4    H3      19.866847   21.668408   21.599670 H          1 MOL1         0.0959
       5    C2      20.407807   19.549101   21.462754 C.3        1 MOL1        -0.1410
       6    H4      21.058988   19.569327   22.345301 H          1 MOL1         0.0948
       7    H5      20.888482   18.884408   20.731509 H          1 MOL1         0.0948
       8    C3      19.012263   18.992554   21.831089 C.3        1 MOL1        -0.1435
       9    H6      18.509599   19.658812   22.542997 H          1 MOL1         0.0948
      10    H7      18.383877   18.997135   20.929797 H          1 MOL1         0.0948
      11    C4      19.048076   17.547640   22.388638 C.3        1 MOL1        -0.1435
      12    H8      19.454040   16.883063   21.613550 H          1 MOL1         0.0948
      13    H9      18.015463   17.211350   22.555305 H          1 MOL1         0.0948
      14    C5      19.859745   17.334416   23.695376 C.3        1 MOL1        -0.1435
      15    H10     19.810315   16.263222   23.934705 H          1 MOL1         0.0948
      16    H11     20.923248   17.538588   23.524729 H          1 MOL1         0.0948
      17    C6      19.326159   18.116194   24.927420 C.3        1 MOL1        -0.1500
      18    H12     19.596972   17.568531   25.839899 H          1 MOL1         0.0948
      19    H13     18.228727   18.114434   24.895100 H          1 MOL1         0.0948
      20    C7      19.837969   19.570521   25.061077 C.3        1 MOL1         0.1162
      21    H14     19.726822   20.074951   24.098734 H          1 MOL1         0.0910
      22    C8      21.321886   19.622041   25.467885 C.3        1 MOL1        -0.2491
      23    H15     21.487094   19.118210   26.428379 H          1 MOL1         0.0959
      24    H16     21.962839   19.144307   24.718780 H          1 MOL1         0.0959
      25    H17     21.657833   20.661442   25.568422 H          1 MOL1         0.0959
      26    N1      19.007784   20.349975   26.042685 N.4        1 MOL1        -0.5987
      27    H18     18.020518   20.368388   25.771183 H          1 MOL1         0.3605
      28    H19     19.323678   21.321644   26.111490 H          1 MOL1         0.3605
      29    H20     19.061070   19.944679   26.981139 H          1 MOL1         0.3605
@<TRIPOS>BOND
    1     1     2    1
    2     1     3    1
    3     1     4    1
    4     1     5    1
    5     5     6    1
    6     5     7    1
    7     5     8    1
    8     8     9    1
    9     8    10    1
   10     8    11    1
   11    11    12    1
   12    11    13    1
   13    11    14    1
   14    14    15    1
   15    14    16    1
   16    14    17    1
   17    17    18    1
   18    17    19    1
   19    17    20    1
   20    20    21    1
   21    20    22    1
   22    22    23    1
   23    22    24    1
   24    22    25    1
   25    20    26    1
   26    26    27    1
   27    26    28    1
   28    26    29    1
@<TRIPOS>SUBSTRUCTURE
       1 MOL1            1 RESIDUE      1      MOL     
@<SCITEGIC>MOL_PROPERTY
VM2 Rank
SciTegic.value.IntegerValue
146

@<SCITEGIC>MOL_PROPERTY
Conf_Id
SciTegic.value.IntegerValue
1677

@<SCITEGIC>MOL_PROPERTY
Probability
SciTegic.value.DoubleValue
0.01

@<SCITEGIC>MOL_PROPERTY
Sum Probability
SciTegic.value.DoubleValue
99.92

@<SCITEGIC>MOL_PROPERTY
Delta G
SciTegic.value.DoubleValue
4.528

@<SCITEGIC>MOL_PROPERTY
G
SciTegic.value.DoubleValue
38.230

@<SCITEGIC>MOL_PROPERTY
E
SciTegic.value.DoubleValue
-0.345

@<SCITEGIC>MOL_PROPERTY
-TS
SciTegic.value.DoubleValue
38.575

@<SCITEGIC>MOL_PROPERTY
U+W
SciTegic.value.DoubleValue
-24.489

@<SCITEGIC>MOL_PROPERTY
U
SciTegic.value.DoubleValue
28.285

@<SCITEGIC>MOL_PROPERTY
W
SciTegic.value.DoubleValue
-52.774

@<SCITEGIC>MOL_PROPERTY
W(PB)
SciTegic.value.DoubleValue
-55.159

@<SCITEGIC>MOL_PROPERTY
W(SA)
SciTegic.value.DoubleValue
2.385

@<SCITEGIC>MOL_PROPERTY
Valence
SciTegic.value.DoubleValue
6.918

@<SCITEGIC>MOL_PROPERTY
Coulomb
SciTegic.value.DoubleValue
20.924

@<SCITEGIC>MOL_PROPERTY
VdW
SciTegic.value.DoubleValue
0.442

@<SCITEGIC>MOL_PROPERTY
VdW6
SciTegic.value.DoubleValue
-11.731

@<SCITEGIC>MOL_PROPERTY
VdW12
SciTegic.value.DoubleValue
12.173

@<SCITEGIC>MOL_PROPERTY
Bond
SciTegic.value.DoubleValue
0.331

@<SCITEGIC>MOL_PROPERTY
Angle
SciTegic.value.DoubleValue
2.608

@<SCITEGIC>MOL_PROPERTY
Pdih
SciTegic.value.DoubleValue
3.979

@<SCITEGIC>MOL_PROPERTY
Idih
SciTegic.value.DoubleValue
0.000

@<SCITEGIC>MOL_PROPERTY
Tether
SciTegic.value.DoubleValue
0.000

@<TRIPOS>MOLECULE
guest-s15_vm2.mol2 : vm2 ligand conformer 147
          29          28           1
SMALL
USER_CHARGES
 
@<TRIPOS>ATOM
       1    C1      20.926414   20.058821   20.677510 C.3        1 MOL1        -0.2426
       2    H1      22.009469   20.084362   20.501139 H          1 MOL1         0.0959
       3    H2      20.429932   20.423214   19.768868 H          1 MOL1         0.0959
       4    H3      20.705701   20.760873   21.490359 H          1 MOL1         0.0959
       5    C2      20.466968   18.623144   21.019699 C.3        1 MOL1        -0.1410
       6    H4      20.987155   18.258527   21.914477 H          1 MOL1         0.0948
       7    H5      20.775652   17.954401   20.204179 H          1 MOL1         0.0948
       8    C3      18.934736   18.497991   21.202200 C.3        1 MOL1        -0.1435
       9    H6      18.445391   18.795743   20.264656 H          1 MOL1         0.0948
      10    H7      18.681948   17.438388   21.345021 H          1 MOL1         0.0948
      11    C4      18.317469   19.321383   22.364831 C.3        1 MOL1        -0.1435
      12    H8      17.228403   19.184589   22.314747 H          1 MOL1         0.0948
      13    H9      18.480347   20.396022   22.209861 H          1 MOL1         0.0948
      14    C5      18.783504   18.895282   23.782058 C.3        1 MOL1        -0.1435
      15    H10     17.929553   19.000082   24.464086 H          1 MOL1         0.0948
      16    H11     19.041364   17.828406   23.778288 H          1 MOL1         0.0948
      17    C6      19.960702   19.748445   24.330312 C.3        1 MOL1        -0.1500
      18    H12     19.669867   20.806947   24.321353 H          1 MOL1         0.0948
      19    H13     20.826579   19.671683   23.664415 H          1 MOL1         0.0948
      20    C7      20.417195   19.381653   25.762004 C.3        1 MOL1         0.1162
      21    H14     21.212783   20.080637   26.038074 H          1 MOL1         0.0910
      22    C8      21.002165   17.960411   25.834666 C.3        1 MOL1        -0.2491
      23    H15     20.234802   17.196149   25.664094 H          1 MOL1         0.0959
      24    H16     21.793916   17.825888   25.087259 H          1 MOL1         0.0959
      25    H17     21.442811   17.777436   26.822353 H          1 MOL1         0.0959
      26    N1      19.326846   19.568869   26.780722 N.4        1 MOL1        -0.5987
      27    H18     18.541939   18.937025   26.604045 H          1 MOL1         0.3605
      28    H19     18.962096   20.525667   26.768618 H          1 MOL1         0.3605
      29    H20     19.664782   19.381685   27.729068 H          1 MOL1         0.3605
@<TRIPOS>BOND
    1     1     2    1
    2     1     3    1
    3     1     4    1
    4     1     5    1
    5     5     6    1
    6     5     7    1
    7     5     8    1
    8     8     9    1
    9     8    10    1
   10     8    11    1
   11    11    12    1
   12    11    13    1
   13    11    14    1
   14    14    15    1
   15    14    16    1
   16    14    17    1
   17    17    18    1
   18    17    19    1
   19    17    20    1
   20    20    21    1
   21    20    22    1
   22    22    23    1
   23    22    24    1
   24    22    25    1
   25    20    26    1
   26    26    27    1
   27    26    28    1
   28    26    29    1
@<TRIPOS>SUBSTRUCTURE
       1 MOL1            1 RESIDUE      1      MOL     
@<SCITEGIC>MOL_PROPERTY
VM2 Rank
SciTegic.value.IntegerValue
147

@<SCITEGIC>MOL_PROPERTY
Conf_Id
SciTegic.value.IntegerValue
700

@<SCITEGIC>MOL_PROPERTY
Probability
SciTegic.value.DoubleValue
0.01

@<SCITEGIC>MOL_PROPERTY
Sum Probability
SciTegic.value.DoubleValue
99.92

@<SCITEGIC>MOL_PROPERTY
Delta G
SciTegic.value.DoubleValue
4.541

@<SCITEGIC>MOL_PROPERTY
G
SciTegic.value.DoubleValue
38.244

@<SCITEGIC>MOL_PROPERTY
E
SciTegic.value.DoubleValue
-0.092

@<SCITEGIC>MOL_PROPERTY
-TS
SciTegic.value.DoubleValue
38.335

@<SCITEGIC>MOL_PROPERTY
U+W
SciTegic.value.DoubleValue
-24.236

@<SCITEGIC>MOL_PROPERTY
U
SciTegic.value.DoubleValue
28.401

@<SCITEGIC>MOL_PROPERTY
W
SciTegic.value.DoubleValue
-52.637

@<SCITEGIC>MOL_PROPERTY
W(PB)
SciTegic.value.DoubleValue
-55.025

@<SCITEGIC>MOL_PROPERTY
W(SA)
SciTegic.value.DoubleValue
2.388

@<SCITEGIC>MOL_PROPERTY
Valence
SciTegic.value.DoubleValue
7.300

@<SCITEGIC>MOL_PROPERTY
Coulomb
SciTegic.value.DoubleValue
20.101

@<SCITEGIC>MOL_PROPERTY
VdW
SciTegic.value.DoubleValue
1.000

@<SCITEGIC>MOL_PROPERTY
VdW6
SciTegic.value.DoubleValue
-11.394

@<SCITEGIC>MOL_PROPERTY
VdW12
SciTegic.value.DoubleValue
12.394

@<SCITEGIC>MOL_PROPERTY
Bond
SciTegic.value.DoubleValue
0.366

@<SCITEGIC>MOL_PROPERTY
Angle
SciTegic.value.DoubleValue
2.502

@<SCITEGIC>MOL_PROPERTY
Pdih
SciTegic.value.DoubleValue
4.432

@<SCITEGIC>MOL_PROPERTY
Idih
SciTegic.value.DoubleValue
0.000

@<SCITEGIC>MOL_PROPERTY
Tether
SciTegic.value.DoubleValue
0.000

@<TRIPOS>MOLECULE
guest-s15_vm2.mol2 : vm2 ligand conformer 148
          29          28           1
SMALL
USER_CHARGES
 
@<TRIPOS>ATOM
       1    C1      19.842615   20.353951   20.118679 C.3        1 MOL1        -0.2426
       2    H1      18.820417   20.712020   19.940280 H          1 MOL1         0.0959
       3    H2      20.266257   20.923240   20.955476 H          1 MOL1         0.0959
       4    H3      20.440049   20.583546   19.226953 H          1 MOL1         0.0959
       5    C2      19.857160   18.835252   20.403697 C.3        1 MOL1        -0.1410
       6    H4      20.885378   18.505121   20.601960 H          1 MOL1         0.0948
       7    H5      19.542810   18.302415   19.495464 H          1 MOL1         0.0948
       8    C3      18.922868   18.415832   21.567589 C.3        1 MOL1        -0.1435
       9    H6      17.884330   18.625475   21.276680 H          1 MOL1         0.0948
      10    H7      18.984100   17.326363   21.695773 H          1 MOL1         0.0948
      11    C4      19.200698   19.100903   22.931068 C.3        1 MOL1        -0.1435
      12    H8      18.441576   18.742006   23.635343 H          1 MOL1         0.0948
      13    H9      19.055592   20.185475   22.841296 H          1 MOL1         0.0948
      14    C5      20.610179   18.801061   23.500354 C.3        1 MOL1        -0.1435
      15    H10     20.727607   17.718985   23.645455 H          1 MOL1         0.0948
      16    H11     21.365404   19.085357   22.756933 H          1 MOL1         0.0948
      17    C6      20.954613   19.557305   24.814666 C.3        1 MOL1        -0.1500
      18    H12     20.951150   20.638134   24.622152 H          1 MOL1         0.0948
      19    H13     21.992602   19.312529   25.075754 H          1 MOL1         0.0948
      20    C7      20.081354   19.265436   26.061733 C.3        1 MOL1         0.1162
      21    H14     20.609117   19.689912   26.921368 H          1 MOL1         0.0910
      22    C8      19.914887   17.758834   26.325472 C.3        1 MOL1        -0.2491
      23    H15     20.891723   17.260892   26.362666 H          1 MOL1         0.0959
      24    H16     19.418110   17.590048   27.288699 H          1 MOL1         0.0959
      25    H17     19.311600   17.275726   25.547606 H          1 MOL1         0.0959
      26    N1      18.751627   19.967426   26.030741 N.4        1 MOL1        -0.5987
      27    H18     18.865477   20.979956   25.928280 H          1 MOL1         0.3605
      28    H19     18.223868   19.805090   26.893211 H          1 MOL1         0.3605
      29    H20     18.176916   19.641367   25.251178 H          1 MOL1         0.3605
@<TRIPOS>BOND
    1     1     2    1
    2     1     3    1
    3     1     4    1
    4     1     5    1
    5     5     6    1
    6     5     7    1
    7     5     8    1
    8     8     9    1
    9     8    10    1
   10     8    11    1
   11    11    12    1
   12    11    13    1
   13    11    14    1
   14    14    15    1
   15    14    16    1
   16    14    17    1
   17    17    18    1
   18    17    19    1
   19    17    20    1
   20    20    21    1
   21    20    22    1
   22    22    23    1
   23    22    24    1
   24    22    25    1
   25    20    26    1
   26    26    27    1
   27    26    28    1
   28    26    29    1
@<TRIPOS>SUBSTRUCTURE
       1 MOL1            1 RESIDUE      1      MOL     
@<SCITEGIC>MOL_PROPERTY
VM2 Rank
SciTegic.value.IntegerValue
148

@<SCITEGIC>MOL_PROPERTY
Conf_Id
SciTegic.value.IntegerValue
1363

@<SCITEGIC>MOL_PROPERTY
Probability
SciTegic.value.DoubleValue
0.00

@<SCITEGIC>MOL_PROPERTY
Sum Probability
SciTegic.value.DoubleValue
99.93

@<SCITEGIC>MOL_PROPERTY
Delta G
SciTegic.value.DoubleValue
4.604

@<SCITEGIC>MOL_PROPERTY
G
SciTegic.value.DoubleValue
38.307

@<SCITEGIC>MOL_PROPERTY
E
SciTegic.value.DoubleValue
-0.029

@<SCITEGIC>MOL_PROPERTY
-TS
SciTegic.value.DoubleValue
38.336

@<SCITEGIC>MOL_PROPERTY
U+W
SciTegic.value.DoubleValue
-24.174

@<SCITEGIC>MOL_PROPERTY
U
SciTegic.value.DoubleValue
28.517

@<SCITEGIC>MOL_PROPERTY
W
SciTegic.value.DoubleValue
-52.691

@<SCITEGIC>MOL_PROPERTY
W(PB)
SciTegic.value.DoubleValue
-55.070

@<SCITEGIC>MOL_PROPERTY
W(SA)
SciTegic.value.DoubleValue
2.379

@<SCITEGIC>MOL_PROPERTY
Valence
SciTegic.value.DoubleValue
6.153

@<SCITEGIC>MOL_PROPERTY
Coulomb
SciTegic.value.DoubleValue
21.300

@<SCITEGIC>MOL_PROPERTY
VdW
SciTegic.value.DoubleValue
1.064

@<SCITEGIC>MOL_PROPERTY
VdW6
SciTegic.value.DoubleValue
-11.581

@<SCITEGIC>MOL_PROPERTY
VdW12
SciTegic.value.DoubleValue
12.645

@<SCITEGIC>MOL_PROPERTY
Bond
SciTegic.value.DoubleValue
0.386

@<SCITEGIC>MOL_PROPERTY
Angle
SciTegic.value.DoubleValue
2.989

@<SCITEGIC>MOL_PROPERTY
Pdih
SciTegic.value.DoubleValue
2.778

@<SCITEGIC>MOL_PROPERTY
Idih
SciTegic.value.DoubleValue
0.000

@<SCITEGIC>MOL_PROPERTY
Tether
SciTegic.value.DoubleValue
0.000

@<TRIPOS>MOLECULE
guest-s15_vm2.mol2 : vm2 ligand conformer 149
          29          28           1
SMALL
USER_CHARGES
 
@<TRIPOS>ATOM
       1    C1      19.989707   18.151819   19.696936 C.3        1 MOL1        -0.2426
       2    H1      19.344979   17.816013   18.874395 H          1 MOL1         0.0959
       3    H2      20.770177   18.796410   19.271965 H          1 MOL1         0.0959
       4    H3      20.474676   17.266362   20.128205 H          1 MOL1         0.0959
       5    C2      19.165992   18.906818   20.761431 C.3        1 MOL1        -0.1410
       6    H4      18.374045   18.247909   21.144143 H          1 MOL1         0.0948
       7    H5      18.665406   19.766005   20.293404 H          1 MOL1         0.0948
       8    C3      20.050855   19.391558   21.930734 C.3        1 MOL1        -0.1435
       9    H6      20.555863   18.527185   22.379537 H          1 MOL1         0.0948
      10    H7      20.838533   20.052960   21.544471 H          1 MOL1         0.0948
      11    C4      19.225017   20.144373   23.001343 C.3        1 MOL1        -0.1435
      12    H8      18.427370   19.501282   23.390813 H          1 MOL1         0.0948
      13    H9      18.712950   20.988690   22.519398 H          1 MOL1         0.0948
      14    C5      20.082077   20.701597   24.165142 C.3        1 MOL1        -0.1435
      15    H10     20.790060   21.431189   23.748411 H          1 MOL1         0.0948
      16    H11     19.435407   21.282039   24.836500 H          1 MOL1         0.0948
      17    C6      20.894053   19.664135   24.996073 C.3        1 MOL1        -0.1500
      18    H12     21.483436   20.231953   25.727775 H          1 MOL1         0.0948
      19    H13     21.638969   19.168319   24.361069 H          1 MOL1         0.0948
      20    C7      20.092728   18.601418   25.792912 C.3        1 MOL1         0.1162
      21    H14     20.737778   18.278861   26.616056 H          1 MOL1         0.0910
      22    C8      19.781838   17.338989   24.968596 C.3        1 MOL1        -0.2491
      23    H15     19.349155   16.562582   25.611295 H          1 MOL1         0.0959
      24    H16     19.070435   17.531954   24.160363 H          1 MOL1         0.0959
      25    H17     20.697571   16.926553   24.527506 H          1 MOL1         0.0959
      26    N1      18.853733   19.155292   26.440833 N.4        1 MOL1        -0.5987
      27    H18     18.376762   18.446566   27.005425 H          1 MOL1         0.3605
      28    H19     18.190683   19.490932   25.737848 H          1 MOL1         0.3605
      29    H20     19.075033   19.942188   27.057595 H          1 MOL1         0.3605
@<TRIPOS>BOND
    1     1     2    1
    2     1     3    1
    3     1     4    1
    4     1     5    1
    5     5     6    1
    6     5     7    1
    7     5     8    1
    8     8     9    1
    9     8    10    1
   10     8    11    1
   11    11    12    1
   12    11    13    1
   13    11    14    1
   14    14    15    1
   15    14    16    1
   16    14    17    1
   17    17    18    1
   18    17    19    1
   19    17    20    1
   20    20    21    1
   21    20    22    1
   22    22    23    1
   23    22    24    1
   24    22    25    1
   25    20    26    1
   26    26    27    1
   27    26    28    1
   28    26    29    1
@<TRIPOS>SUBSTRUCTURE
       1 MOL1            1 RESIDUE      1      MOL     
@<SCITEGIC>MOL_PROPERTY
VM2 Rank
SciTegic.value.IntegerValue
149

@<SCITEGIC>MOL_PROPERTY
Conf_Id
SciTegic.value.IntegerValue
1002

@<SCITEGIC>MOL_PROPERTY
Probability
SciTegic.value.DoubleValue
0.00

@<SCITEGIC>MOL_PROPERTY
Sum Probability
SciTegic.value.DoubleValue
99.93

@<SCITEGIC>MOL_PROPERTY
Delta G
SciTegic.value.DoubleValue
4.611

@<SCITEGIC>MOL_PROPERTY
G
SciTegic.value.DoubleValue
38.313

@<SCITEGIC>MOL_PROPERTY
E
SciTegic.value.DoubleValue
-0.135

@<SCITEGIC>MOL_PROPERTY
-TS
SciTegic.value.DoubleValue
38.449

@<SCITEGIC>MOL_PROPERTY
U+W
SciTegic.value.DoubleValue
-24.280

@<SCITEGIC>MOL_PROPERTY
U
SciTegic.value.DoubleValue
28.205

@<SCITEGIC>MOL_PROPERTY
W
SciTegic.value.DoubleValue
-52.486

@<SCITEGIC>MOL_PROPERTY
W(PB)
SciTegic.value.DoubleValue
-54.876

@<SCITEGIC>MOL_PROPERTY
W(SA)
SciTegic.value.DoubleValue
2.391

@<SCITEGIC>MOL_PROPERTY
Valence
SciTegic.value.DoubleValue
6.867

@<SCITEGIC>MOL_PROPERTY
Coulomb
SciTegic.value.DoubleValue
20.598

@<SCITEGIC>MOL_PROPERTY
VdW
SciTegic.value.DoubleValue
0.740

@<SCITEGIC>MOL_PROPERTY
VdW6
SciTegic.value.DoubleValue
-11.267

@<SCITEGIC>MOL_PROPERTY
VdW12
SciTegic.value.DoubleValue
12.008

@<SCITEGIC>MOL_PROPERTY
Bond
SciTegic.value.DoubleValue
0.355

@<SCITEGIC>MOL_PROPERTY
Angle
SciTegic.value.DoubleValue
2.996

@<SCITEGIC>MOL_PROPERTY
Pdih
SciTegic.value.DoubleValue
3.516

@<SCITEGIC>MOL_PROPERTY
Idih
SciTegic.value.DoubleValue
0.000

@<SCITEGIC>MOL_PROPERTY
Tether
SciTegic.value.DoubleValue
0.000

@<TRIPOS>MOLECULE
guest-s15_vm2.mol2 : vm2 ligand conformer 150
          29          28           1
SMALL
USER_CHARGES
 
@<TRIPOS>ATOM
       1    C1      18.925343   19.647640   19.813519 C.3        1 MOL1        -0.2426
       2    H1      18.219900   19.921048   20.608036 H          1 MOL1         0.0959
       3    H2      18.867850   20.423350   19.039052 H          1 MOL1         0.0959
       4    H3      18.592020   18.701654   19.367488 H          1 MOL1         0.0959
       5    C2      20.368074   19.528369   20.354200 C.3        1 MOL1        -0.1410
       6    H4      20.672340   20.479002   20.812224 H          1 MOL1         0.0948
       7    H5      21.050815   19.370899   19.507628 H          1 MOL1         0.0948
       8    C3      20.554443   18.364481   21.360646 C.3        1 MOL1        -0.1435
       9    H6      20.356266   17.414699   20.845153 H          1 MOL1         0.0948
      10    H7      21.609217   18.326268   21.665716 H          1 MOL1         0.0948
      11    C4      19.666294   18.436315   22.629446 C.3        1 MOL1        -0.1435
      12    H8      19.870039   17.548064   23.239209 H          1 MOL1         0.0948
      13    H9      18.607611   18.364374   22.347289 H          1 MOL1         0.0948
      14    C5      19.893860   19.719039   23.469908 C.3        1 MOL1        -0.1435
      15    H10     20.966093   19.873382   23.653357 H          1 MOL1         0.0948
      16    H11     19.557990   20.583818   22.882454 H          1 MOL1         0.0948
      17    C6      19.117743   19.717908   24.813528 C.3        1 MOL1        -0.1500
      18    H12     18.219596   19.091070   24.734493 H          1 MOL1         0.0948
      19    H13     18.754691   20.738817   24.991470 H          1 MOL1         0.0948
      20    C7      19.955309   19.300660   26.046316 C.3        1 MOL1         0.1162
      21    H14     20.814543   19.974643   26.117240 H          1 MOL1         0.0910
      22    C8      20.483504   17.859478   25.950063 C.3        1 MOL1        -0.2491
      23    H15     21.008660   17.577646   26.870963 H          1 MOL1         0.0959
      24    H16     19.665320   17.145833   25.792487 H          1 MOL1         0.0959
      25    H17     21.199655   17.757145   25.126483 H          1 MOL1         0.0959
      26    N1      19.171429   19.482111   27.316375 N.4        1 MOL1        -0.5987
      27    H18     19.735464   19.252975   28.139789 H          1 MOL1         0.3605
      28    H19     18.344846   18.878683   27.334754 H          1 MOL1         0.3605
      29    H20     18.850007   20.448237   27.426555 H          1 MOL1         0.3605
@<TRIPOS>BOND
    1     1     2    1
    2     1     3    1
    3     1     4    1
    4     1     5    1
    5     5     6    1
    6     5     7    1
    7     5     8    1
    8     8     9    1
    9     8    10    1
   10     8    11    1
   11    11    12    1
   12    11    13    1
   13    11    14    1
   14    14    15    1
   15    14    16    1
   16    14    17    1
   17    17    18    1
   18    17    19    1
   19    17    20    1
   20    20    21    1
   21    20    22    1
   22    22    23    1
   23    22    24    1
   24    22    25    1
   25    20    26    1
   26    26    27    1
   27    26    28    1
   28    26    29    1
@<TRIPOS>SUBSTRUCTURE
       1 MOL1            1 RESIDUE      1      MOL     
@<SCITEGIC>MOL_PROPERTY
VM2 Rank
SciTegic.value.IntegerValue
150

@<SCITEGIC>MOL_PROPERTY
Conf_Id
SciTegic.value.IntegerValue
656

@<SCITEGIC>MOL_PROPERTY
Probability
SciTegic.value.DoubleValue
0.00

@<SCITEGIC>MOL_PROPERTY
Sum Probability
SciTegic.value.DoubleValue
99.94

@<SCITEGIC>MOL_PROPERTY
Delta G
SciTegic.value.DoubleValue
4.616

@<SCITEGIC>MOL_PROPERTY
G
SciTegic.value.DoubleValue
38.318

@<SCITEGIC>MOL_PROPERTY
E
SciTegic.value.DoubleValue
0.173

@<SCITEGIC>MOL_PROPERTY
-TS
SciTegic.value.DoubleValue
38.145

@<SCITEGIC>MOL_PROPERTY
U+W
SciTegic.value.DoubleValue
-23.971

@<SCITEGIC>MOL_PROPERTY
U
SciTegic.value.DoubleValue
28.230

@<SCITEGIC>MOL_PROPERTY
W
SciTegic.value.DoubleValue
-52.201

@<SCITEGIC>MOL_PROPERTY
W(PB)
SciTegic.value.DoubleValue
-54.645

@<SCITEGIC>MOL_PROPERTY
W(SA)
SciTegic.value.DoubleValue
2.444

@<SCITEGIC>MOL_PROPERTY
Valence
SciTegic.value.DoubleValue
7.255

@<SCITEGIC>MOL_PROPERTY
Coulomb
SciTegic.value.DoubleValue
19.721

@<SCITEGIC>MOL_PROPERTY
VdW
SciTegic.value.DoubleValue
1.254

@<SCITEGIC>MOL_PROPERTY
VdW6
SciTegic.value.DoubleValue
-10.650

@<SCITEGIC>MOL_PROPERTY
VdW12
SciTegic.value.DoubleValue
11.903

@<SCITEGIC>MOL_PROPERTY
Bond
SciTegic.value.DoubleValue
0.331

@<SCITEGIC>MOL_PROPERTY
Angle
SciTegic.value.DoubleValue
2.253

@<SCITEGIC>MOL_PROPERTY
Pdih
SciTegic.value.DoubleValue
4.671

@<SCITEGIC>MOL_PROPERTY
Idih
SciTegic.value.DoubleValue
0.000

@<SCITEGIC>MOL_PROPERTY
Tether
SciTegic.value.DoubleValue
0.000

@<TRIPOS>MOLECULE
guest-s15_vm2.mol2 : vm2 ligand conformer 151
          29          28           1
SMALL
USER_CHARGES
 
@<TRIPOS>ATOM
       1    C1      18.195270   18.917220   20.405493 C.3        1 MOL1        -0.2426
       2    H1      17.888523   18.322595   21.274802 H          1 MOL1         0.0959
       3    H2      17.754250   19.918100   20.499050 H          1 MOL1         0.0959
       4    H3      17.765109   18.442968   19.513878 H          1 MOL1         0.0959
       5    C2      19.734147   18.996892   20.285680 C.3        1 MOL1        -0.1410
       6    H4      19.990052   19.489075   19.336987 H          1 MOL1         0.0948
       7    H5      20.153332   17.982622   20.228603 H          1 MOL1         0.0948
       8    C3      20.403134   19.775198   21.444260 C.3        1 MOL1        -0.1435
       9    H6      21.474208   19.877148   21.221438 H          1 MOL1         0.0948
      10    H7      19.997015   20.795368   21.483572 H          1 MOL1         0.0948
      11    C4      20.234843   19.092442   22.822686 C.3        1 MOL1        -0.1435
      12    H8      20.603755   18.059087   22.767081 H          1 MOL1         0.0948
      13    H9      19.168932   19.047504   23.070591 H          1 MOL1         0.0948
      14    C5      20.990998   19.855125   23.935328 C.3        1 MOL1        -0.1435
      15    H10     22.024014   20.026345   23.602425 H          1 MOL1         0.0948
      16    H11     20.552150   20.853942   24.061463 H          1 MOL1         0.0948
      17    C6      21.054270   19.123262   25.306205 C.3        1 MOL1        -0.1500
      18    H12     21.658875   19.745033   25.979344 H          1 MOL1         0.0948
      19    H13     21.616876   18.186631   25.197537 H          1 MOL1         0.0948
      20    C7      19.711109   18.840396   26.028063 C.3        1 MOL1         0.1162
      21    H14     19.940007   18.765364   27.095634 H          1 MOL1         0.0910
      22    C8      19.091458   17.489889   25.623238 C.3        1 MOL1        -0.2491
      23    H15     18.213892   17.272145   26.244220 H          1 MOL1         0.0959
      24    H16     18.770163   17.471564   24.577759 H          1 MOL1         0.0959
      25    H17     19.808949   16.673556   25.772248 H          1 MOL1         0.0959
      26    N1      18.720771   19.965574   25.903046 N.4        1 MOL1        -0.5987
      27    H18     19.108802   20.844529   26.257405 H          1 MOL1         0.3605
      28    H19     17.864832   19.772527   26.431040 H          1 MOL1         0.3605
      29    H20     18.457197   20.116398   24.926142 H          1 MOL1         0.3605
@<TRIPOS>BOND
    1     1     2    1
    2     1     3    1
    3     1     4    1
    4     1     5    1
    5     5     6    1
    6     5     7    1
    7     5     8    1
    8     8     9    1
    9     8    10    1
   10     8    11    1
   11    11    12    1
   12    11    13    1
   13    11    14    1
   14    14    15    1
   15    14    16    1
   16    14    17    1
   17    17    18    1
   18    17    19    1
   19    17    20    1
   20    20    21    1
   21    20    22    1
   22    22    23    1
   23    22    24    1
   24    22    25    1
   25    20    26    1
   26    26    27    1
   27    26    28    1
   28    26    29    1
@<TRIPOS>SUBSTRUCTURE
       1 MOL1            1 RESIDUE      1      MOL     
@<SCITEGIC>MOL_PROPERTY
VM2 Rank
SciTegic.value.IntegerValue
151

@<SCITEGIC>MOL_PROPERTY
Conf_Id
SciTegic.value.IntegerValue
1343

@<SCITEGIC>MOL_PROPERTY
Probability
SciTegic.value.DoubleValue
0.00

@<SCITEGIC>MOL_PROPERTY
Sum Probability
SciTegic.value.DoubleValue
99.94

@<SCITEGIC>MOL_PROPERTY
Delta G
SciTegic.value.DoubleValue
4.645

@<SCITEGIC>MOL_PROPERTY
G
SciTegic.value.DoubleValue
38.347

@<SCITEGIC>MOL_PROPERTY
E
SciTegic.value.DoubleValue
0.337

@<SCITEGIC>MOL_PROPERTY
-TS
SciTegic.value.DoubleValue
38.010

@<SCITEGIC>MOL_PROPERTY
U+W
SciTegic.value.DoubleValue
-23.808

@<SCITEGIC>MOL_PROPERTY
U
SciTegic.value.DoubleValue
28.617

@<SCITEGIC>MOL_PROPERTY
W
SciTegic.value.DoubleValue
-52.424

@<SCITEGIC>MOL_PROPERTY
W(PB)
SciTegic.value.DoubleValue
-54.855

@<SCITEGIC>MOL_PROPERTY
W(SA)
SciTegic.value.DoubleValue
2.430

@<SCITEGIC>MOL_PROPERTY
Valence
SciTegic.value.DoubleValue
6.762

@<SCITEGIC>MOL_PROPERTY
Coulomb
SciTegic.value.DoubleValue
20.675

@<SCITEGIC>MOL_PROPERTY
VdW
SciTegic.value.DoubleValue
1.180

@<SCITEGIC>MOL_PROPERTY
VdW6
SciTegic.value.DoubleValue
-10.633

@<SCITEGIC>MOL_PROPERTY
VdW12
SciTegic.value.DoubleValue
11.813

@<SCITEGIC>MOL_PROPERTY
Bond
SciTegic.value.DoubleValue
0.336

@<SCITEGIC>MOL_PROPERTY
Angle
SciTegic.value.DoubleValue
2.592

@<SCITEGIC>MOL_PROPERTY
Pdih
SciTegic.value.DoubleValue
3.834

@<SCITEGIC>MOL_PROPERTY
Idih
SciTegic.value.DoubleValue
0.000

@<SCITEGIC>MOL_PROPERTY
Tether
SciTegic.value.DoubleValue
0.000

@<TRIPOS>MOLECULE
guest-s15_vm2.mol2 : vm2 ligand conformer 152
          29          28           1
SMALL
USER_CHARGES
 
@<TRIPOS>ATOM
       1    C1      18.598970   18.922248   19.813258 C.3        1 MOL1        -0.2426
       2    H1      19.058277   18.105403   19.241417 H          1 MOL1         0.0959
       3    H2      17.717223   18.523442   20.331598 H          1 MOL1         0.0959
       4    H3      18.255424   19.681727   19.098994 H          1 MOL1         0.0959
       5    C2      19.602505   19.531199   20.815198 C.3        1 MOL1        -0.1410
       6    H4      19.120292   20.367716   21.338231 H          1 MOL1         0.0948
       7    H5      20.458449   19.948134   20.266461 H          1 MOL1         0.0948
       8    C3      20.097847   18.479921   21.835633 C.3        1 MOL1        -0.1435
       9    H6      19.244720   18.095790   22.408729 H          1 MOL1         0.0948
      10    H7      20.507380   17.619041   21.289499 H          1 MOL1         0.0948
      11    C4      21.193683   19.015030   22.794259 C.3        1 MOL1        -0.1435
      12    H8      22.064118   19.317254   22.195807 H          1 MOL1         0.0948
      13    H9      21.552102   18.197452   23.432329 H          1 MOL1         0.0948
      14    C5      20.768799   20.214595   23.680916 C.3        1 MOL1        -0.1435
      15    H10     21.627937   20.517907   24.295027 H          1 MOL1         0.0948
      16    H11     20.555718   21.077739   23.036711 H          1 MOL1         0.0948
      17    C6      19.550763   19.976129   24.613153 C.3        1 MOL1        -0.1500
      18    H12     18.663529   19.688178   24.035236 H          1 MOL1         0.0948
      19    H13     19.301290   20.947922   25.059241 H          1 MOL1         0.0948
      20    C7      19.814366   18.965203   25.756623 C.3        1 MOL1         0.1162
      21    H14     20.891147   18.938440   25.949705 H          1 MOL1         0.0910
      22    C8      19.338522   17.544576   25.402623 C.3        1 MOL1        -0.2491
      23    H15     18.262048   17.528496   25.191367 H          1 MOL1         0.0959
      24    H16     19.862393   17.147838   24.527825 H          1 MOL1         0.0959
      25    H17     19.529848   16.856027   26.234848 H          1 MOL1         0.0959
      26    N1      19.170544   19.407099   27.042336 N.4        1 MOL1        -0.5987
      27    H18     19.505160   20.330343   27.333242 H          1 MOL1         0.3605
      28    H19     19.374030   18.755189   27.805431 H          1 MOL1         0.3605
      29    H20     18.152499   19.462435   26.950846 H          1 MOL1         0.3605
@<TRIPOS>BOND
    1     1     2    1
    2     1     3    1
    3     1     4    1
    4     1     5    1
    5     5     6    1
    6     5     7    1
    7     5     8    1
    8     8     9    1
    9     8    10    1
   10     8    11    1
   11    11    12    1
   12    11    13    1
   13    11    14    1
   14    14    15    1
   15    14    16    1
   16    14    17    1
   17    17    18    1
   18    17    19    1
   19    17    20    1
   20    20    21    1
   21    20    22    1
   22    22    23    1
   23    22    24    1
   24    22    25    1
   25    20    26    1
   26    26    27    1
   27    26    28    1
   28    26    29    1
@<TRIPOS>SUBSTRUCTURE
       1 MOL1            1 RESIDUE      1      MOL     
@<SCITEGIC>MOL_PROPERTY
VM2 Rank
SciTegic.value.IntegerValue
152

@<SCITEGIC>MOL_PROPERTY
Conf_Id
SciTegic.value.IntegerValue
339

@<SCITEGIC>MOL_PROPERTY
Probability
SciTegic.value.DoubleValue
0.00

@<SCITEGIC>MOL_PROPERTY
Sum Probability
SciTegic.value.DoubleValue
99.94

@<SCITEGIC>MOL_PROPERTY
Delta G
SciTegic.value.DoubleValue
4.646

@<SCITEGIC>MOL_PROPERTY
G
SciTegic.value.DoubleValue
38.348

@<SCITEGIC>MOL_PROPERTY
E
SciTegic.value.DoubleValue
0.130

@<SCITEGIC>MOL_PROPERTY
-TS
SciTegic.value.DoubleValue
38.218

@<SCITEGIC>MOL_PROPERTY
U+W
SciTegic.value.DoubleValue
-24.015

@<SCITEGIC>MOL_PROPERTY
U
SciTegic.value.DoubleValue
28.474

@<SCITEGIC>MOL_PROPERTY
W
SciTegic.value.DoubleValue
-52.488

@<SCITEGIC>MOL_PROPERTY
W(PB)
SciTegic.value.DoubleValue
-54.906

@<SCITEGIC>MOL_PROPERTY
W(SA)
SciTegic.value.DoubleValue
2.418

@<SCITEGIC>MOL_PROPERTY
Valence
SciTegic.value.DoubleValue
7.437

@<SCITEGIC>MOL_PROPERTY
Coulomb
SciTegic.value.DoubleValue
20.128

@<SCITEGIC>MOL_PROPERTY
VdW
SciTegic.value.DoubleValue
0.909

@<SCITEGIC>MOL_PROPERTY
VdW6
SciTegic.value.DoubleValue
-11.079

@<SCITEGIC>MOL_PROPERTY
VdW12
SciTegic.value.DoubleValue
11.988

@<SCITEGIC>MOL_PROPERTY
Bond
SciTegic.value.DoubleValue
0.324

@<SCITEGIC>MOL_PROPERTY
Angle
SciTegic.value.DoubleValue
2.509

@<SCITEGIC>MOL_PROPERTY
Pdih
SciTegic.value.DoubleValue
4.604

@<SCITEGIC>MOL_PROPERTY
Idih
SciTegic.value.DoubleValue
0.000

@<SCITEGIC>MOL_PROPERTY
Tether
SciTegic.value.DoubleValue
0.000

@<TRIPOS>MOLECULE
guest-s15_vm2.mol2 : vm2 ligand conformer 153
          29          28           1
SMALL
USER_CHARGES
 
@<TRIPOS>ATOM
       1    C1      18.157514   18.874545   20.969368 C.3        1 MOL1        -0.2426
       2    H1      18.270430   17.923503   20.432988 H          1 MOL1         0.0959
       3    H2      17.992609   18.653802   22.030794 H          1 MOL1         0.0959
       4    H3      17.253891   19.369206   20.590419 H          1 MOL1         0.0959
       5    C2      19.394791   19.777305   20.764987 C.3        1 MOL1        -0.1410
       6    H4      19.269126   20.711921   21.327575 H          1 MOL1         0.0948
       7    H5      19.447933   20.069295   19.706908 H          1 MOL1         0.0948
       8    C3      20.729528   19.091991   21.153879 C.3        1 MOL1        -0.1435
       9    H6      20.890660   18.229353   20.492831 H          1 MOL1         0.0948
      10    H7      21.556237   19.785853   20.948448 H          1 MOL1         0.0948
      11    C4      20.826005   18.614387   22.625883 C.3        1 MOL1        -0.1435
      12    H8      21.804160   18.134013   22.764735 H          1 MOL1         0.0948
      13    H9      20.081374   17.831456   22.806036 H          1 MOL1         0.0948
      14    C5      20.679365   19.763242   23.657000 C.3        1 MOL1        -0.1435
      15    H10     21.409966   20.542609   23.400230 H          1 MOL1         0.0948
      16    H11     19.692828   20.234437   23.571869 H          1 MOL1         0.0948
      17    C6      20.940524   19.321125   25.124367 C.3        1 MOL1        -0.1500
      18    H12     21.413315   20.158185   25.654728 H          1 MOL1         0.0948
      19    H13     21.682303   18.512031   25.145338 H          1 MOL1         0.0948
      20    C7      19.696903   18.899221   25.945836 C.3        1 MOL1         0.1162
      21    H14     20.052360   18.621787   26.943029 H          1 MOL1         0.0910
      22    C8      18.974862   17.676049   25.359079 C.3        1 MOL1        -0.2491
      23    H15     19.681261   16.858631   25.168630 H          1 MOL1         0.0959
      24    H16     18.218586   17.305485   26.061805 H          1 MOL1         0.0959
      25    H17     18.464077   17.923193   24.421625 H          1 MOL1         0.0959
      26    N1      18.736507   20.038134   26.153602 N.4        1 MOL1        -0.5987
      27    H18     19.194893   20.839192   26.597344 H          1 MOL1         0.3605
      28    H19     17.954196   19.762159   26.754000 H          1 MOL1         0.3605
      29    H20     18.344050   20.360276   25.265650 H          1 MOL1         0.3605
@<TRIPOS>BOND
    1     1     2    1
    2     1     3    1
    3     1     4    1
    4     1     5    1
    5     5     6    1
    6     5     7    1
    7     5     8    1
    8     8     9    1
    9     8    10    1
   10     8    11    1
   11    11    12    1
   12    11    13    1
   13    11    14    1
   14    14    15    1
   15    14    16    1
   16    14    17    1
   17    17    18    1
   18    17    19    1
   19    17    20    1
   20    20    21    1
   21    20    22    1
   22    22    23    1
   23    22    24    1
   24    22    25    1
   25    20    26    1
   26    26    27    1
   27    26    28    1
   28    26    29    1
@<TRIPOS>SUBSTRUCTURE
       1 MOL1            1 RESIDUE      1      MOL     
@<SCITEGIC>MOL_PROPERTY
VM2 Rank
SciTegic.value.IntegerValue
153

@<SCITEGIC>MOL_PROPERTY
Conf_Id
SciTegic.value.IntegerValue
603

@<SCITEGIC>MOL_PROPERTY
Probability
SciTegic.value.DoubleValue
0.00

@<SCITEGIC>MOL_PROPERTY
Sum Probability
SciTegic.value.DoubleValue
99.95

@<SCITEGIC>MOL_PROPERTY
Delta G
SciTegic.value.DoubleValue
4.673

@<SCITEGIC>MOL_PROPERTY
G
SciTegic.value.DoubleValue
38.375

@<SCITEGIC>MOL_PROPERTY
E
SciTegic.value.DoubleValue
0.080

@<SCITEGIC>MOL_PROPERTY
-TS
SciTegic.value.DoubleValue
38.296

@<SCITEGIC>MOL_PROPERTY
U+W
SciTegic.value.DoubleValue
-24.065

@<SCITEGIC>MOL_PROPERTY
U
SciTegic.value.DoubleValue
28.758

@<SCITEGIC>MOL_PROPERTY
W
SciTegic.value.DoubleValue
-52.823

@<SCITEGIC>MOL_PROPERTY
W(PB)
SciTegic.value.DoubleValue
-55.197

@<SCITEGIC>MOL_PROPERTY
W(SA)
SciTegic.value.DoubleValue
2.374

@<SCITEGIC>MOL_PROPERTY
Valence
SciTegic.value.DoubleValue
7.223

@<SCITEGIC>MOL_PROPERTY
Coulomb
SciTegic.value.DoubleValue
20.589

@<SCITEGIC>MOL_PROPERTY
VdW
SciTegic.value.DoubleValue
0.946

@<SCITEGIC>MOL_PROPERTY
VdW6
SciTegic.value.DoubleValue
-11.470

@<SCITEGIC>MOL_PROPERTY
VdW12
SciTegic.value.DoubleValue
12.416

@<SCITEGIC>MOL_PROPERTY
Bond
SciTegic.value.DoubleValue
0.372

@<SCITEGIC>MOL_PROPERTY
Angle
SciTegic.value.DoubleValue
2.546

@<SCITEGIC>MOL_PROPERTY
Pdih
SciTegic.value.DoubleValue
4.304

@<SCITEGIC>MOL_PROPERTY
Idih
SciTegic.value.DoubleValue
0.000

@<SCITEGIC>MOL_PROPERTY
Tether
SciTegic.value.DoubleValue
0.000

@<TRIPOS>MOLECULE
guest-s15_vm2.mol2 : vm2 ligand conformer 154
          29          28           1
SMALL
USER_CHARGES
 
@<TRIPOS>ATOM
       1    C1      18.267909   19.642636   19.914849 C.3        1 MOL1        -0.2426
       2    H1      18.422204   18.681874   19.406536 H          1 MOL1         0.0959
       3    H2      17.364580   19.561105   20.533358 H          1 MOL1         0.0959
       4    H3      18.082575   20.404431   19.146503 H          1 MOL1         0.0959
       5    C2      19.494973   20.020045   20.771280 C.3        1 MOL1        -0.1410
       6    H4      19.324665   20.999589   21.239383 H          1 MOL1         0.0948
       7    H5      20.373935   20.128547   20.120435 H          1 MOL1         0.0948
       8    C3      19.779318   18.961535   21.859464 C.3        1 MOL1        -0.1435
       9    H6      18.888234   18.845690   22.488483 H          1 MOL1         0.0948
      10    H7      19.956514   17.987117   21.383597 H          1 MOL1         0.0948
      11    C4      21.006953   19.341267   22.722228 C.3        1 MOL1        -0.1435
      12    H8      20.861983   20.323097   23.188783 H          1 MOL1         0.0948
      13    H9      21.876251   19.459487   22.060456 H          1 MOL1         0.0948
      14    C5      21.363343   18.283395   23.797640 C.3        1 MOL1        -0.1435
      15    H10     21.648265   17.352594   23.288010 H          1 MOL1         0.0948
      16    H11     22.264416   18.616550   24.330974 H          1 MOL1         0.0948
      17    C6      20.261323   17.951340   24.841465 C.3        1 MOL1        -0.1500
      18    H12     20.659567   17.152277   25.480919 H          1 MOL1         0.0948
      19    H13     19.378298   17.521075   24.352477 H          1 MOL1         0.0948
      20    C7      19.846738   19.138544   25.742652 C.3        1 MOL1         0.1162
      21    H14     20.746825   19.705612   25.999097 H          1 MOL1         0.0910
      22    C8      19.211339   18.627488   27.046122 C.3        1 MOL1        -0.2491
      23    H15     19.915848   17.997872   27.603810 H          1 MOL1         0.0959
      24    H16     18.930545   19.465382   27.696184 H          1 MOL1         0.0959
      25    H17     18.310339   18.035214   26.842645 H          1 MOL1         0.0959
      26    N1      18.904104   20.089751   25.058301 N.4        1 MOL1        -0.5987
      27    H18     18.006398   19.640837   24.858350 H          1 MOL1         0.3605
      28    H19     19.290455   20.417508   24.169248 H          1 MOL1         0.3605
      29    H20     18.713560   20.911104   25.639758 H          1 MOL1         0.3605
@<TRIPOS>BOND
    1     1     2    1
    2     1     3    1
    3     1     4    1
    4     1     5    1
    5     5     6    1
    6     5     7    1
    7     5     8    1
    8     8     9    1
    9     8    10    1
   10     8    11    1
   11    11    12    1
   12    11    13    1
   13    11    14    1
   14    14    15    1
   15    14    16    1
   16    14    17    1
   17    17    18    1
   18    17    19    1
   19    17    20    1
   20    20    21    1
   21    20    22    1
   22    22    23    1
   23    22    24    1
   24    22    25    1
   25    20    26    1
   26    26    27    1
   27    26    28    1
   28    26    29    1
@<TRIPOS>SUBSTRUCTURE
       1 MOL1            1 RESIDUE      1      MOL     
@<SCITEGIC>MOL_PROPERTY
VM2 Rank
SciTegic.value.IntegerValue
154

@<SCITEGIC>MOL_PROPERTY
Conf_Id
SciTegic.value.IntegerValue
980

@<SCITEGIC>MOL_PROPERTY
Probability
SciTegic.value.DoubleValue
0.00

@<SCITEGIC>MOL_PROPERTY
Sum Probability
SciTegic.value.DoubleValue
99.95

@<SCITEGIC>MOL_PROPERTY
Delta G
SciTegic.value.DoubleValue
4.699

@<SCITEGIC>MOL_PROPERTY
G
SciTegic.value.DoubleValue
38.402

@<SCITEGIC>MOL_PROPERTY
E
SciTegic.value.DoubleValue
0.344

@<SCITEGIC>MOL_PROPERTY
-TS
SciTegic.value.DoubleValue
38.058

@<SCITEGIC>MOL_PROPERTY
U+W
SciTegic.value.DoubleValue
-23.801

@<SCITEGIC>MOL_PROPERTY
U
SciTegic.value.DoubleValue
27.762

@<SCITEGIC>MOL_PROPERTY
W
SciTegic.value.DoubleValue
-51.563

@<SCITEGIC>MOL_PROPERTY
W(PB)
SciTegic.value.DoubleValue
-54.039

@<SCITEGIC>MOL_PROPERTY
W(SA)
SciTegic.value.DoubleValue
2.477

@<SCITEGIC>MOL_PROPERTY
Valence
SciTegic.value.DoubleValue
5.445

@<SCITEGIC>MOL_PROPERTY
Coulomb
SciTegic.value.DoubleValue
21.562

@<SCITEGIC>MOL_PROPERTY
VdW
SciTegic.value.DoubleValue
0.755

@<SCITEGIC>MOL_PROPERTY
VdW6
SciTegic.value.DoubleValue
-10.491

@<SCITEGIC>MOL_PROPERTY
VdW12
SciTegic.value.DoubleValue
11.245

@<SCITEGIC>MOL_PROPERTY
Bond
SciTegic.value.DoubleValue
0.290

@<SCITEGIC>MOL_PROPERTY
Angle
SciTegic.value.DoubleValue
2.160

@<SCITEGIC>MOL_PROPERTY
Pdih
SciTegic.value.DoubleValue
2.995

@<SCITEGIC>MOL_PROPERTY
Idih
SciTegic.value.DoubleValue
0.000

@<SCITEGIC>MOL_PROPERTY
Tether
SciTegic.value.DoubleValue
0.000

@<TRIPOS>MOLECULE
guest-s15_vm2.mol2 : vm2 ligand conformer 155
          29          28           1
SMALL
USER_CHARGES
 
@<TRIPOS>ATOM
       1    C1      19.706382   20.894757   21.317721 C.3        1 MOL1        -0.2426
       2    H1      18.638496   21.138032   21.390394 H          1 MOL1         0.0959
       3    H2      20.120986   20.878323   22.330981 H          1 MOL1         0.0959
       4    H3      20.197522   21.712599   20.774817 H          1 MOL1         0.0959
       5    C2      19.919503   19.553476   20.578152 C.3        1 MOL1        -0.1410
       6    H4      20.992419   19.334264   20.487482 H          1 MOL1         0.0948
       7    H5      19.548575   19.674389   19.550711 H          1 MOL1         0.0948
       8    C3      19.177875   18.356120   21.227320 C.3        1 MOL1        -0.1435
       9    H6      18.240766   18.690214   21.691151 H          1 MOL1         0.0948
      10    H7      18.871437   17.675775   20.420773 H          1 MOL1         0.0948
      11    C4      20.025398   17.523458   22.227497 C.3        1 MOL1        -0.1435
      12    H8      20.890372   17.107802   21.692533 H          1 MOL1         0.0948
      13    H9      19.432936   16.656630   22.551117 H          1 MOL1         0.0948
      14    C5      20.536840   18.270864   23.484315 C.3        1 MOL1        -0.1435
      15    H10     21.163514   17.572661   24.053887 H          1 MOL1         0.0948
      16    H11     21.199779   19.092696   23.186422 H          1 MOL1         0.0948
      17    C6      19.398528   18.798404   24.396170 C.3        1 MOL1        -0.1500
      18    H12     18.785960   17.956967   24.745871 H          1 MOL1         0.0948
      19    H13     18.733720   19.440929   23.807126 H          1 MOL1         0.0948
      20    C7      19.901987   19.615381   25.607924 C.3        1 MOL1         0.1162
      21    H14     20.549677   20.415608   25.236814 H          1 MOL1         0.0910
      22    C8      20.708481   18.754326   26.596578 C.3        1 MOL1        -0.2491
      23    H15     21.002216   19.345305   27.472825 H          1 MOL1         0.0959
      24    H16     20.120858   17.896468   26.946548 H          1 MOL1         0.0959
      25    H17     21.629611   18.376660   26.138209 H          1 MOL1         0.0959
      26    N1      18.761006   20.289213   26.318325 N.4        1 MOL1        -0.5987
      27    H18     18.235351   20.903789   25.690048 H          1 MOL1         0.3605
      28    H19     19.093352   20.863276   27.098520 H          1 MOL1         0.3605
      29    H20     18.103224   19.604861   26.701414 H          1 MOL1         0.3605
@<TRIPOS>BOND
    1     1     2    1
    2     1     3    1
    3     1     4    1
    4     1     5    1
    5     5     6    1
    6     5     7    1
    7     5     8    1
    8     8     9    1
    9     8    10    1
   10     8    11    1
   11    11    12    1
   12    11    13    1
   13    11    14    1
   14    14    15    1
   15    14    16    1
   16    14    17    1
   17    17    18    1
   18    17    19    1
   19    17    20    1
   20    20    21    1
   21    20    22    1
   22    22    23    1
   23    22    24    1
   24    22    25    1
   25    20    26    1
   26    26    27    1
   27    26    28    1
   28    26    29    1
@<TRIPOS>SUBSTRUCTURE
       1 MOL1            1 RESIDUE      1      MOL     
@<SCITEGIC>MOL_PROPERTY
VM2 Rank
SciTegic.value.IntegerValue
155

@<SCITEGIC>MOL_PROPERTY
Conf_Id
SciTegic.value.IntegerValue
1348

@<SCITEGIC>MOL_PROPERTY
Probability
SciTegic.value.DoubleValue
0.00

@<SCITEGIC>MOL_PROPERTY
Sum Probability
SciTegic.value.DoubleValue
99.96

@<SCITEGIC>MOL_PROPERTY
Delta G
SciTegic.value.DoubleValue
4.741

@<SCITEGIC>MOL_PROPERTY
G
SciTegic.value.DoubleValue
38.443

@<SCITEGIC>MOL_PROPERTY
E
SciTegic.value.DoubleValue
0.215

@<SCITEGIC>MOL_PROPERTY
-TS
SciTegic.value.DoubleValue
38.228

@<SCITEGIC>MOL_PROPERTY
U+W
SciTegic.value.DoubleValue
-23.929

@<SCITEGIC>MOL_PROPERTY
U
SciTegic.value.DoubleValue
28.830

@<SCITEGIC>MOL_PROPERTY
W
SciTegic.value.DoubleValue
-52.759

@<SCITEGIC>MOL_PROPERTY
W(PB)
SciTegic.value.DoubleValue
-55.174

@<SCITEGIC>MOL_PROPERTY
W(SA)
SciTegic.value.DoubleValue
2.415

@<SCITEGIC>MOL_PROPERTY
Valence
SciTegic.value.DoubleValue
7.353

@<SCITEGIC>MOL_PROPERTY
Coulomb
SciTegic.value.DoubleValue
20.480

@<SCITEGIC>MOL_PROPERTY
VdW
SciTegic.value.DoubleValue
0.996

@<SCITEGIC>MOL_PROPERTY
VdW6
SciTegic.value.DoubleValue
-11.026

@<SCITEGIC>MOL_PROPERTY
VdW12
SciTegic.value.DoubleValue
12.023

@<SCITEGIC>MOL_PROPERTY
Bond
SciTegic.value.DoubleValue
0.342

@<SCITEGIC>MOL_PROPERTY
Angle
SciTegic.value.DoubleValue
2.651

@<SCITEGIC>MOL_PROPERTY
Pdih
SciTegic.value.DoubleValue
4.359

@<SCITEGIC>MOL_PROPERTY
Idih
SciTegic.value.DoubleValue
0.000

@<SCITEGIC>MOL_PROPERTY
Tether
SciTegic.value.DoubleValue
0.000

@<TRIPOS>MOLECULE
guest-s15_vm2.mol2 : vm2 ligand conformer 156
          29          28           1
SMALL
USER_CHARGES
 
@<TRIPOS>ATOM
       1    C1      19.069195   19.735449   19.382870 C.3        1 MOL1        -0.2426
       2    H1      18.413434   20.549852   19.048578 H          1 MOL1         0.0959
       3    H2      20.061527   19.899297   18.942783 H          1 MOL1         0.0959
       4    H3      18.668729   18.794766   18.982915 H          1 MOL1         0.0959
       5    C2      19.146170   19.695482   20.923748 C.3        1 MOL1        -0.1410
       6    H4      18.136148   19.560511   21.335051 H          1 MOL1         0.0948
       7    H5      19.512126   20.664842   21.287540 H          1 MOL1         0.0948
       8    C3      20.068793   18.556735   21.418658 C.3        1 MOL1        -0.1435
       9    H6      19.727784   17.606321   20.985385 H          1 MOL1         0.0948
      10    H7      21.089001   18.717307   21.043651 H          1 MOL1         0.0948
      11    C4      20.098491   18.411778   22.959770 C.3        1 MOL1        -0.1435
      12    H8      20.693754   17.524260   23.214878 H          1 MOL1         0.0948
      13    H9      19.078118   18.223037   23.314670 H          1 MOL1         0.0948
      14    C5      20.692674   19.646729   23.680387 C.3        1 MOL1        -0.1435
      15    H10     21.620457   19.936305   23.167989 H          1 MOL1         0.0948
      16    H11     20.015904   20.504395   23.576191 H          1 MOL1         0.0948
      17    C6      21.032144   19.426725   25.182033 C.3        1 MOL1        -0.1500
      18    H12     21.500517   20.349559   25.548463 H          1 MOL1         0.0948
      19    H13     21.807161   18.654580   25.275453 H          1 MOL1         0.0948
      20    C7      19.856220   19.099802   26.138807 C.3        1 MOL1         0.1162
      21    H14     20.172985   19.408659   27.139804 H          1 MOL1         0.0910
      22    C8      19.559799   17.591249   26.224973 C.3        1 MOL1        -0.2491
      23    H15     18.819606   17.393264   27.009874 H          1 MOL1         0.0959
      24    H16     19.164235   17.187759   25.288322 H          1 MOL1         0.0959
      25    H17     20.467257   17.030636   26.481127 H          1 MOL1         0.0959
      26    N1      18.612513   19.892051   25.842754 N.4        1 MOL1        -0.5987
      27    H18     17.871314   19.694031   26.521059 H          1 MOL1         0.3605
      28    H19     18.249909   19.671776   24.911874 H          1 MOL1         0.3605
      29    H20     18.795862   20.899095   25.872966 H          1 MOL1         0.3605
@<TRIPOS>BOND
    1     1     2    1
    2     1     3    1
    3     1     4    1
    4     1     5    1
    5     5     6    1
    6     5     7    1
    7     5     8    1
    8     8     9    1
    9     8    10    1
   10     8    11    1
   11    11    12    1
   12    11    13    1
   13    11    14    1
   14    14    15    1
   15    14    16    1
   16    14    17    1
   17    17    18    1
   18    17    19    1
   19    17    20    1
   20    20    21    1
   21    20    22    1
   22    22    23    1
   23    22    24    1
   24    22    25    1
   25    20    26    1
   26    26    27    1
   27    26    28    1
   28    26    29    1
@<TRIPOS>SUBSTRUCTURE
       1 MOL1            1 RESIDUE      1      MOL     
@<SCITEGIC>MOL_PROPERTY
VM2 Rank
SciTegic.value.IntegerValue
156

@<SCITEGIC>MOL_PROPERTY
Conf_Id
SciTegic.value.IntegerValue
671

@<SCITEGIC>MOL_PROPERTY
Probability
SciTegic.value.DoubleValue
0.00

@<SCITEGIC>MOL_PROPERTY
Sum Probability
SciTegic.value.DoubleValue
99.96

@<SCITEGIC>MOL_PROPERTY
Delta G
SciTegic.value.DoubleValue
4.782

@<SCITEGIC>MOL_PROPERTY
G
SciTegic.value.DoubleValue
38.484

@<SCITEGIC>MOL_PROPERTY
E
SciTegic.value.DoubleValue
0.472

@<SCITEGIC>MOL_PROPERTY
-TS
SciTegic.value.DoubleValue
38.013

@<SCITEGIC>MOL_PROPERTY
U+W
SciTegic.value.DoubleValue
-23.673

@<SCITEGIC>MOL_PROPERTY
U
SciTegic.value.DoubleValue
28.749

@<SCITEGIC>MOL_PROPERTY
W
SciTegic.value.DoubleValue
-52.422

@<SCITEGIC>MOL_PROPERTY
W(PB)
SciTegic.value.DoubleValue
-54.870

@<SCITEGIC>MOL_PROPERTY
W(SA)
SciTegic.value.DoubleValue
2.448

@<SCITEGIC>MOL_PROPERTY
Valence
SciTegic.value.DoubleValue
6.743

@<SCITEGIC>MOL_PROPERTY
Coulomb
SciTegic.value.DoubleValue
20.841

@<SCITEGIC>MOL_PROPERTY
VdW
SciTegic.value.DoubleValue
1.165

@<SCITEGIC>MOL_PROPERTY
VdW6
SciTegic.value.DoubleValue
-10.610

@<SCITEGIC>MOL_PROPERTY
VdW12
SciTegic.value.DoubleValue
11.775

@<SCITEGIC>MOL_PROPERTY
Bond
SciTegic.value.DoubleValue
0.335

@<SCITEGIC>MOL_PROPERTY
Angle
SciTegic.value.DoubleValue
2.545

@<SCITEGIC>MOL_PROPERTY
Pdih
SciTegic.value.DoubleValue
3.863

@<SCITEGIC>MOL_PROPERTY
Idih
SciTegic.value.DoubleValue
0.000

@<SCITEGIC>MOL_PROPERTY
Tether
SciTegic.value.DoubleValue
0.000

@<TRIPOS>MOLECULE
guest-s15_vm2.mol2 : vm2 ligand conformer 157
          29          28           1
SMALL
USER_CHARGES
 
@<TRIPOS>ATOM
       1    C1      19.200219   20.351655   20.497910 C.3        1 MOL1        -0.2426
       2    H1      18.912773   21.396139   20.321141 H          1 MOL1         0.0959
       3    H2      19.661525   19.969632   19.578026 H          1 MOL1         0.0959
       4    H3      18.280815   19.782619   20.683759 H          1 MOL1         0.0959
       5    C2      20.177048   20.253387   21.690942 C.3        1 MOL1        -0.1410
       6    H4      19.685329   20.626006   22.597323 H          1 MOL1         0.0948
       7    H5      21.025820   20.927299   21.509281 H          1 MOL1         0.0948
       8    C3      20.724121   18.821443   21.920393 C.3        1 MOL1        -0.1435
       9    H6      21.283726   18.515165   21.025921 H          1 MOL1         0.0948
      10    H7      21.463266   18.836069   22.731084 H          1 MOL1         0.0948
      11    C4      19.649636   17.742417   22.216257 C.3        1 MOL1        -0.1435
      12    H8      20.153113   16.774003   22.341319 H          1 MOL1         0.0948
      13    H9      19.011077   17.622946   21.331005 H          1 MOL1         0.0948
      14    C5      18.743160   17.996669   23.450652 C.3        1 MOL1        -0.1435
      15    H10     18.165432   18.920079   23.321302 H          1 MOL1         0.0948
      16    H11     17.996330   17.191148   23.474262 H          1 MOL1         0.0948
      17    C6      19.487830   17.986180   24.813531 C.3        1 MOL1        -0.1500
      18    H12     20.269606   17.215499   24.788665 H          1 MOL1         0.0948
      19    H13     18.785398   17.674920   25.598137 H          1 MOL1         0.0948
      20    C7      20.102925   19.343066   25.223846 C.3        1 MOL1         0.1162
      21    H14     20.723367   19.712342   24.404282 H          1 MOL1         0.0910
      22    C8      20.998182   19.171155   26.460964 C.3        1 MOL1        -0.2491
      23    H15     21.807060   18.457565   26.260334 H          1 MOL1         0.0959
      24    H16     21.459498   20.125839   26.742326 H          1 MOL1         0.0959
      25    H17     20.422778   18.803004   27.319639 H          1 MOL1         0.0959
      26    N1      19.052879   20.390027   25.479506 N.4        1 MOL1        -0.5987
      27    H18     18.460244   20.535321   24.658105 H          1 MOL1         0.3605
      28    H19     19.474112   21.291645   25.721146 H          1 MOL1         0.3605
      29    H20     18.442126   20.120668   26.255484 H          1 MOL1         0.3605
@<TRIPOS>BOND
    1     1     2    1
    2     1     3    1
    3     1     4    1
    4     1     5    1
    5     5     6    1
    6     5     7    1
    7     5     8    1
    8     8     9    1
    9     8    10    1
   10     8    11    1
   11    11    12    1
   12    11    13    1
   13    11    14    1
   14    14    15    1
   15    14    16    1
   16    14    17    1
   17    17    18    1
   18    17    19    1
   19    17    20    1
   20    20    21    1
   21    20    22    1
   22    22    23    1
   23    22    24    1
   24    22    25    1
   25    20    26    1
   26    26    27    1
   27    26    28    1
   28    26    29    1
@<TRIPOS>SUBSTRUCTURE
       1 MOL1            1 RESIDUE      1      MOL     
@<SCITEGIC>MOL_PROPERTY
VM2 Rank
SciTegic.value.IntegerValue
157

@<SCITEGIC>MOL_PROPERTY
Conf_Id
SciTegic.value.IntegerValue
1365

@<SCITEGIC>MOL_PROPERTY
Probability
SciTegic.value.DoubleValue
0.00

@<SCITEGIC>MOL_PROPERTY
Sum Probability
SciTegic.value.DoubleValue
99.96

@<SCITEGIC>MOL_PROPERTY
Delta G
SciTegic.value.DoubleValue
4.786

@<SCITEGIC>MOL_PROPERTY
G
SciTegic.value.DoubleValue
38.488

@<SCITEGIC>MOL_PROPERTY
E
SciTegic.value.DoubleValue
-0.164

@<SCITEGIC>MOL_PROPERTY
-TS
SciTegic.value.DoubleValue
38.652

@<SCITEGIC>MOL_PROPERTY
U+W
SciTegic.value.DoubleValue
-24.308

@<SCITEGIC>MOL_PROPERTY
U
SciTegic.value.DoubleValue
28.627

@<SCITEGIC>MOL_PROPERTY
W
SciTegic.value.DoubleValue
-52.936

@<SCITEGIC>MOL_PROPERTY
W(PB)
SciTegic.value.DoubleValue
-55.335

@<SCITEGIC>MOL_PROPERTY
W(SA)
SciTegic.value.DoubleValue
2.399

@<SCITEGIC>MOL_PROPERTY
Valence
SciTegic.value.DoubleValue
6.751

@<SCITEGIC>MOL_PROPERTY
Coulomb
SciTegic.value.DoubleValue
21.512

@<SCITEGIC>MOL_PROPERTY
VdW
SciTegic.value.DoubleValue
0.364

@<SCITEGIC>MOL_PROPERTY
VdW6
SciTegic.value.DoubleValue
-12.196

@<SCITEGIC>MOL_PROPERTY
VdW12
SciTegic.value.DoubleValue
12.561

@<SCITEGIC>MOL_PROPERTY
Bond
SciTegic.value.DoubleValue
0.349

@<SCITEGIC>MOL_PROPERTY
Angle
SciTegic.value.DoubleValue
2.626

@<SCITEGIC>MOL_PROPERTY
Pdih
SciTegic.value.DoubleValue
3.776

@<SCITEGIC>MOL_PROPERTY
Idih
SciTegic.value.DoubleValue
0.000

@<SCITEGIC>MOL_PROPERTY
Tether
SciTegic.value.DoubleValue
0.000

@<TRIPOS>MOLECULE
guest-s15_vm2.mol2 : vm2 ligand conformer 158
          29          28           1
SMALL
USER_CHARGES
 
@<TRIPOS>ATOM
       1    C1      18.381469   19.934290   20.809669 C.3        1 MOL1        -0.2426
       2    H1      18.206885   19.416527   19.857642 H          1 MOL1         0.0959
       3    H2      17.921577   19.340484   21.608517 H          1 MOL1         0.0959
       4    H3      17.857651   20.897964   20.768113 H          1 MOL1         0.0959
       5    C2      19.893004   20.149345   21.051845 C.3        1 MOL1        -0.1410
       6    H4      20.056122   20.692998   21.991074 H          1 MOL1         0.0948
       7    H5      20.283354   20.802757   20.259211 H          1 MOL1         0.0948
       8    C3      20.706750   18.832292   21.045867 C.3        1 MOL1        -0.1435
       9    H6      20.574405   18.343854   20.070656 H          1 MOL1         0.0948
      10    H7      21.775694   19.077400   21.111870 H          1 MOL1         0.0948
      11    C4      20.357344   17.811210   22.162103 C.3        1 MOL1        -0.1435
      12    H8      20.952489   16.907536   21.971024 H          1 MOL1         0.0948
      13    H9      19.310595   17.489436   22.082929 H          1 MOL1         0.0948
      14    C5      20.674412   18.291079   23.603073 C.3        1 MOL1        -0.1435
      15    H10     21.035376   17.424961   24.172908 H          1 MOL1         0.0948
      16    H11     21.502951   19.012395   23.586352 H          1 MOL1         0.0948
      17    C6      19.450174   18.893903   24.340258 C.3        1 MOL1        -0.1500
      18    H12     18.672799   18.126234   24.449932 H          1 MOL1         0.0948
      19    H13     19.011488   19.688361   23.727979 H          1 MOL1         0.0948
      20    C7      19.790284   19.488270   25.726098 C.3        1 MOL1         0.1162
      21    H14     20.595067   20.218661   25.597785 H          1 MOL1         0.0910
      22    C8      20.262402   18.412977   26.721173 C.3        1 MOL1        -0.2491
      23    H15     20.441320   18.853541   27.709727 H          1 MOL1         0.0959
      24    H16     19.513079   17.619448   26.833100 H          1 MOL1         0.0959
      25    H17     21.203601   17.954562   26.396557 H          1 MOL1         0.0959
      26    N1      18.620161   20.242634   26.293913 N.4        1 MOL1        -0.5987
      27    H18     18.315958   20.994079   25.668148 H          1 MOL1         0.3605
      28    H19     18.853502   20.671627   27.194049 H          1 MOL1         0.3605
      29    H20     17.817601   19.626365   26.448410 H          1 MOL1         0.3605
@<TRIPOS>BOND
    1     1     2    1
    2     1     3    1
    3     1     4    1
    4     1     5    1
    5     5     6    1
    6     5     7    1
    7     5     8    1
    8     8     9    1
    9     8    10    1
   10     8    11    1
   11    11    12    1
   12    11    13    1
   13    11    14    1
   14    14    15    1
   15    14    16    1
   16    14    17    1
   17    17    18    1
   18    17    19    1
   19    17    20    1
   20    20    21    1
   21    20    22    1
   22    22    23    1
   23    22    24    1
   24    22    25    1
   25    20    26    1
   26    26    27    1
   27    26    28    1
   28    26    29    1
@<TRIPOS>SUBSTRUCTURE
       1 MOL1            1 RESIDUE      1      MOL     
@<SCITEGIC>MOL_PROPERTY
VM2 Rank
SciTegic.value.IntegerValue
158

@<SCITEGIC>MOL_PROPERTY
Conf_Id
SciTegic.value.IntegerValue
142

@<SCITEGIC>MOL_PROPERTY
Probability
SciTegic.value.DoubleValue
0.00

@<SCITEGIC>MOL_PROPERTY
Sum Probability
SciTegic.value.DoubleValue
99.97

@<SCITEGIC>MOL_PROPERTY
Delta G
SciTegic.value.DoubleValue
4.796

@<SCITEGIC>MOL_PROPERTY
G
SciTegic.value.DoubleValue
38.498

@<SCITEGIC>MOL_PROPERTY
E
SciTegic.value.DoubleValue
0.265

@<SCITEGIC>MOL_PROPERTY
-TS
SciTegic.value.DoubleValue
38.233

@<SCITEGIC>MOL_PROPERTY
U+W
SciTegic.value.DoubleValue
-23.879

@<SCITEGIC>MOL_PROPERTY
U
SciTegic.value.DoubleValue
28.814

@<SCITEGIC>MOL_PROPERTY
W
SciTegic.value.DoubleValue
-52.693

@<SCITEGIC>MOL_PROPERTY
W(PB)
SciTegic.value.DoubleValue
-55.133

@<SCITEGIC>MOL_PROPERTY
W(SA)
SciTegic.value.DoubleValue
2.440

@<SCITEGIC>MOL_PROPERTY
Valence
SciTegic.value.DoubleValue
7.405

@<SCITEGIC>MOL_PROPERTY
Coulomb
SciTegic.value.DoubleValue
20.332

@<SCITEGIC>MOL_PROPERTY
VdW
SciTegic.value.DoubleValue
1.077

@<SCITEGIC>MOL_PROPERTY
VdW6
SciTegic.value.DoubleValue
-10.782

@<SCITEGIC>MOL_PROPERTY
VdW12
SciTegic.value.DoubleValue
11.859

@<SCITEGIC>MOL_PROPERTY
Bond
SciTegic.value.DoubleValue
0.335

@<SCITEGIC>MOL_PROPERTY
Angle
SciTegic.value.DoubleValue
2.433

@<SCITEGIC>MOL_PROPERTY
Pdih
SciTegic.value.DoubleValue
4.638

@<SCITEGIC>MOL_PROPERTY
Idih
SciTegic.value.DoubleValue
0.000

@<SCITEGIC>MOL_PROPERTY
Tether
SciTegic.value.DoubleValue
0.000

@<TRIPOS>MOLECULE
guest-s15_vm2.mol2 : vm2 ligand conformer 159
          29          28           1
SMALL
USER_CHARGES
 
@<TRIPOS>ATOM
       1    C1      18.926195   20.391658   19.891401 C.3        1 MOL1        -0.2426
       2    H1      19.891314   20.573013   19.400584 H          1 MOL1         0.0959
       3    H2      18.171182   20.248187   19.107564 H          1 MOL1         0.0959
       4    H3      18.656368   21.292115   20.458467 H          1 MOL1         0.0959
       5    C2      18.996481   19.155672   20.812800 C.3        1 MOL1        -0.1410
       6    H4      19.233383   18.266384   20.211994 H          1 MOL1         0.0948
       7    H5      18.009234   18.980372   21.262477 H          1 MOL1         0.0948
       8    C3      20.054582   19.331190   21.924111 C.3        1 MOL1        -0.1435
       9    H6      21.039788   19.498471   21.467315 H          1 MOL1         0.0948
      10    H7      19.820605   20.232622   22.503379 H          1 MOL1         0.0948
      11    C4      20.122951   18.094281   22.851741 C.3        1 MOL1        -0.1435
      12    H8      20.352359   17.210592   22.240244 H          1 MOL1         0.0948
      13    H9      19.141659   17.894104   23.297919 H          1 MOL1         0.0948
      14    C5      21.202641   18.207351   23.958001 C.3        1 MOL1        -0.1435
      15    H10     21.236952   17.262949   24.517371 H          1 MOL1         0.0948
      16    H11     22.185387   18.290809   23.473916 H          1 MOL1         0.0948
      17    C6      21.051285   19.392936   24.956070 C.3        1 MOL1        -0.1500
      18    H12     21.170762   20.345246   24.424491 H          1 MOL1         0.0948
      19    H13     21.899599   19.347860   25.651604 H          1 MOL1         0.0948
      20    C7      19.757315   19.444542   25.808498 C.3        1 MOL1         0.1162
      21    H14     19.921393   20.193958   26.588956 H          1 MOL1         0.0910
      22    C8      19.463994   18.108375   26.512654 C.3        1 MOL1        -0.2491
      23    H15     19.194166   17.323315   25.796300 H          1 MOL1         0.0959
      24    H16     20.338136   17.769362   27.082286 H          1 MOL1         0.0959
      25    H17     18.630771   18.220385   27.217124 H          1 MOL1         0.0959
      26    N1      18.560556   19.929995   25.038725 N.4        1 MOL1        -0.5987
      27    H18     17.724681   19.963161   25.629542 H          1 MOL1         0.3605
      28    H19     18.359620   19.316363   24.245777 H          1 MOL1         0.3605
      29    H20     18.712017   20.872850   24.669303 H          1 MOL1         0.3605
@<TRIPOS>BOND
    1     1     2    1
    2     1     3    1
    3     1     4    1
    4     1     5    1
    5     5     6    1
    6     5     7    1
    7     5     8    1
    8     8     9    1
    9     8    10    1
   10     8    11    1
   11    11    12    1
   12    11    13    1
   13    11    14    1
   14    14    15    1
   15    14    16    1
   16    14    17    1
   17    17    18    1
   18    17    19    1
   19    17    20    1
   20    20    21    1
   21    20    22    1
   22    22    23    1
   23    22    24    1
   24    22    25    1
   25    20    26    1
   26    26    27    1
   27    26    28    1
   28    26    29    1
@<TRIPOS>SUBSTRUCTURE
       1 MOL1            1 RESIDUE      1      MOL     
@<SCITEGIC>MOL_PROPERTY
VM2 Rank
SciTegic.value.IntegerValue
159

@<SCITEGIC>MOL_PROPERTY
Conf_Id
SciTegic.value.IntegerValue
661

@<SCITEGIC>MOL_PROPERTY
Probability
SciTegic.value.DoubleValue
0.00

@<SCITEGIC>MOL_PROPERTY
Sum Probability
SciTegic.value.DoubleValue
99.97

@<SCITEGIC>MOL_PROPERTY
Delta G
SciTegic.value.DoubleValue
4.822

@<SCITEGIC>MOL_PROPERTY
G
SciTegic.value.DoubleValue
38.524

@<SCITEGIC>MOL_PROPERTY
E
SciTegic.value.DoubleValue
0.044

@<SCITEGIC>MOL_PROPERTY
-TS
SciTegic.value.DoubleValue
38.481

@<SCITEGIC>MOL_PROPERTY
U+W
SciTegic.value.DoubleValue
-24.101

@<SCITEGIC>MOL_PROPERTY
U
SciTegic.value.DoubleValue
28.029

@<SCITEGIC>MOL_PROPERTY
W
SciTegic.value.DoubleValue
-52.130

@<SCITEGIC>MOL_PROPERTY
W(PB)
SciTegic.value.DoubleValue
-54.543

@<SCITEGIC>MOL_PROPERTY
W(SA)
SciTegic.value.DoubleValue
2.413

@<SCITEGIC>MOL_PROPERTY
Valence
SciTegic.value.DoubleValue
5.577

@<SCITEGIC>MOL_PROPERTY
Coulomb
SciTegic.value.DoubleValue
21.811

@<SCITEGIC>MOL_PROPERTY
VdW
SciTegic.value.DoubleValue
0.641

@<SCITEGIC>MOL_PROPERTY
VdW6
SciTegic.value.DoubleValue
-11.463

@<SCITEGIC>MOL_PROPERTY
VdW12
SciTegic.value.DoubleValue
12.103

@<SCITEGIC>MOL_PROPERTY
Bond
SciTegic.value.DoubleValue
0.349

@<SCITEGIC>MOL_PROPERTY
Angle
SciTegic.value.DoubleValue
2.654

@<SCITEGIC>MOL_PROPERTY
Pdih
SciTegic.value.DoubleValue
2.574

@<SCITEGIC>MOL_PROPERTY
Idih
SciTegic.value.DoubleValue
0.000

@<SCITEGIC>MOL_PROPERTY
Tether
SciTegic.value.DoubleValue
0.000

@<TRIPOS>MOLECULE
guest-s15_vm2.mol2 : vm2 ligand conformer 160
          29          28           1
SMALL
USER_CHARGES
 
@<TRIPOS>ATOM
       1    C1      20.115435   18.701809   19.444983 C.3        1 MOL1        -0.2426
       2    H1      20.967920   18.165191   19.879379 H          1 MOL1         0.0959
       3    H2      19.786153   18.137873   18.562674 H          1 MOL1         0.0959
       4    H3      20.464541   19.685074   19.103900 H          1 MOL1         0.0959
       5    C2      18.957367   18.844178   20.458521 C.3        1 MOL1        -0.1410
       6    H4      18.648891   17.849502   20.809468 H          1 MOL1         0.0948
       7    H5      18.086502   19.271519   19.942062 H          1 MOL1         0.0948
       8    C3      19.304759   19.742101   21.670507 C.3        1 MOL1        -0.1435
       9    H6      19.594867   20.740081   21.314296 H          1 MOL1         0.0948
      10    H7      18.392746   19.882159   22.264242 H          1 MOL1         0.0948
      11    C4      20.429856   19.160909   22.564715 C.3        1 MOL1        -0.1435
      12    H8      21.353625   19.089067   21.976115 H          1 MOL1         0.0948
      13    H9      20.173372   18.136710   22.861194 H          1 MOL1         0.0948
      14    C5      20.724805   20.030818   23.814378 C.3        1 MOL1        -0.1435
      15    H10     21.698605   19.748017   24.237552 H          1 MOL1         0.0948
      16    H11     20.839792   21.074301   23.489864 H          1 MOL1         0.0948
      17    C6      19.640534   19.963534   24.925515 C.3        1 MOL1        -0.1500
      18    H12     18.657035   19.729575   24.500897 H          1 MOL1         0.0948
      19    H13     19.546467   20.967035   25.361049 H          1 MOL1         0.0948
      20    C7      19.959663   18.982782   26.079140 C.3        1 MOL1         0.1162
      21    H14     20.925648   19.265014   26.508999 H          1 MOL1         0.0910
      22    C8      20.051618   17.521518   25.608344 C.3        1 MOL1        -0.2491
      23    H15     19.136321   17.213148   25.087977 H          1 MOL1         0.0959
      24    H16     20.902097   17.379036   24.931752 H          1 MOL1         0.0959
      25    H17     20.201892   16.848668   26.461553 H          1 MOL1         0.0959
      26    N1      18.951963   19.108351   27.187896 N.4        1 MOL1        -0.5987
      27    H18     18.012625   18.855254   26.869679 H          1 MOL1         0.3605
      28    H19     18.907171   20.065165   27.550332 H          1 MOL1         0.3605
      29    H20     19.183642   18.495233   27.974706 H          1 MOL1         0.3605
@<TRIPOS>BOND
    1     1     2    1
    2     1     3    1
    3     1     4    1
    4     1     5    1
    5     5     6    1
    6     5     7    1
    7     5     8    1
    8     8     9    1
    9     8    10    1
   10     8    11    1
   11    11    12    1
   12    11    13    1
   13    11    14    1
   14    14    15    1
   15    14    16    1
   16    14    17    1
   17    17    18    1
   18    17    19    1
   19    17    20    1
   20    20    21    1
   21    20    22    1
   22    22    23    1
   23    22    24    1
   24    22    25    1
   25    20    26    1
   26    26    27    1
   27    26    28    1
   28    26    29    1
@<TRIPOS>SUBSTRUCTURE
       1 MOL1            1 RESIDUE      1      MOL     
@<SCITEGIC>MOL_PROPERTY
VM2 Rank
SciTegic.value.IntegerValue
160

@<SCITEGIC>MOL_PROPERTY
Conf_Id
SciTegic.value.IntegerValue
155

@<SCITEGIC>MOL_PROPERTY
Probability
SciTegic.value.DoubleValue
0.00

@<SCITEGIC>MOL_PROPERTY
Sum Probability
SciTegic.value.DoubleValue
99.97

@<SCITEGIC>MOL_PROPERTY
Delta G
SciTegic.value.DoubleValue
4.839

@<SCITEGIC>MOL_PROPERTY
G
SciTegic.value.DoubleValue
38.541

@<SCITEGIC>MOL_PROPERTY
E
SciTegic.value.DoubleValue
0.669

@<SCITEGIC>MOL_PROPERTY
-TS
SciTegic.value.DoubleValue
37.873

@<SCITEGIC>MOL_PROPERTY
U+W
SciTegic.value.DoubleValue
-23.476

@<SCITEGIC>MOL_PROPERTY
U
SciTegic.value.DoubleValue
28.780

@<SCITEGIC>MOL_PROPERTY
W
SciTegic.value.DoubleValue
-52.256

@<SCITEGIC>MOL_PROPERTY
W(PB)
SciTegic.value.DoubleValue
-54.715

@<SCITEGIC>MOL_PROPERTY
W(SA)
SciTegic.value.DoubleValue
2.459

@<SCITEGIC>MOL_PROPERTY
Valence
SciTegic.value.DoubleValue
7.565

@<SCITEGIC>MOL_PROPERTY
Coulomb
SciTegic.value.DoubleValue
19.822

@<SCITEGIC>MOL_PROPERTY
VdW
SciTegic.value.DoubleValue
1.392

@<SCITEGIC>MOL_PROPERTY
VdW6
SciTegic.value.DoubleValue
-10.248

@<SCITEGIC>MOL_PROPERTY
VdW12
SciTegic.value.DoubleValue
11.640

@<SCITEGIC>MOL_PROPERTY
Bond
SciTegic.value.DoubleValue
0.340

@<SCITEGIC>MOL_PROPERTY
Angle
SciTegic.value.DoubleValue
2.098

@<SCITEGIC>MOL_PROPERTY
Pdih
SciTegic.value.DoubleValue
5.127

@<SCITEGIC>MOL_PROPERTY
Idih
SciTegic.value.DoubleValue
0.000

@<SCITEGIC>MOL_PROPERTY
Tether
SciTegic.value.DoubleValue
0.000

@<TRIPOS>MOLECULE
guest-s15_vm2.mol2 : vm2 ligand conformer 161
          29          28           1
SMALL
USER_CHARGES
 
@<TRIPOS>ATOM
       1    C1      19.043078   18.901323   19.535674 C.3        1 MOL1        -0.2426
       2    H1      19.078015   18.305713   18.614291 H          1 MOL1         0.0959
       3    H2      18.134563   18.613891   20.079129 H          1 MOL1         0.0959
       4    H3      18.954127   19.957376   19.249567 H          1 MOL1         0.0959
       5    C2      20.312717   18.660294   20.383382 C.3        1 MOL1        -0.1410
       6    H4      21.196179   18.840725   19.755133 H          1 MOL1         0.0948
       7    H5      20.360820   17.604718   20.685282 H          1 MOL1         0.0948
       8    C3      20.401073   19.566990   21.634808 C.3        1 MOL1        -0.1435
       9    H6      21.383840   19.413568   22.097628 H          1 MOL1         0.0948
      10    H7      20.368845   20.620637   21.325322 H          1 MOL1         0.0948
      11    C4      19.282151   19.294351   22.672703 C.3        1 MOL1        -0.1435
      12    H8      19.270007   18.229098   22.931460 H          1 MOL1         0.0948
      13    H9      18.308918   19.508799   22.212578 H          1 MOL1         0.0948
      14    C5      19.406923   20.164856   23.950501 C.3        1 MOL1        -0.1435
      15    H10     19.543042   21.210273   23.640963 H          1 MOL1         0.0948
      16    H11     18.454123   20.145889   24.494863 H          1 MOL1         0.0948
      17    C6      20.571340   19.769777   24.905297 C.3        1 MOL1        -0.1500
      18    H12     20.973649   20.687736   25.353447 H          1 MOL1         0.0948
      19    H13     21.404848   19.337910   24.339343 H          1 MOL1         0.0948
      20    C7      20.201569   18.811860   26.064828 C.3        1 MOL1         0.1162
      21    H14     21.118346   18.627012   26.633214 H          1 MOL1         0.0910
      22    C8      19.682106   17.451623   25.572179 C.3        1 MOL1        -0.2491
      23    H15     18.701240   17.546350   25.091429 H          1 MOL1         0.0959
      24    H16     20.380843   17.003842   24.854722 H          1 MOL1         0.0959
      25    H17     19.576258   16.754779   26.412598 H          1 MOL1         0.0959
      26    N1      19.235042   19.434926   27.034627 N.4        1 MOL1        -0.5987
      27    H18     19.596282   20.316203   27.410823 H          1 MOL1         0.3605
      28    H19     19.051257   18.815561   27.829115 H          1 MOL1         0.3605
      29    H20     18.337120   19.635874   26.587817 H          1 MOL1         0.3605
@<TRIPOS>BOND
    1     1     2    1
    2     1     3    1
    3     1     4    1
    4     1     5    1
    5     5     6    1
    6     5     7    1
    7     5     8    1
    8     8     9    1
    9     8    10    1
   10     8    11    1
   11    11    12    1
   12    11    13    1
   13    11    14    1
   14    14    15    1
   15    14    16    1
   16    14    17    1
   17    17    18    1
   18    17    19    1
   19    17    20    1
   20    20    21    1
   21    20    22    1
   22    22    23    1
   23    22    24    1
   24    22    25    1
   25    20    26    1
   26    26    27    1
   27    26    28    1
   28    26    29    1
@<TRIPOS>SUBSTRUCTURE
       1 MOL1            1 RESIDUE      1      MOL     
@<SCITEGIC>MOL_PROPERTY
VM2 Rank
SciTegic.value.IntegerValue
161

@<SCITEGIC>MOL_PROPERTY
Conf_Id
SciTegic.value.IntegerValue
157

@<SCITEGIC>MOL_PROPERTY
Probability
SciTegic.value.DoubleValue
0.00

@<SCITEGIC>MOL_PROPERTY
Sum Probability
SciTegic.value.DoubleValue
99.97

@<SCITEGIC>MOL_PROPERTY
Delta G
SciTegic.value.DoubleValue
4.852

@<SCITEGIC>MOL_PROPERTY
G
SciTegic.value.DoubleValue
38.555

@<SCITEGIC>MOL_PROPERTY
E
SciTegic.value.DoubleValue
0.644

@<SCITEGIC>MOL_PROPERTY
-TS
SciTegic.value.DoubleValue
37.911

@<SCITEGIC>MOL_PROPERTY
U+W
SciTegic.value.DoubleValue
-23.501

@<SCITEGIC>MOL_PROPERTY
U
SciTegic.value.DoubleValue
28.852

@<SCITEGIC>MOL_PROPERTY
W
SciTegic.value.DoubleValue
-52.353

@<SCITEGIC>MOL_PROPERTY
W(PB)
SciTegic.value.DoubleValue
-54.783

@<SCITEGIC>MOL_PROPERTY
W(SA)
SciTegic.value.DoubleValue
2.430

@<SCITEGIC>MOL_PROPERTY
Valence
SciTegic.value.DoubleValue
7.579

@<SCITEGIC>MOL_PROPERTY
Coulomb
SciTegic.value.DoubleValue
19.889

@<SCITEGIC>MOL_PROPERTY
VdW
SciTegic.value.DoubleValue
1.385

@<SCITEGIC>MOL_PROPERTY
VdW6
SciTegic.value.DoubleValue
-10.700

@<SCITEGIC>MOL_PROPERTY
VdW12
SciTegic.value.DoubleValue
12.085

@<SCITEGIC>MOL_PROPERTY
Bond
SciTegic.value.DoubleValue
0.383

@<SCITEGIC>MOL_PROPERTY
Angle
SciTegic.value.DoubleValue
2.313

@<SCITEGIC>MOL_PROPERTY
Pdih
SciTegic.value.DoubleValue
4.883

@<SCITEGIC>MOL_PROPERTY
Idih
SciTegic.value.DoubleValue
0.000

@<SCITEGIC>MOL_PROPERTY
Tether
SciTegic.value.DoubleValue
0.000

@<TRIPOS>MOLECULE
guest-s15_vm2.mol2 : vm2 ligand conformer 162
          29          28           1
SMALL
USER_CHARGES
 
@<TRIPOS>ATOM
       1    C1      20.548653   20.443926   20.700172 C.3        1 MOL1        -0.2426
       2    H1      20.581878   21.537099   20.607236 H          1 MOL1         0.0959
       3    H2      21.315238   20.148971   21.426560 H          1 MOL1         0.0959
       4    H3      20.820192   20.016191   19.726410 H          1 MOL1         0.0959
       5    C2      19.139297   19.979678   21.133332 C.3        1 MOL1        -0.1410
       6    H4      18.408126   20.360676   20.406830 H          1 MOL1         0.0948
       7    H5      18.866155   20.433519   22.094246 H          1 MOL1         0.0948
       8    C3      18.998540   18.439802   21.208190 C.3        1 MOL1        -0.1435
       9    H6      17.949169   18.191002   21.417861 H          1 MOL1         0.0948
      10    H7      19.209622   18.020757   20.214737 H          1 MOL1         0.0948
      11    C4      19.900916   17.723229   22.248800 C.3        1 MOL1        -0.1435
      12    H8      20.962666   17.889416   22.024118 H          1 MOL1         0.0948
      13    H9      19.744769   16.643014   22.122081 H          1 MOL1         0.0948
      14    C5      19.592769   18.075682   23.727931 C.3        1 MOL1        -0.1435
      15    H10     18.533818   18.345671   23.831438 H          1 MOL1         0.0948
      16    H11     19.735173   17.165914   24.325654 H          1 MOL1         0.0948
      17    C6      20.507224   19.192523   24.302516 C.3        1 MOL1        -0.1500
      18    H12     20.438153   20.091734   23.681886 H          1 MOL1         0.0948
      19    H13     21.554167   18.867606   24.240816 H          1 MOL1         0.0948
      20    C7      20.199836   19.595997   25.763871 C.3        1 MOL1         0.1162
      21    H14     20.893436   20.399047   26.031792 H          1 MOL1         0.0910
      22    C8      20.430372   18.435969   26.748018 C.3        1 MOL1        -0.2491
      23    H15     20.341178   18.788200   27.782986 H          1 MOL1         0.0959
      24    H16     19.699911   17.630898   26.604823 H          1 MOL1         0.0959
      25    H17     21.435923   18.014715   26.625654 H          1 MOL1         0.0959
      26    N1      18.818391   20.169194   25.921172 N.4        1 MOL1        -0.5987
      27    H18     18.673066   20.973322   25.304172 H          1 MOL1         0.3605
      28    H19     18.652040   20.485153   26.880940 H          1 MOL1         0.3605
      29    H20     18.101455   19.474474   25.697834 H          1 MOL1         0.3605
@<TRIPOS>BOND
    1     1     2    1
    2     1     3    1
    3     1     4    1
    4     1     5    1
    5     5     6    1
    6     5     7    1
    7     5     8    1
    8     8     9    1
    9     8    10    1
   10     8    11    1
   11    11    12    1
   12    11    13    1
   13    11    14    1
   14    14    15    1
   15    14    16    1
   16    14    17    1
   17    17    18    1
   18    17    19    1
   19    17    20    1
   20    20    21    1
   21    20    22    1
   22    22    23    1
   23    22    24    1
   24    22    25    1
   25    20    26    1
   26    26    27    1
   27    26    28    1
   28    26    29    1
@<TRIPOS>SUBSTRUCTURE
       1 MOL1            1 RESIDUE      1      MOL     
@<SCITEGIC>MOL_PROPERTY
VM2 Rank
SciTegic.value.IntegerValue
162

@<SCITEGIC>MOL_PROPERTY
Conf_Id
SciTegic.value.IntegerValue
305

@<SCITEGIC>MOL_PROPERTY
Probability
SciTegic.value.DoubleValue
0.00

@<SCITEGIC>MOL_PROPERTY
Sum Probability
SciTegic.value.DoubleValue
99.98

@<SCITEGIC>MOL_PROPERTY
Delta G
SciTegic.value.DoubleValue
4.933

@<SCITEGIC>MOL_PROPERTY
G
SciTegic.value.DoubleValue
38.635

@<SCITEGIC>MOL_PROPERTY
E
SciTegic.value.DoubleValue
0.283

@<SCITEGIC>MOL_PROPERTY
-TS
SciTegic.value.DoubleValue
38.352

@<SCITEGIC>MOL_PROPERTY
U+W
SciTegic.value.DoubleValue
-23.862

@<SCITEGIC>MOL_PROPERTY
U
SciTegic.value.DoubleValue
28.974

@<SCITEGIC>MOL_PROPERTY
W
SciTegic.value.DoubleValue
-52.835

@<SCITEGIC>MOL_PROPERTY
W(PB)
SciTegic.value.DoubleValue
-55.217

@<SCITEGIC>MOL_PROPERTY
W(SA)
SciTegic.value.DoubleValue
2.382

@<SCITEGIC>MOL_PROPERTY
Valence
SciTegic.value.DoubleValue
7.347

@<SCITEGIC>MOL_PROPERTY
Coulomb
SciTegic.value.DoubleValue
20.625

@<SCITEGIC>MOL_PROPERTY
VdW
SciTegic.value.DoubleValue
1.002

@<SCITEGIC>MOL_PROPERTY
VdW6
SciTegic.value.DoubleValue
-11.327

@<SCITEGIC>MOL_PROPERTY
VdW12
SciTegic.value.DoubleValue
12.329

@<SCITEGIC>MOL_PROPERTY
Bond
SciTegic.value.DoubleValue
0.364

@<SCITEGIC>MOL_PROPERTY
Angle
SciTegic.value.DoubleValue
2.516

@<SCITEGIC>MOL_PROPERTY
Pdih
SciTegic.value.DoubleValue
4.467

@<SCITEGIC>MOL_PROPERTY
Idih
SciTegic.value.DoubleValue
0.000

@<SCITEGIC>MOL_PROPERTY
Tether
SciTegic.value.DoubleValue
0.000

@<TRIPOS>MOLECULE
guest-s15_vm2.mol2 : vm2 ligand conformer 163
          29          28           1
SMALL
USER_CHARGES
 
@<TRIPOS>ATOM
       1    C1      18.396642   19.621367   20.760787 C.3        1 MOL1        -0.2426
       2    H1      17.896769   19.521434   19.788680 H          1 MOL1         0.0959
       3    H2      18.000940   18.836195   21.412948 H          1 MOL1         0.0959
       4    H3      18.111579   20.593712   21.182784 H          1 MOL1         0.0959
       5    C2      19.929651   19.518810   20.589326 C.3        1 MOL1        -0.1410
       6    H4      20.232976   20.266731   19.843368 H          1 MOL1         0.0948
       7    H5      20.200203   18.542460   20.164010 H          1 MOL1         0.0948
       8    C3      20.730826   19.780022   21.891395 C.3        1 MOL1        -0.1435
       9    H6      21.690376   20.231553   21.603907 H          1 MOL1         0.0948
      10    H7      20.229020   20.537757   22.507093 H          1 MOL1         0.0948
      11    C4      21.058343   18.512997   22.727010 C.3        1 MOL1        -0.1435
      12    H8      21.776312   18.788944   23.510779 H          1 MOL1         0.0948
      13    H9      21.589555   17.794336   22.088040 H          1 MOL1         0.0948
      14    C5      19.850306   17.795398   23.383020 C.3        1 MOL1        -0.1435
      15    H10     19.206695   17.374001   22.601221 H          1 MOL1         0.0948
      16    H11     20.220709   16.926068   23.942154 H          1 MOL1         0.0948
      17    C6      18.999812   18.686211   24.328545 C.3        1 MOL1        -0.1500
      18    H12     18.207058   18.073657   24.777781 H          1 MOL1         0.0948
      19    H13     18.485835   19.448995   23.731337 H          1 MOL1         0.0948
      20    C7      19.797977   19.391203   25.449839 C.3        1 MOL1         0.1162
      21    H14     20.594258   19.981345   24.986574 H          1 MOL1         0.0910
      22    C8      20.438695   18.385156   26.422357 C.3        1 MOL1        -0.2491
      23    H15     19.680537   17.735637   26.877254 H          1 MOL1         0.0959
      24    H16     21.172759   17.750746   25.912201 H          1 MOL1         0.0959
      25    H17     20.966225   18.909310   27.228717 H          1 MOL1         0.0959
      26    N1      18.933747   20.364836   26.201720 N.4        1 MOL1        -0.5987
      27    H18     18.158642   19.889935   26.672247 H          1 MOL1         0.3605
      28    H19     18.530227   21.070454   25.578876 H          1 MOL1         0.3605
      29    H20     19.468331   20.861820   26.919970 H          1 MOL1         0.3605
@<TRIPOS>BOND
    1     1     2    1
    2     1     3    1
    3     1     4    1
    4     1     5    1
    5     5     6    1
    6     5     7    1
    7     5     8    1
    8     8     9    1
    9     8    10    1
   10     8    11    1
   11    11    12    1
   12    11    13    1
   13    11    14    1
   14    14    15    1
   15    14    16    1
   16    14    17    1
   17    17    18    1
   18    17    19    1
   19    17    20    1
   20    20    21    1
   21    20    22    1
   22    22    23    1
   23    22    24    1
   24    22    25    1
   25    20    26    1
   26    26    27    1
   27    26    28    1
   28    26    29    1
@<TRIPOS>SUBSTRUCTURE
       1 MOL1            1 RESIDUE      1      MOL     
@<SCITEGIC>MOL_PROPERTY
VM2 Rank
SciTegic.value.IntegerValue
163

@<SCITEGIC>MOL_PROPERTY
Conf_Id
SciTegic.value.IntegerValue
1043

@<SCITEGIC>MOL_PROPERTY
Probability
SciTegic.value.DoubleValue
0.00

@<SCITEGIC>MOL_PROPERTY
Sum Probability
SciTegic.value.DoubleValue
99.98

@<SCITEGIC>MOL_PROPERTY
Delta G
SciTegic.value.DoubleValue
4.980

@<SCITEGIC>MOL_PROPERTY
G
SciTegic.value.DoubleValue
38.682

@<SCITEGIC>MOL_PROPERTY
E
SciTegic.value.DoubleValue
0.090

@<SCITEGIC>MOL_PROPERTY
-TS
SciTegic.value.DoubleValue
38.593

@<SCITEGIC>MOL_PROPERTY
U+W
SciTegic.value.DoubleValue
-24.055

@<SCITEGIC>MOL_PROPERTY
U
SciTegic.value.DoubleValue
28.920

@<SCITEGIC>MOL_PROPERTY
W
SciTegic.value.DoubleValue
-52.975

@<SCITEGIC>MOL_PROPERTY
W(PB)
SciTegic.value.DoubleValue
-55.346

@<SCITEGIC>MOL_PROPERTY
W(SA)
SciTegic.value.DoubleValue
2.370

@<SCITEGIC>MOL_PROPERTY
Valence
SciTegic.value.DoubleValue
7.503

@<SCITEGIC>MOL_PROPERTY
Coulomb
SciTegic.value.DoubleValue
20.758

@<SCITEGIC>MOL_PROPERTY
VdW
SciTegic.value.DoubleValue
0.660

@<SCITEGIC>MOL_PROPERTY
VdW6
SciTegic.value.DoubleValue
-12.102

@<SCITEGIC>MOL_PROPERTY
VdW12
SciTegic.value.DoubleValue
12.762

@<SCITEGIC>MOL_PROPERTY
Bond
SciTegic.value.DoubleValue
0.368

@<SCITEGIC>MOL_PROPERTY
Angle
SciTegic.value.DoubleValue
2.904

@<SCITEGIC>MOL_PROPERTY
Pdih
SciTegic.value.DoubleValue
4.231

@<SCITEGIC>MOL_PROPERTY
Idih
SciTegic.value.DoubleValue
0.000

@<SCITEGIC>MOL_PROPERTY
Tether
SciTegic.value.DoubleValue
0.000

@<TRIPOS>MOLECULE
guest-s15_vm2.mol2 : vm2 ligand conformer 164
          29          28           1
SMALL
USER_CHARGES
 
@<TRIPOS>ATOM
       1    C1      20.846947   20.573113   21.284377 C.3        1 MOL1        -0.2426
       2    H1      20.342062   20.929455   20.377145 H          1 MOL1         0.0959
       3    H2      20.436329   21.119126   22.141776 H          1 MOL1         0.0959
       4    H3      21.908450   20.840493   21.203040 H          1 MOL1         0.0959
       5    C2      20.687080   19.043741   21.443893 C.3        1 MOL1        -0.1410
       6    H4      21.189814   18.714032   22.359194 H          1 MOL1         0.0948
       7    H5      21.222457   18.553070   20.619127 H          1 MOL1         0.0948
       8    C3      19.211093   18.567180   21.413979 C.3        1 MOL1        -0.1435
       9    H6      18.770696   18.903153   20.465068 H          1 MOL1         0.0948
      10    H7      19.182305   17.469631   21.376999 H          1 MOL1         0.0948
      11    C4      18.306892   19.067294   22.574561 C.3        1 MOL1        -0.1435
      12    H8      17.278700   19.117150   22.190369 H          1 MOL1         0.0948
      13    H9      18.553678   20.098143   22.853277 H          1 MOL1         0.0948
      14    C5      18.274846   18.150822   23.827917 C.3        1 MOL1        -0.1435
      15    H10     17.505199   18.527294   24.515007 H          1 MOL1         0.0948
      16    H11     17.934244   17.149766   23.529713 H          1 MOL1         0.0948
      17    C6      19.611892   18.011082   24.599656 C.3        1 MOL1        -0.1500
      18    H12     20.322075   17.442832   23.987015 H          1 MOL1         0.0948
      19    H13     19.441632   17.400646   25.496367 H          1 MOL1         0.0948
      20    C7      20.242486   19.358501   25.015232 C.3        1 MOL1         0.1162
      21    H14     20.393626   19.959564   24.114127 H          1 MOL1         0.0910
      22    C8      21.611586   19.129763   25.673986 C.3        1 MOL1        -0.2491
      23    H15     21.516841   18.532573   26.589556 H          1 MOL1         0.0959
      24    H16     22.289517   18.602970   24.990937 H          1 MOL1         0.0959
      25    H17     22.080636   20.086046   25.936409 H          1 MOL1         0.0959
      26    N1      19.343177   20.154505   25.920399 N.4        1 MOL1        -0.5987
      27    H18     18.439275   20.338150   25.476490 H          1 MOL1         0.3605
      28    H19     19.758659   21.058672   26.161964 H          1 MOL1         0.3605
      29    H20     19.161385   19.656370   26.795759 H          1 MOL1         0.3605
@<TRIPOS>BOND
    1     1     2    1
    2     1     3    1
    3     1     4    1
    4     1     5    1
    5     5     6    1
    6     5     7    1
    7     5     8    1
    8     8     9    1
    9     8    10    1
   10     8    11    1
   11    11    12    1
   12    11    13    1
   13    11    14    1
   14    14    15    1
   15    14    16    1
   16    14    17    1
   17    17    18    1
   18    17    19    1
   19    17    20    1
   20    20    21    1
   21    20    22    1
   22    22    23    1
   23    22    24    1
   24    22    25    1
   25    20    26    1
   26    26    27    1
   27    26    28    1
   28    26    29    1
@<TRIPOS>SUBSTRUCTURE
       1 MOL1            1 RESIDUE      1      MOL     
@<SCITEGIC>MOL_PROPERTY
VM2 Rank
SciTegic.value.IntegerValue
164

@<SCITEGIC>MOL_PROPERTY
Conf_Id
SciTegic.value.IntegerValue
200

@<SCITEGIC>MOL_PROPERTY
Probability
SciTegic.value.DoubleValue
0.00

@<SCITEGIC>MOL_PROPERTY
Sum Probability
SciTegic.value.DoubleValue
99.98

@<SCITEGIC>MOL_PROPERTY
Delta G
SciTegic.value.DoubleValue
4.993

@<SCITEGIC>MOL_PROPERTY
G
SciTegic.value.DoubleValue
38.695

@<SCITEGIC>MOL_PROPERTY
E
SciTegic.value.DoubleValue
0.028

@<SCITEGIC>MOL_PROPERTY
-TS
SciTegic.value.DoubleValue
38.668

@<SCITEGIC>MOL_PROPERTY
U+W
SciTegic.value.DoubleValue
-24.117

@<SCITEGIC>MOL_PROPERTY
U
SciTegic.value.DoubleValue
28.386

@<SCITEGIC>MOL_PROPERTY
W
SciTegic.value.DoubleValue
-52.503

@<SCITEGIC>MOL_PROPERTY
W(PB)
SciTegic.value.DoubleValue
-54.864

@<SCITEGIC>MOL_PROPERTY
W(SA)
SciTegic.value.DoubleValue
2.361

@<SCITEGIC>MOL_PROPERTY
Valence
SciTegic.value.DoubleValue
7.169

@<SCITEGIC>MOL_PROPERTY
Coulomb
SciTegic.value.DoubleValue
20.924

@<SCITEGIC>MOL_PROPERTY
VdW
SciTegic.value.DoubleValue
0.293

@<SCITEGIC>MOL_PROPERTY
VdW6
SciTegic.value.DoubleValue
-12.437

@<SCITEGIC>MOL_PROPERTY
VdW12
SciTegic.value.DoubleValue
12.730

@<SCITEGIC>MOL_PROPERTY
Bond
SciTegic.value.DoubleValue
0.372

@<SCITEGIC>MOL_PROPERTY
Angle
SciTegic.value.DoubleValue
2.824

@<SCITEGIC>MOL_PROPERTY
Pdih
SciTegic.value.DoubleValue
3.974

@<SCITEGIC>MOL_PROPERTY
Idih
SciTegic.value.DoubleValue
0.000

@<SCITEGIC>MOL_PROPERTY
Tether
SciTegic.value.DoubleValue
0.000

@<TRIPOS>MOLECULE
guest-s15_vm2.mol2 : vm2 ligand conformer 165
          29          28           1
SMALL
USER_CHARGES
 
@<TRIPOS>ATOM
       1    C1      19.494439   19.516228   19.142164 C.3        1 MOL1        -0.2426
       2    H1      20.290176   19.533834   18.386167 H          1 MOL1         0.0959
       3    H2      18.756329   18.763181   18.836653 H          1 MOL1         0.0959
       4    H3      19.003340   20.498086   19.137770 H          1 MOL1         0.0959
       5    C2      20.073849   19.192751   20.535634 C.3        1 MOL1        -0.1410
       6    H4      20.836182   19.942062   20.785203 H          1 MOL1         0.0948
       7    H5      20.582858   18.219438   20.500777 H          1 MOL1         0.0948
       8    C3      18.969500   19.166295   21.619035 C.3        1 MOL1        -0.1435
       9    H6      18.495879   20.155014   21.692023 H          1 MOL1         0.0948
      10    H7      18.180774   18.470230   21.301566 H          1 MOL1         0.0948
      11    C4      19.475043   18.725730   23.015067 C.3        1 MOL1        -0.1435
      12    H8      19.981619   17.754232   22.933423 H          1 MOL1         0.0948
      13    H9      18.594859   18.571105   23.649696 H          1 MOL1         0.0948
      14    C5      20.414667   19.757258   23.687549 C.3        1 MOL1        -0.1435
      15    H10     21.239628   19.992744   23.003861 H          1 MOL1         0.0948
      16    H11     19.876436   20.702621   23.837630 H          1 MOL1         0.0948
      17    C6      21.051241   19.288265   25.027083 C.3        1 MOL1        -0.1500
      18    H12     21.727622   20.085619   25.361778 H          1 MOL1         0.0948
      19    H13     21.699173   18.421263   24.842347 H          1 MOL1         0.0948
      20    C7      20.093292   18.978097   26.206643 C.3        1 MOL1         0.1162
      21    H14     20.667600   19.135102   27.124929 H          1 MOL1         0.0910
      22    C8      19.637106   17.507348   26.229593 C.3        1 MOL1        -0.2491
      23    H15     19.058823   17.301778   27.138709 H          1 MOL1         0.0959
      24    H16     19.009748   17.248467   25.371717 H          1 MOL1         0.0959
      25    H17     20.502462   16.833133   26.232399 H          1 MOL1         0.0959
      26    N1      18.926862   19.924028   26.291231 N.4        1 MOL1        -0.5987
      27    H18     18.340997   19.725559   27.107333 H          1 MOL1         0.3605
      28    H19     18.335965   19.854490   25.459075 H          1 MOL1         0.3605
      29    H20     19.240146   20.896030   26.366834 H          1 MOL1         0.3605
@<TRIPOS>BOND
    1     1     2    1
    2     1     3    1
    3     1     4    1
    4     1     5    1
    5     5     6    1
    6     5     7    1
    7     5     8    1
    8     8     9    1
    9     8    10    1
   10     8    11    1
   11    11    12    1
   12    11    13    1
   13    11    14    1
   14    14    15    1
   15    14    16    1
   16    14    17    1
   17    17    18    1
   18    17    19    1
   19    17    20    1
   20    20    21    1
   21    20    22    1
   22    22    23    1
   23    22    24    1
   24    22    25    1
   25    20    26    1
   26    26    27    1
   27    26    28    1
   28    26    29    1
@<TRIPOS>SUBSTRUCTURE
       1 MOL1            1 RESIDUE      1      MOL     
@<SCITEGIC>MOL_PROPERTY
VM2 Rank
SciTegic.value.IntegerValue
165

@<SCITEGIC>MOL_PROPERTY
Conf_Id
SciTegic.value.IntegerValue
673

@<SCITEGIC>MOL_PROPERTY
Probability
SciTegic.value.DoubleValue
0.00

@<SCITEGIC>MOL_PROPERTY
Sum Probability
SciTegic.value.DoubleValue
99.98

@<SCITEGIC>MOL_PROPERTY
Delta G
SciTegic.value.DoubleValue
5.032

@<SCITEGIC>MOL_PROPERTY
G
SciTegic.value.DoubleValue
38.734

@<SCITEGIC>MOL_PROPERTY
E
SciTegic.value.DoubleValue
0.815

@<SCITEGIC>MOL_PROPERTY
-TS
SciTegic.value.DoubleValue
37.920

@<SCITEGIC>MOL_PROPERTY
U+W
SciTegic.value.DoubleValue
-23.330

@<SCITEGIC>MOL_PROPERTY
U
SciTegic.value.DoubleValue
28.836

@<SCITEGIC>MOL_PROPERTY
W
SciTegic.value.DoubleValue
-52.165

@<SCITEGIC>MOL_PROPERTY
W(PB)
SciTegic.value.DoubleValue
-54.630

@<SCITEGIC>MOL_PROPERTY
W(SA)
SciTegic.value.DoubleValue
2.465

@<SCITEGIC>MOL_PROPERTY
Valence
SciTegic.value.DoubleValue
6.993

@<SCITEGIC>MOL_PROPERTY
Coulomb
SciTegic.value.DoubleValue
20.553

@<SCITEGIC>MOL_PROPERTY
VdW
SciTegic.value.DoubleValue
1.290

@<SCITEGIC>MOL_PROPERTY
VdW6
SciTegic.value.DoubleValue
-10.457

@<SCITEGIC>MOL_PROPERTY
VdW12
SciTegic.value.DoubleValue
11.747

@<SCITEGIC>MOL_PROPERTY
Bond
SciTegic.value.DoubleValue
0.348

@<SCITEGIC>MOL_PROPERTY
Angle
SciTegic.value.DoubleValue
2.717

@<SCITEGIC>MOL_PROPERTY
Pdih
SciTegic.value.DoubleValue
3.928

@<SCITEGIC>MOL_PROPERTY
Idih
SciTegic.value.DoubleValue
0.000

@<SCITEGIC>MOL_PROPERTY
Tether
SciTegic.value.DoubleValue
0.000

@<TRIPOS>MOLECULE
guest-s15_vm2.mol2 : vm2 ligand conformer 166
          29          28           1
SMALL
USER_CHARGES
 
@<TRIPOS>ATOM
       1    C1      18.298913   18.535312   20.715066 C.3        1 MOL1        -0.2426
       2    H1      18.212311   17.586892   21.260851 H          1 MOL1         0.0959
       3    H2      17.734026   19.300439   21.261610 H          1 MOL1         0.0959
       4    H3      17.816708   18.404848   19.737647 H          1 MOL1         0.0959
       5    C2      19.779669   18.940650   20.536926 C.3        1 MOL1        -0.1410
       6    H4      19.839692   19.901923   20.007768 H          1 MOL1         0.0948
       7    H5      20.273071   18.202069   19.889819 H          1 MOL1         0.0948
       8    C3      20.555890   19.027797   21.872623 C.3        1 MOL1        -0.1435
       9    H6      20.497624   18.059199   22.384561 H          1 MOL1         0.0948
      10    H7      21.618542   19.194998   21.649494 H          1 MOL1         0.0948
      11    C4      20.053198   20.161849   22.801428 C.3        1 MOL1        -0.1435
      12    H8      19.006241   20.002671   23.080040 H          1 MOL1         0.0948
      13    H9      20.069211   21.106761   22.241115 H          1 MOL1         0.0948
      14    C5      20.915789   20.341113   24.075368 C.3        1 MOL1        -0.1435
      15    H10     21.931365   20.621157   23.763348 H          1 MOL1         0.0948
      16    H11     20.541694   21.205494   24.639852 H          1 MOL1         0.0948
      17    C6      21.025958   19.109816   25.022893 C.3        1 MOL1        -0.1500
      18    H12     21.720680   19.386353   25.826664 H          1 MOL1         0.0948
      19    H13     21.514719   18.274961   24.505102 H          1 MOL1         0.0948
      20    C7      19.724288   18.613833   25.705756 C.3        1 MOL1         0.1162
      21    H14     20.031942   18.085760   26.613598 H          1 MOL1         0.0910
      22    C8      18.948608   17.592126   24.854720 C.3        1 MOL1        -0.2491
      23    H15     19.601426   16.766458   24.546037 H          1 MOL1         0.0959
      24    H16     18.125885   17.159453   25.436942 H          1 MOL1         0.0959
      25    H17     18.515774   18.039918   23.955624 H          1 MOL1         0.0959
      26    N1      18.833688   19.733506   26.169220 N.4        1 MOL1        -0.5987
      27    H18     18.501885   20.290096   25.377657 H          1 MOL1         0.3605
      28    H19     19.328683   20.365038   26.805401 H          1 MOL1         0.3605
      29    H20     18.012016   19.378015   26.666240 H          1 MOL1         0.3605
@<TRIPOS>BOND
    1     1     2    1
    2     1     3    1
    3     1     4    1
    4     1     5    1
    5     5     6    1
    6     5     7    1
    7     5     8    1
    8     8     9    1
    9     8    10    1
   10     8    11    1
   11    11    12    1
   12    11    13    1
   13    11    14    1
   14    14    15    1
   15    14    16    1
   16    14    17    1
   17    17    18    1
   18    17    19    1
   19    17    20    1
   20    20    21    1
   21    20    22    1
   22    22    23    1
   23    22    24    1
   24    22    25    1
   25    20    26    1
   26    26    27    1
   27    26    28    1
   28    26    29    1
@<TRIPOS>SUBSTRUCTURE
       1 MOL1            1 RESIDUE      1      MOL     
@<SCITEGIC>MOL_PROPERTY
VM2 Rank
SciTegic.value.IntegerValue
166

@<SCITEGIC>MOL_PROPERTY
Conf_Id
SciTegic.value.IntegerValue
132

@<SCITEGIC>MOL_PROPERTY
Probability
SciTegic.value.DoubleValue
0.00

@<SCITEGIC>MOL_PROPERTY
Sum Probability
SciTegic.value.DoubleValue
99.99

@<SCITEGIC>MOL_PROPERTY
Delta G
SciTegic.value.DoubleValue
5.120

@<SCITEGIC>MOL_PROPERTY
G
SciTegic.value.DoubleValue
38.822

@<SCITEGIC>MOL_PROPERTY
E
SciTegic.value.DoubleValue
0.158

@<SCITEGIC>MOL_PROPERTY
-TS
SciTegic.value.DoubleValue
38.664

@<SCITEGIC>MOL_PROPERTY
U+W
SciTegic.value.DoubleValue
-23.987

@<SCITEGIC>MOL_PROPERTY
U
SciTegic.value.DoubleValue
28.728

@<SCITEGIC>MOL_PROPERTY
W
SciTegic.value.DoubleValue
-52.715

@<SCITEGIC>MOL_PROPERTY
W(PB)
SciTegic.value.DoubleValue
-55.059

@<SCITEGIC>MOL_PROPERTY
W(SA)
SciTegic.value.DoubleValue
2.345

@<SCITEGIC>MOL_PROPERTY
Valence
SciTegic.value.DoubleValue
7.346

@<SCITEGIC>MOL_PROPERTY
Coulomb
SciTegic.value.DoubleValue
20.700

@<SCITEGIC>MOL_PROPERTY
VdW
SciTegic.value.DoubleValue
0.681

@<SCITEGIC>MOL_PROPERTY
VdW6
SciTegic.value.DoubleValue
-12.201

@<SCITEGIC>MOL_PROPERTY
VdW12
SciTegic.value.DoubleValue
12.882

@<SCITEGIC>MOL_PROPERTY
Bond
SciTegic.value.DoubleValue
0.393

@<SCITEGIC>MOL_PROPERTY
Angle
SciTegic.value.DoubleValue
3.198

@<SCITEGIC>MOL_PROPERTY
Pdih
SciTegic.value.DoubleValue
3.755

@<SCITEGIC>MOL_PROPERTY
Idih
SciTegic.value.DoubleValue
0.000

@<SCITEGIC>MOL_PROPERTY
Tether
SciTegic.value.DoubleValue
0.000

@<TRIPOS>MOLECULE
guest-s15_vm2.mol2 : vm2 ligand conformer 167
          29          28           1
SMALL
USER_CHARGES
 
@<TRIPOS>ATOM
       1    C1      20.673660   18.724330   19.778153 C.3        1 MOL1        -0.2426
       2    H1      21.061044   19.410663   19.014034 H          1 MOL1         0.0959
       3    H2      21.525557   18.178637   20.204395 H          1 MOL1         0.0959
       4    H3      20.018240   17.999146   19.278428 H          1 MOL1         0.0959
       5    C2      19.910200   19.501228   20.871444 C.3        1 MOL1        -0.1410
       6    H4      19.083372   20.060378   20.411800 H          1 MOL1         0.0948
       7    H5      20.585665   20.241773   21.319949 H          1 MOL1         0.0948
       8    C3      19.357609   18.554564   21.962470 C.3        1 MOL1        -0.1435
       9    H6      18.741508   17.780966   21.483923 H          1 MOL1         0.0948
      10    H7      20.188771   18.023913   22.443045 H          1 MOL1         0.0948
      11    C4      18.493045   19.276375   23.028550 C.3        1 MOL1        -0.1435
      12    H8      18.067599   18.536393   23.716474 H          1 MOL1         0.0948
      13    H9      17.627771   19.730390   22.526219 H          1 MOL1         0.0948
      14    C5      19.222967   20.381205   23.836430 C.3        1 MOL1        -0.1435
      15    H10     19.477581   21.201280   23.152180 H          1 MOL1         0.0948
      16    H11     18.515374   20.824459   24.549288 H          1 MOL1         0.0948
      17    C6      20.520463   19.956829   24.586098 C.3        1 MOL1        -0.1500
      18    H12     20.959737   20.870772   25.006636 H          1 MOL1         0.0948
      19    H13     21.268292   19.588517   23.872565 H          1 MOL1         0.0948
      20    C7      20.372708   18.951669   25.758489 C.3        1 MOL1         0.1162
      21    H14     21.246784   19.094452   26.401367 H          1 MOL1         0.0910
      22    C8      20.407171   17.482101   25.303061 C.3        1 MOL1        -0.2491
      23    H15     21.293032   17.285398   24.686820 H          1 MOL1         0.0959
      24    H16     20.458555   16.816169   26.173115 H          1 MOL1         0.0959
      25    H17     19.519595   17.203651   24.727538 H          1 MOL1         0.0959
      26    N1      19.178177   19.227700   26.629304 N.4        1 MOL1        -0.5987
      27    H18     18.307602   19.118671   26.103187 H          1 MOL1         0.3605
      28    H19     19.198389   20.182151   26.999642 H          1 MOL1         0.3605
      29    H20     19.140609   18.588290   27.428215 H          1 MOL1         0.3605
@<TRIPOS>BOND
    1     1     2    1
    2     1     3    1
    3     1     4    1
    4     1     5    1
    5     5     6    1
    6     5     7    1
    7     5     8    1
    8     8     9    1
    9     8    10    1
   10     8    11    1
   11    11    12    1
   12    11    13    1
   13    11    14    1
   14    14    15    1
   15    14    16    1
   16    14    17    1
   17    17    18    1
   18    17    19    1
   19    17    20    1
   20    20    21    1
   21    20    22    1
   22    22    23    1
   23    22    24    1
   24    22    25    1
   25    20    26    1
   26    26    27    1
   27    26    28    1
   28    26    29    1
@<TRIPOS>SUBSTRUCTURE
       1 MOL1            1 RESIDUE      1      MOL     
@<SCITEGIC>MOL_PROPERTY
VM2 Rank
SciTegic.value.IntegerValue
167

@<SCITEGIC>MOL_PROPERTY
Conf_Id
SciTegic.value.IntegerValue
654

@<SCITEGIC>MOL_PROPERTY
Probability
SciTegic.value.DoubleValue
0.00

@<SCITEGIC>MOL_PROPERTY
Sum Probability
SciTegic.value.DoubleValue
99.99

@<SCITEGIC>MOL_PROPERTY
Delta G
SciTegic.value.DoubleValue
5.237

@<SCITEGIC>MOL_PROPERTY
G
SciTegic.value.DoubleValue
38.939

@<SCITEGIC>MOL_PROPERTY
E
SciTegic.value.DoubleValue
0.260

@<SCITEGIC>MOL_PROPERTY
-TS
SciTegic.value.DoubleValue
38.679

@<SCITEGIC>MOL_PROPERTY
U+W
SciTegic.value.DoubleValue
-23.885

@<SCITEGIC>MOL_PROPERTY
U
SciTegic.value.DoubleValue
28.683

@<SCITEGIC>MOL_PROPERTY
W
SciTegic.value.DoubleValue
-52.568

@<SCITEGIC>MOL_PROPERTY
W(PB)
SciTegic.value.DoubleValue
-54.935

@<SCITEGIC>MOL_PROPERTY
W(SA)
SciTegic.value.DoubleValue
2.367

@<SCITEGIC>MOL_PROPERTY
Valence
SciTegic.value.DoubleValue
7.341

@<SCITEGIC>MOL_PROPERTY
Coulomb
SciTegic.value.DoubleValue
20.552

@<SCITEGIC>MOL_PROPERTY
VdW
SciTegic.value.DoubleValue
0.790

@<SCITEGIC>MOL_PROPERTY
VdW6
SciTegic.value.DoubleValue
-12.015

@<SCITEGIC>MOL_PROPERTY
VdW12
SciTegic.value.DoubleValue
12.805

@<SCITEGIC>MOL_PROPERTY
Bond
SciTegic.value.DoubleValue
0.401

@<SCITEGIC>MOL_PROPERTY
Angle
SciTegic.value.DoubleValue
3.355

@<SCITEGIC>MOL_PROPERTY
Pdih
SciTegic.value.DoubleValue
3.585

@<SCITEGIC>MOL_PROPERTY
Idih
SciTegic.value.DoubleValue
0.000

@<SCITEGIC>MOL_PROPERTY
Tether
SciTegic.value.DoubleValue
0.000

@<TRIPOS>MOLECULE
guest-s15_vm2.mol2 : vm2 ligand conformer 168
          29          28           1
SMALL
USER_CHARGES
 
@<TRIPOS>ATOM
       1    C1      20.015016   19.803113   19.791715 C.3        1 MOL1        -0.2426
       2    H1      19.629085   20.585995   19.126175 H          1 MOL1         0.0959
       3    H2      20.916961   20.195990   20.277161 H          1 MOL1         0.0959
       4    H3      20.305194   18.946203   19.170097 H          1 MOL1         0.0959
       5    C2      18.943953   19.397743   20.829342 C.3        1 MOL1        -0.1410
       6    H4      18.027382   19.108674   20.296553 H          1 MOL1         0.0948
       7    H5      18.672951   20.266666   21.443851 H          1 MOL1         0.0948
       8    C3      19.382052   18.218465   21.733974 C.3        1 MOL1        -0.1435
       9    H6      18.549099   17.947887   22.395316 H          1 MOL1         0.0948
      10    H7      19.550003   17.334640   21.103378 H          1 MOL1         0.0948
      11    C4      20.660610   18.468518   22.579937 C.3        1 MOL1        -0.1435
      12    H8      21.523926   18.531812   21.904203 H          1 MOL1         0.0948
      13    H9      20.845254   17.581684   23.196473 H          1 MOL1         0.0948
      14    C5      20.641838   19.743529   23.469821 C.3        1 MOL1        -0.1435
      15    H10     21.616398   19.855631   23.964467 H          1 MOL1         0.0948
      16    H11     20.553618   20.620646   22.815522 H          1 MOL1         0.0948
      17    C6      19.513152   19.808226   24.536713 C.3        1 MOL1        -0.1500
      18    H12     18.607195   19.302832   24.183994 H          1 MOL1         0.0948
      19    H13     19.232107   20.863324   24.651888 H          1 MOL1         0.0948
      20    C7      19.901530   19.283476   25.939988 C.3        1 MOL1         0.1162
      21    H14     20.767315   19.853890   26.290089 H          1 MOL1         0.0910
      22    C8      20.277639   17.792782   25.941500 C.3        1 MOL1        -0.2491
      23    H15     19.496337   17.183912   25.469804 H          1 MOL1         0.0959
      24    H16     21.221211   17.627454   25.409861 H          1 MOL1         0.0959
      25    H17     20.420890   17.430032   26.966773 H          1 MOL1         0.0959
      26    N1      18.800209   19.540148   26.931010 N.4        1 MOL1        -0.5987
      27    H18     18.563988   20.535287   26.983105 H          1 MOL1         0.3605
      28    H19     19.067952   19.240956   27.873042 H          1 MOL1         0.3605
      29    H20     17.946828   19.033540   26.680510 H          1 MOL1         0.3605
@<TRIPOS>BOND
    1     1     2    1
    2     1     3    1
    3     1     4    1
    4     1     5    1
    5     5     6    1
    6     5     7    1
    7     5     8    1
    8     8     9    1
    9     8    10    1
   10     8    11    1
   11    11    12    1
   12    11    13    1
   13    11    14    1
   14    14    15    1
   15    14    16    1
   16    14    17    1
   17    17    18    1
   18    17    19    1
   19    17    20    1
   20    20    21    1
   21    20    22    1
   22    22    23    1
   23    22    24    1
   24    22    25    1
   25    20    26    1
   26    26    27    1
   27    26    28    1
   28    26    29    1
@<TRIPOS>SUBSTRUCTURE
       1 MOL1            1 RESIDUE      1      MOL     
@<SCITEGIC>MOL_PROPERTY
VM2 Rank
SciTegic.value.IntegerValue
168

@<SCITEGIC>MOL_PROPERTY
Conf_Id
SciTegic.value.IntegerValue
117

@<SCITEGIC>MOL_PROPERTY
Probability
SciTegic.value.DoubleValue
0.00

@<SCITEGIC>MOL_PROPERTY
Sum Probability
SciTegic.value.DoubleValue
99.99

@<SCITEGIC>MOL_PROPERTY
Delta G
SciTegic.value.DoubleValue
5.296

@<SCITEGIC>MOL_PROPERTY
G
SciTegic.value.DoubleValue
38.998

@<SCITEGIC>MOL_PROPERTY
E
SciTegic.value.DoubleValue
0.830

@<SCITEGIC>MOL_PROPERTY
-TS
SciTegic.value.DoubleValue
38.168

@<SCITEGIC>MOL_PROPERTY
U+W
SciTegic.value.DoubleValue
-23.315

@<SCITEGIC>MOL_PROPERTY
U
SciTegic.value.DoubleValue
29.271

@<SCITEGIC>MOL_PROPERTY
W
SciTegic.value.DoubleValue
-52.585

@<SCITEGIC>MOL_PROPERTY
W(PB)
SciTegic.value.DoubleValue
-54.988

@<SCITEGIC>MOL_PROPERTY
W(SA)
SciTegic.value.DoubleValue
2.403

@<SCITEGIC>MOL_PROPERTY
Valence
SciTegic.value.DoubleValue
7.971

@<SCITEGIC>MOL_PROPERTY
Coulomb
SciTegic.value.DoubleValue
20.084

@<SCITEGIC>MOL_PROPERTY
VdW
SciTegic.value.DoubleValue
1.216

@<SCITEGIC>MOL_PROPERTY
VdW6
SciTegic.value.DoubleValue
-11.598

@<SCITEGIC>MOL_PROPERTY
VdW12
SciTegic.value.DoubleValue
12.815

@<SCITEGIC>MOL_PROPERTY
Bond
SciTegic.value.DoubleValue
0.421

@<SCITEGIC>MOL_PROPERTY
Angle
SciTegic.value.DoubleValue
3.122

@<SCITEGIC>MOL_PROPERTY
Pdih
SciTegic.value.DoubleValue
4.428

@<SCITEGIC>MOL_PROPERTY
Idih
SciTegic.value.DoubleValue
0.000

@<SCITEGIC>MOL_PROPERTY
Tether
SciTegic.value.DoubleValue
0.000

@<TRIPOS>MOLECULE
guest-s15_vm2.mol2 : vm2 ligand conformer 169
          29          28           1
SMALL
USER_CHARGES
 
@<TRIPOS>ATOM
       1    C1      19.465930   20.016870   19.699489 C.3        1 MOL1        -0.2426
       2    H1      20.284193   20.688834   19.986372 H          1 MOL1         0.0959
       3    H2      19.897829   19.145473   19.190414 H          1 MOL1         0.0959
       4    H3      18.838902   20.552232   18.974820 H          1 MOL1         0.0959
       5    C2      18.628117   19.585938   20.924536 C.3        1 MOL1        -0.1410
       6    H4      17.752494   19.022799   20.572388 H          1 MOL1         0.0948
       7    H5      18.235513   20.476561   21.434471 H          1 MOL1         0.0948
       8    C3      19.411257   18.706555   21.929043 C.3        1 MOL1        -0.1435
       9    H6      18.706821   18.350167   22.690196 H          1 MOL1         0.0948
      10    H7      19.784865   17.809714   21.415973 H          1 MOL1         0.0948
      11    C4      20.594543   19.446849   22.603393 C.3        1 MOL1        -0.1435
      12    H8      20.256410   20.389580   23.049899 H          1 MOL1         0.0948
      13    H9      21.320937   19.733820   21.831819 H          1 MOL1         0.0948
      14    C5      21.345340   18.592349   23.656803 C.3        1 MOL1        -0.1435
      15    H10     21.790764   17.726059   23.148460 H          1 MOL1         0.0948
      16    H11     22.192339   19.178020   24.040149 H          1 MOL1         0.0948
      17    C6      20.513184   18.077139   24.863788 C.3        1 MOL1        -0.1500
      18    H12     21.189192   17.468705   25.479271 H          1 MOL1         0.0948
      19    H13     19.725811   17.389891   24.529861 H          1 MOL1         0.0948
      20    C7      19.908201   19.189142   25.752978 C.3        1 MOL1         0.1162
      21    H14     20.644338   19.993546   25.845311 H          1 MOL1         0.0910
      22    C8      19.606171   18.647965   27.160037 C.3        1 MOL1        -0.2491
      23    H15     20.520298   18.278409   27.641245 H          1 MOL1         0.0959
      24    H16     19.191775   19.437316   27.799327 H          1 MOL1         0.0959
      25    H17     18.882791   17.823825   27.121272 H          1 MOL1         0.0959
      26    N1      18.663257   19.793192   25.163933 N.4        1 MOL1        -0.5987
      27    H18     17.903937   19.108270   25.122555 H          1 MOL1         0.3605
      28    H19     18.830392   20.127247   24.211143 H          1 MOL1         0.3605
      29    H20     18.331559   20.585751   25.721467 H          1 MOL1         0.3605
@<TRIPOS>BOND
    1     1     2    1
    2     1     3    1
    3     1     4    1
    4     1     5    1
    5     5     6    1
    6     5     7    1
    7     5     8    1
    8     8     9    1
    9     8    10    1
   10     8    11    1
   11    11    12    1
   12    11    13    1
   13    11    14    1
   14    14    15    1
   15    14    16    1
   16    14    17    1
   17    17    18    1
   18    17    19    1
   19    17    20    1
   20    20    21    1
   21    20    22    1
   22    22    23    1
   23    22    24    1
   24    22    25    1
   25    20    26    1
   26    26    27    1
   27    26    28    1
   28    26    29    1
@<TRIPOS>SUBSTRUCTURE
       1 MOL1            1 RESIDUE      1      MOL     
@<SCITEGIC>MOL_PROPERTY
VM2 Rank
SciTegic.value.IntegerValue
169

@<SCITEGIC>MOL_PROPERTY
Conf_Id
SciTegic.value.IntegerValue
1163

@<SCITEGIC>MOL_PROPERTY
Probability
SciTegic.value.DoubleValue
0.00

@<SCITEGIC>MOL_PROPERTY
Sum Probability
SciTegic.value.DoubleValue
99.99

@<SCITEGIC>MOL_PROPERTY
Delta G
SciTegic.value.DoubleValue
5.472

@<SCITEGIC>MOL_PROPERTY
G
SciTegic.value.DoubleValue
39.174

@<SCITEGIC>MOL_PROPERTY
E
SciTegic.value.DoubleValue
0.988

@<SCITEGIC>MOL_PROPERTY
-TS
SciTegic.value.DoubleValue
38.186

@<SCITEGIC>MOL_PROPERTY
U+W
SciTegic.value.DoubleValue
-23.157

@<SCITEGIC>MOL_PROPERTY
U
SciTegic.value.DoubleValue
28.491

@<SCITEGIC>MOL_PROPERTY
W
SciTegic.value.DoubleValue
-51.648

@<SCITEGIC>MOL_PROPERTY
W(PB)
SciTegic.value.DoubleValue
-54.089

@<SCITEGIC>MOL_PROPERTY
W(SA)
SciTegic.value.DoubleValue
2.441

@<SCITEGIC>MOL_PROPERTY
Valence
SciTegic.value.DoubleValue
6.023

@<SCITEGIC>MOL_PROPERTY
Coulomb
SciTegic.value.DoubleValue
21.518

@<SCITEGIC>MOL_PROPERTY
VdW
SciTegic.value.DoubleValue
0.950

@<SCITEGIC>MOL_PROPERTY
VdW6
SciTegic.value.DoubleValue
-11.102

@<SCITEGIC>MOL_PROPERTY
VdW12
SciTegic.value.DoubleValue
12.052

@<SCITEGIC>MOL_PROPERTY
Bond
SciTegic.value.DoubleValue
0.333

@<SCITEGIC>MOL_PROPERTY
Angle
SciTegic.value.DoubleValue
2.459

@<SCITEGIC>MOL_PROPERTY
Pdih
SciTegic.value.DoubleValue
3.230

@<SCITEGIC>MOL_PROPERTY
Idih
SciTegic.value.DoubleValue
0.000

@<SCITEGIC>MOL_PROPERTY
Tether
SciTegic.value.DoubleValue
0.000

@<TRIPOS>MOLECULE
guest-s15_vm2.mol2 : vm2 ligand conformer 170
          29          28           1
SMALL
USER_CHARGES
 
@<TRIPOS>ATOM
       1    C1      19.096276   19.006627   19.771692 C.3        1 MOL1        -0.2426
       2    H1      20.068213   19.198757   19.298991 H          1 MOL1         0.0959
       3    H2      19.058781   17.950316   20.065275 H          1 MOL1         0.0959
       4    H3      18.317518   19.165908   19.014674 H          1 MOL1         0.0959
       5    C2      18.872630   19.941282   20.981966 C.3        1 MOL1        -0.1410
       6    H4      17.909672   19.706503   21.456243 H          1 MOL1         0.0948
       7    H5      18.792012   20.975430   20.618845 H          1 MOL1         0.0948
       8    C3      20.007125   19.872305   22.032561 C.3        1 MOL1        -0.1435
       9    H6      20.963435   20.127136   21.555470 H          1 MOL1         0.0948
      10    H7      19.824226   20.650953   22.782687 H          1 MOL1         0.0948
      11    C4      20.125240   18.488826   22.721291 C.3        1 MOL1        -0.1435
      12    H8      20.379062   17.734843   21.964787 H          1 MOL1         0.0948
      13    H9      19.156317   18.179301   23.130038 H          1 MOL1         0.0948
      14    C5      21.215660   18.433626   23.821934 C.3        1 MOL1        -0.1435
      15    H10     21.289281   17.402996   24.193988 H          1 MOL1         0.0948
      16    H11     22.188312   18.641087   23.355047 H          1 MOL1         0.0948
      17    C6      21.039254   19.402987   25.027879 C.3        1 MOL1        -0.1500
      18    H12     21.132288   20.442064   24.688494 H          1 MOL1         0.0948
      19    H13     21.892009   19.248066   25.701855 H          1 MOL1         0.0948
      20    C7      19.748760   19.257664   25.874456 C.3        1 MOL1         0.1162
      21    H14     19.896483   19.850111   26.782663 H          1 MOL1         0.0910
      22    C8      19.494617   17.804929   26.312940 C.3        1 MOL1        -0.2491
      23    H15     20.379715   17.388800   26.809898 H          1 MOL1         0.0959
      24    H16     18.661063   17.758775   27.024371 H          1 MOL1         0.0959
      25    H17     19.244217   17.161964   25.460806 H          1 MOL1         0.0959
      26    N1      18.536438   19.847754   25.209281 N.4        1 MOL1        -0.5987
      27    H18     18.350580   19.391475   24.313157 H          1 MOL1         0.3605
      28    H19     18.660662   20.847622   25.027027 H          1 MOL1         0.3605
      29    H20     17.701849   19.744227   25.793723 H          1 MOL1         0.3605
@<TRIPOS>BOND
    1     1     2    1
    2     1     3    1
    3     1     4    1
    4     1     5    1
    5     5     6    1
    6     5     7    1
    7     5     8    1
    8     8     9    1
    9     8    10    1
   10     8    11    1
   11    11    12    1
   12    11    13    1
   13    11    14    1
   14    14    15    1
   15    14    16    1
   16    14    17    1
   17    17    18    1
   18    17    19    1
   19    17    20    1
   20    20    21    1
   21    20    22    1
   22    22    23    1
   23    22    24    1
   24    22    25    1
   25    20    26    1
   26    26    27    1
   27    26    28    1
   28    26    29    1
@<TRIPOS>SUBSTRUCTURE
       1 MOL1            1 RESIDUE      1      MOL     
@<SCITEGIC>MOL_PROPERTY
VM2 Rank
SciTegic.value.IntegerValue
170

@<SCITEGIC>MOL_PROPERTY
Conf_Id
SciTegic.value.IntegerValue
862

@<SCITEGIC>MOL_PROPERTY
Probability
SciTegic.value.DoubleValue
0.00

@<SCITEGIC>MOL_PROPERTY
Sum Probability
SciTegic.value.DoubleValue
99.99

@<SCITEGIC>MOL_PROPERTY
Delta G
SciTegic.value.DoubleValue
5.589

@<SCITEGIC>MOL_PROPERTY
G
SciTegic.value.DoubleValue
39.291

@<SCITEGIC>MOL_PROPERTY
E
SciTegic.value.DoubleValue
0.689

@<SCITEGIC>MOL_PROPERTY
-TS
SciTegic.value.DoubleValue
38.602

@<SCITEGIC>MOL_PROPERTY
U+W
SciTegic.value.DoubleValue
-23.455

@<SCITEGIC>MOL_PROPERTY
U
SciTegic.value.DoubleValue
28.745

@<SCITEGIC>MOL_PROPERTY
W
SciTegic.value.DoubleValue
-52.201

@<SCITEGIC>MOL_PROPERTY
W(PB)
SciTegic.value.DoubleValue
-54.565

@<SCITEGIC>MOL_PROPERTY
W(SA)
SciTegic.value.DoubleValue
2.364

@<SCITEGIC>MOL_PROPERTY
Valence
SciTegic.value.DoubleValue
6.147

@<SCITEGIC>MOL_PROPERTY
Coulomb
SciTegic.value.DoubleValue
21.776

@<SCITEGIC>MOL_PROPERTY
VdW
SciTegic.value.DoubleValue
0.823

@<SCITEGIC>MOL_PROPERTY
VdW6
SciTegic.value.DoubleValue
-12.079

@<SCITEGIC>MOL_PROPERTY
VdW12
SciTegic.value.DoubleValue
12.901

@<SCITEGIC>MOL_PROPERTY
Bond
SciTegic.value.DoubleValue
0.393

@<SCITEGIC>MOL_PROPERTY
Angle
SciTegic.value.DoubleValue
2.949

@<SCITEGIC>MOL_PROPERTY
Pdih
SciTegic.value.DoubleValue
2.805

@<SCITEGIC>MOL_PROPERTY
Idih
SciTegic.value.DoubleValue
0.000

@<SCITEGIC>MOL_PROPERTY
Tether
SciTegic.value.DoubleValue
0.000

@<TRIPOS>MOLECULE
guest-s15_vm2.mol2 : vm2 ligand conformer 171
          29          28           1
SMALL
USER_CHARGES
 
@<TRIPOS>ATOM
       1    C1      19.875984   19.071749   19.841136 C.3        1 MOL1        -0.2426
       2    H1      18.864068   18.953669   19.432503 H          1 MOL1         0.0959
       3    H2      20.531476   19.403279   19.025533 H          1 MOL1         0.0959
       4    H3      20.230952   18.087510   20.170980 H          1 MOL1         0.0959
       5    C2      19.891271   20.095989   20.998137 C.3        1 MOL1        -0.1410
       6    H4      19.641464   21.087371   20.595285 H          1 MOL1         0.0948
       7    H5      20.908612   20.183121   21.402298 H          1 MOL1         0.0948
       8    C3      18.891216   19.758531   22.132881 C.3        1 MOL1        -0.1435
       9    H6      18.921426   20.564288   22.876369 H          1 MOL1         0.0948
      10    H7      17.872682   19.773627   21.721280 H          1 MOL1         0.0948
      11    C4      19.123310   18.390648   22.830500 C.3        1 MOL1        -0.1435
      12    H8      18.957402   17.586538   22.101420 H          1 MOL1         0.0948
      13    H9      18.353464   18.235896   23.595600 H          1 MOL1         0.0948
      14    C5      20.529201   18.200716   23.459131 C.3        1 MOL1        -0.1435
      15    H10     20.589229   17.194901   23.895032 H          1 MOL1         0.0948
      16    H11     21.276435   18.201755   22.654711 H          1 MOL1         0.0948
      17    C6      20.956321   19.254053   24.522897 C.3        1 MOL1        -0.1500
      18    H12     20.995818   20.250477   24.065446 H          1 MOL1         0.0948
      19    H13     21.992272   19.030700   24.809699 H          1 MOL1         0.0948
      20    C7      20.122464   19.324867   25.828190 C.3        1 MOL1         0.1162
      21    H14     20.682395   19.953478   26.527452 H          1 MOL1         0.0910
      22    C8      19.948492   17.947190   26.490498 C.3        1 MOL1        -0.2491
      23    H15     19.490486   18.052805   27.481539 H          1 MOL1         0.0959
      24    H16     19.306024   17.289423   25.892954 H          1 MOL1         0.0959
      25    H17     20.919378   17.453934   26.623225 H          1 MOL1         0.0959
      26    N1      18.797741   20.012255   25.650629 N.4        1 MOL1        -0.5987
      27    H18     18.211976   19.512925   24.977767 H          1 MOL1         0.3605
      28    H19     18.916958   20.969693   25.308196 H          1 MOL1         0.3605
      29    H20     18.282951   20.064627   26.534375 H          1 MOL1         0.3605
@<TRIPOS>BOND
    1     1     2    1
    2     1     3    1
    3     1     4    1
    4     1     5    1
    5     5     6    1
    6     5     7    1
    7     5     8    1
    8     8     9    1
    9     8    10    1
   10     8    11    1
   11    11    12    1
   12    11    13    1
   13    11    14    1
   14    14    15    1
   15    14    16    1
   16    14    17    1
   17    17    18    1
   18    17    19    1
   19    17    20    1
   20    20    21    1
   21    20    22    1
   22    22    23    1
   23    22    24    1
   24    22    25    1
   25    20    26    1
   26    26    27    1
   27    26    28    1
   28    26    29    1
@<TRIPOS>SUBSTRUCTURE
       1 MOL1            1 RESIDUE      1      MOL     
@<SCITEGIC>MOL_PROPERTY
VM2 Rank
SciTegic.value.IntegerValue
171

@<SCITEGIC>MOL_PROPERTY
Conf_Id
SciTegic.value.IntegerValue
178

@<SCITEGIC>MOL_PROPERTY
Probability
SciTegic.value.DoubleValue
0.00

@<SCITEGIC>MOL_PROPERTY
Sum Probability
SciTegic.value.DoubleValue
99.99

@<SCITEGIC>MOL_PROPERTY
Delta G
SciTegic.value.DoubleValue
5.721

@<SCITEGIC>MOL_PROPERTY
G
SciTegic.value.DoubleValue
39.423

@<SCITEGIC>MOL_PROPERTY
E
SciTegic.value.DoubleValue
0.461

@<SCITEGIC>MOL_PROPERTY
-TS
SciTegic.value.DoubleValue
38.962

@<SCITEGIC>MOL_PROPERTY
U+W
SciTegic.value.DoubleValue
-23.684

@<SCITEGIC>MOL_PROPERTY
U
SciTegic.value.DoubleValue
28.969

@<SCITEGIC>MOL_PROPERTY
W
SciTegic.value.DoubleValue
-52.652

@<SCITEGIC>MOL_PROPERTY
W(PB)
SciTegic.value.DoubleValue
-55.007

@<SCITEGIC>MOL_PROPERTY
W(SA)
SciTegic.value.DoubleValue
2.355

@<SCITEGIC>MOL_PROPERTY
Valence
SciTegic.value.DoubleValue
6.483

@<SCITEGIC>MOL_PROPERTY
Coulomb
SciTegic.value.DoubleValue
21.800

@<SCITEGIC>MOL_PROPERTY
VdW
SciTegic.value.DoubleValue
0.686

@<SCITEGIC>MOL_PROPERTY
VdW6
SciTegic.value.DoubleValue
-13.002

@<SCITEGIC>MOL_PROPERTY
VdW12
SciTegic.value.DoubleValue
13.688

@<SCITEGIC>MOL_PROPERTY
Bond
SciTegic.value.DoubleValue
0.441

@<SCITEGIC>MOL_PROPERTY
Angle
SciTegic.value.DoubleValue
3.285

@<SCITEGIC>MOL_PROPERTY
Pdih
SciTegic.value.DoubleValue
2.757

@<SCITEGIC>MOL_PROPERTY
Idih
SciTegic.value.DoubleValue
0.000

@<SCITEGIC>MOL_PROPERTY
Tether
SciTegic.value.DoubleValue
0.000

@<TRIPOS>MOLECULE
guest-s15_vm2.mol2 : vm2 ligand conformer 172
          29          28           1
SMALL
USER_CHARGES
 
@<TRIPOS>ATOM
       1    C1      19.347369   21.014100   20.545258 C.3        1 MOL1        -0.2426
       2    H1      19.544847   21.769869   21.316593 H          1 MOL1         0.0959
       3    H2      20.173720   21.039344   19.822913 H          1 MOL1         0.0959
       4    H3      18.429826   21.303619   20.016691 H          1 MOL1         0.0959
       5    C2      19.197511   19.610018   21.167776 C.3        1 MOL1        -0.1410
       6    H4      18.972275   18.883207   20.374790 H          1 MOL1         0.0948
       7    H5      18.334807   19.614033   21.844777 H          1 MOL1         0.0948
       8    C3      20.482345   19.180623   21.915907 C.3        1 MOL1        -0.1435
       9    H6      21.323277   19.222321   21.209875 H          1 MOL1         0.0948
      10    H7      20.721814   19.909828   22.696359 H          1 MOL1         0.0948
      11    C4      20.419069   17.742845   22.496890 C.3        1 MOL1        -0.1435
      12    H8      21.410590   17.461203   22.877132 H          1 MOL1         0.0948
      13    H9      20.219214   17.053906   21.664518 H          1 MOL1         0.0948
      14    C5      19.356994   17.489459   23.602683 C.3        1 MOL1        -0.1435
      15    H10     18.403685   17.971423   23.357438 H          1 MOL1         0.0948
      16    H11     19.135195   16.413287   23.602348 H          1 MOL1         0.0948
      17    C6      19.801802   17.856312   25.044952 C.3        1 MOL1        -0.1500
      18    H12     20.696922   17.272775   25.297985 H          1 MOL1         0.0948
      19    H13     19.020213   17.527322   25.742709 H          1 MOL1         0.0948
      20    C7      20.094432   19.351189   25.295088 C.3        1 MOL1         0.1162
      21    H14     20.935695   19.647345   24.663534 H          1 MOL1         0.0910
      22    C8      20.502616   19.577801   26.759225 C.3        1 MOL1        -0.2491
      23    H15     19.691082   19.304478   27.445246 H          1 MOL1         0.0959
      24    H16     21.383758   18.976347   27.015340 H          1 MOL1         0.0959
      25    H17     20.756410   20.630810   26.932792 H          1 MOL1         0.0959
      26    N1      18.933862   20.233652   24.926221 N.4        1 MOL1        -0.5987
      27    H18     18.689653   20.121359   23.938313 H          1 MOL1         0.3605
      28    H19     19.150195   21.222187   25.084046 H          1 MOL1         0.3605
      29    H20     18.104196   20.007497   25.481574 H          1 MOL1         0.3605
@<TRIPOS>BOND
    1     1     2    1
    2     1     3    1
    3     1     4    1
    4     1     5    1
    5     5     6    1
    6     5     7    1
    7     5     8    1
    8     8     9    1
    9     8    10    1
   10     8    11    1
   11    11    12    1
   12    11    13    1
   13    11    14    1
   14    14    15    1
   15    14    16    1
   16    14    17    1
   17    17    18    1
   18    17    19    1
   19    17    20    1
   20    20    21    1
   21    20    22    1
   22    22    23    1
   23    22    24    1
   24    22    25    1
   25    20    26    1
   26    26    27    1
   27    26    28    1
   28    26    29    1
@<TRIPOS>SUBSTRUCTURE
       1 MOL1            1 RESIDUE      1      MOL     
@<SCITEGIC>MOL_PROPERTY
VM2 Rank
SciTegic.value.IntegerValue
172

@<SCITEGIC>MOL_PROPERTY
Conf_Id
SciTegic.value.IntegerValue
341

@<SCITEGIC>MOL_PROPERTY
Probability
SciTegic.value.DoubleValue
0.00

@<SCITEGIC>MOL_PROPERTY
Sum Probability
SciTegic.value.DoubleValue
99.99

@<SCITEGIC>MOL_PROPERTY
Delta G
SciTegic.value.DoubleValue
5.736

@<SCITEGIC>MOL_PROPERTY
G
SciTegic.value.DoubleValue
39.438

@<SCITEGIC>MOL_PROPERTY
E
SciTegic.value.DoubleValue
1.176

@<SCITEGIC>MOL_PROPERTY
-TS
SciTegic.value.DoubleValue
38.262

@<SCITEGIC>MOL_PROPERTY
U+W
SciTegic.value.DoubleValue
-22.968

@<SCITEGIC>MOL_PROPERTY
U
SciTegic.value.DoubleValue
28.534

@<SCITEGIC>MOL_PROPERTY
W
SciTegic.value.DoubleValue
-51.502

@<SCITEGIC>MOL_PROPERTY
W(PB)
SciTegic.value.DoubleValue
-53.928

@<SCITEGIC>MOL_PROPERTY
W(SA)
SciTegic.value.DoubleValue
2.426

@<SCITEGIC>MOL_PROPERTY
Valence
SciTegic.value.DoubleValue
6.517

@<SCITEGIC>MOL_PROPERTY
Coulomb
SciTegic.value.DoubleValue
21.463

@<SCITEGIC>MOL_PROPERTY
VdW
SciTegic.value.DoubleValue
0.554

@<SCITEGIC>MOL_PROPERTY
VdW6
SciTegic.value.DoubleValue
-11.294

@<SCITEGIC>MOL_PROPERTY
VdW12
SciTegic.value.DoubleValue
11.848

@<SCITEGIC>MOL_PROPERTY
Bond
SciTegic.value.DoubleValue
0.345

@<SCITEGIC>MOL_PROPERTY
Angle
SciTegic.value.DoubleValue
2.713

@<SCITEGIC>MOL_PROPERTY
Pdih
SciTegic.value.DoubleValue
3.460

@<SCITEGIC>MOL_PROPERTY
Idih
SciTegic.value.DoubleValue
0.000

@<SCITEGIC>MOL_PROPERTY
Tether
SciTegic.value.DoubleValue
0.000

@<TRIPOS>MOLECULE
guest-s15_vm2.mol2 : vm2 ligand conformer 173
          29          28           1
SMALL
USER_CHARGES
 
@<TRIPOS>ATOM
       1    C1      18.255381   19.899142   20.890465 C.3        1 MOL1        -0.2426
       2    H1      17.666239   19.030192   20.569789 H          1 MOL1         0.0959
       3    H2      18.051742   20.080416   21.952520 H          1 MOL1         0.0959
       4    H3      17.896475   20.773075   20.331614 H          1 MOL1         0.0959
       5    C2      19.762246   19.673799   20.632218 C.3        1 MOL1        -0.1410
       6    H4      20.332732   20.545222   20.980519 H          1 MOL1         0.0948
       7    H5      19.930013   19.618885   19.547570 H          1 MOL1         0.0948
       8    C3      20.312349   18.378380   21.281545 C.3        1 MOL1        -0.1435
       9    H6      19.799414   17.513266   20.839310 H          1 MOL1         0.0948
      10    H7      21.371706   18.269432   21.011316 H          1 MOL1         0.0948
      11    C4      20.175421   18.304241   22.823889 C.3        1 MOL1        -0.1435
      12    H8      20.586047   17.343035   23.162129 H          1 MOL1         0.0948
      13    H9      19.112247   18.299082   23.089266 H          1 MOL1         0.0948
      14    C5      20.905180   19.454839   23.558997 C.3        1 MOL1        -0.1435
      15    H10     21.912873   19.555920   23.133039 H          1 MOL1         0.0948
      16    H11     20.400571   20.408277   23.356596 H          1 MOL1         0.0948
      17    C6      21.058980   19.257496   25.093869 C.3        1 MOL1        -0.1500
      18    H12     21.643527   20.105462   25.474004 H          1 MOL1         0.0948
      19    H13     21.676478   18.371363   25.291452 H          1 MOL1         0.0948
      20    C7      19.759744   19.183131   25.937325 C.3        1 MOL1         0.1162
      21    H14     20.028699   19.489274   26.953033 H          1 MOL1         0.0910
      22    C8      19.203750   17.751610   26.049747 C.3        1 MOL1        -0.2491
      23    H15     18.838094   17.367503   25.093021 H          1 MOL1         0.0959
      24    H16     19.973457   17.063757   26.420956 H          1 MOL1         0.0959
      25    H17     18.368237   17.722598   26.759839 H          1 MOL1         0.0959
      26    N1      18.702950   20.153363   25.485947 N.4        1 MOL1        -0.5987
      27    H18     17.878332   20.118206   26.092263 H          1 MOL1         0.3605
      28    H19     18.398576   19.945097   24.531927 H          1 MOL1         0.3605
      29    H20     19.052027   21.116091   25.497066 H          1 MOL1         0.3605
@<TRIPOS>BOND
    1     1     2    1
    2     1     3    1
    3     1     4    1
    4     1     5    1
    5     5     6    1
    6     5     7    1
    7     5     8    1
    8     8     9    1
    9     8    10    1
   10     8    11    1
   11    11    12    1
   12    11    13    1
   13    11    14    1
   14    14    15    1
   15    14    16    1
   16    14    17    1
   17    17    18    1
   18    17    19    1
   19    17    20    1
   20    20    21    1
   21    20    22    1
   22    22    23    1
   23    22    24    1
   24    22    25    1
   25    20    26    1
   26    26    27    1
   27    26    28    1
   28    26    29    1
@<TRIPOS>SUBSTRUCTURE
       1 MOL1            1 RESIDUE      1      MOL     
@<SCITEGIC>MOL_PROPERTY
VM2 Rank
SciTegic.value.IntegerValue
173

@<SCITEGIC>MOL_PROPERTY
Conf_Id
SciTegic.value.IntegerValue
165

@<SCITEGIC>MOL_PROPERTY
Probability
SciTegic.value.DoubleValue
0.00

@<SCITEGIC>MOL_PROPERTY
Sum Probability
SciTegic.value.DoubleValue
99.99

@<SCITEGIC>MOL_PROPERTY
Delta G
SciTegic.value.DoubleValue
5.824

@<SCITEGIC>MOL_PROPERTY
G
SciTegic.value.DoubleValue
39.526

@<SCITEGIC>MOL_PROPERTY
E
SciTegic.value.DoubleValue
1.228

@<SCITEGIC>MOL_PROPERTY
-TS
SciTegic.value.DoubleValue
38.298

@<SCITEGIC>MOL_PROPERTY
U+W
SciTegic.value.DoubleValue
-22.916

@<SCITEGIC>MOL_PROPERTY
U
SciTegic.value.DoubleValue
29.417

@<SCITEGIC>MOL_PROPERTY
W
SciTegic.value.DoubleValue
-52.333

@<SCITEGIC>MOL_PROPERTY
W(PB)
SciTegic.value.DoubleValue
-54.688

@<SCITEGIC>MOL_PROPERTY
W(SA)
SciTegic.value.DoubleValue
2.355

@<SCITEGIC>MOL_PROPERTY
Valence
SciTegic.value.DoubleValue
7.176

@<SCITEGIC>MOL_PROPERTY
Coulomb
SciTegic.value.DoubleValue
21.250

@<SCITEGIC>MOL_PROPERTY
VdW
SciTegic.value.DoubleValue
0.991

@<SCITEGIC>MOL_PROPERTY
VdW6
SciTegic.value.DoubleValue
-11.694

@<SCITEGIC>MOL_PROPERTY
VdW12
SciTegic.value.DoubleValue
12.685

@<SCITEGIC>MOL_PROPERTY
Bond
SciTegic.value.DoubleValue
0.376

@<SCITEGIC>MOL_PROPERTY
Angle
SciTegic.value.DoubleValue
2.904

@<SCITEGIC>MOL_PROPERTY
Pdih
SciTegic.value.DoubleValue
3.896

@<SCITEGIC>MOL_PROPERTY
Idih
SciTegic.value.DoubleValue
0.000

@<SCITEGIC>MOL_PROPERTY
Tether
SciTegic.value.DoubleValue
0.000

@<TRIPOS>MOLECULE
guest-s15_vm2.mol2 : vm2 ligand conformer 174
          29          28           1
SMALL
USER_CHARGES
 
@<TRIPOS>ATOM
       1    C1      21.034036   20.608815   21.022157 C.3        1 MOL1        -0.2426
       2    H1      20.497699   20.962036   20.131764 H          1 MOL1         0.0959
       3    H2      20.918061   21.361892   21.812454 H          1 MOL1         0.0959
       4    H3      22.100678   20.546060   20.770498 H          1 MOL1         0.0959
       5    C2      20.501076   19.235767   21.481811 C.3        1 MOL1        -0.1410
       6    H4      21.083829   18.891616   22.344447 H          1 MOL1         0.0948
       7    H5      20.666484   18.496843   20.685311 H          1 MOL1         0.0948
       8    C3      18.992507   19.293886   21.823231 C.3        1 MOL1        -0.1435
       9    H6      18.775077   20.125869   22.505806 H          1 MOL1         0.0948
      10    H7      18.445124   19.519129   20.897446 H          1 MOL1         0.0948
      11    C4      18.448168   17.965408   22.406766 C.3        1 MOL1        -0.1435
      12    H8      19.042159   17.117548   22.038570 H          1 MOL1         0.0948
      13    H9      17.437526   17.809517   22.004558 H          1 MOL1         0.0948
      14    C5      18.342392   17.907370   23.954856 C.3        1 MOL1        -0.1435
      15    H10     17.644548   18.676522   24.309587 H          1 MOL1         0.0948
      16    H11     17.870750   16.948843   24.211994 H          1 MOL1         0.0948
      17    C6      19.688284   17.990222   24.724347 C.3        1 MOL1        -0.1500
      18    H12     20.442618   17.395248   24.193077 H          1 MOL1         0.0948
      19    H13     19.563060   17.508611   25.703261 H          1 MOL1         0.0948
      20    C7      20.213116   19.426218   24.956139 C.3        1 MOL1         0.1162
      21    H14     20.272885   19.939670   23.993904 H          1 MOL1         0.0910
      22    C8      21.624392   19.386565   25.562790 C.3        1 MOL1        -0.2491
      23    H15     22.317118   18.848644   24.903655 H          1 MOL1         0.0959
      24    H16     22.016855   20.401766   25.699629 H          1 MOL1         0.0959
      25    H17     21.623167   18.885776   26.539077 H          1 MOL1         0.0959
      26    N1      19.292028   20.241748   25.821903 N.4        1 MOL1        -0.5987
      27    H18     19.189145   19.825374   26.751209 H          1 MOL1         0.3605
      28    H19     18.357464   20.312898   25.410971 H          1 MOL1         0.3605
      29    H20     19.644809   21.194414   25.950529 H          1 MOL1         0.3605
@<TRIPOS>BOND
    1     1     2    1
    2     1     3    1
    3     1     4    1
    4     1     5    1
    5     5     6    1
    6     5     7    1
    7     5     8    1
    8     8     9    1
    9     8    10    1
   10     8    11    1
   11    11    12    1
   12    11    13    1
   13    11    14    1
   14    14    15    1
   15    14    16    1
   16    14    17    1
   17    17    18    1
   18    17    19    1
   19    17    20    1
   20    20    21    1
   21    20    22    1
   22    22    23    1
   23    22    24    1
   24    22    25    1
   25    20    26    1
   26    26    27    1
   27    26    28    1
   28    26    29    1
@<TRIPOS>SUBSTRUCTURE
       1 MOL1            1 RESIDUE      1      MOL     
@<SCITEGIC>MOL_PROPERTY
VM2 Rank
SciTegic.value.IntegerValue
174

@<SCITEGIC>MOL_PROPERTY
Conf_Id
SciTegic.value.IntegerValue
728

@<SCITEGIC>MOL_PROPERTY
Probability
SciTegic.value.DoubleValue
0.00

@<SCITEGIC>MOL_PROPERTY
Sum Probability
SciTegic.value.DoubleValue
99.99

@<SCITEGIC>MOL_PROPERTY
Delta G
SciTegic.value.DoubleValue
5.851

@<SCITEGIC>MOL_PROPERTY
G
SciTegic.value.DoubleValue
39.553

@<SCITEGIC>MOL_PROPERTY
E
SciTegic.value.DoubleValue
1.178

@<SCITEGIC>MOL_PROPERTY
-TS
SciTegic.value.DoubleValue
38.375

@<SCITEGIC>MOL_PROPERTY
U+W
SciTegic.value.DoubleValue
-22.967

@<SCITEGIC>MOL_PROPERTY
U
SciTegic.value.DoubleValue
29.616

@<SCITEGIC>MOL_PROPERTY
W
SciTegic.value.DoubleValue
-52.582

@<SCITEGIC>MOL_PROPERTY
W(PB)
SciTegic.value.DoubleValue
-54.955

@<SCITEGIC>MOL_PROPERTY
W(SA)
SciTegic.value.DoubleValue
2.373

@<SCITEGIC>MOL_PROPERTY
Valence
SciTegic.value.DoubleValue
8.185

@<SCITEGIC>MOL_PROPERTY
Coulomb
SciTegic.value.DoubleValue
21.112

@<SCITEGIC>MOL_PROPERTY
VdW
SciTegic.value.DoubleValue
0.319

@<SCITEGIC>MOL_PROPERTY
VdW6
SciTegic.value.DoubleValue
-11.889

@<SCITEGIC>MOL_PROPERTY
VdW12
SciTegic.value.DoubleValue
12.208

@<SCITEGIC>MOL_PROPERTY
Bond
SciTegic.value.DoubleValue
0.321

@<SCITEGIC>MOL_PROPERTY
Angle
SciTegic.value.DoubleValue
2.381

@<SCITEGIC>MOL_PROPERTY
Pdih
SciTegic.value.DoubleValue
5.483

@<SCITEGIC>MOL_PROPERTY
Idih
SciTegic.value.DoubleValue
0.000

@<SCITEGIC>MOL_PROPERTY
Tether
SciTegic.value.DoubleValue
0.000

@<TRIPOS>MOLECULE
guest-s15_vm2.mol2 : vm2 ligand conformer 175
          29          28           1
SMALL
USER_CHARGES
 
@<TRIPOS>ATOM
       1    C1      19.693971   19.669360   19.878230 C.3        1 MOL1        -0.2426
       2    H1      19.277438   20.575677   20.334971 H          1 MOL1         0.0959
       3    H2      20.375569   19.985561   19.078084 H          1 MOL1         0.0959
       4    H3      18.871690   19.107189   19.417016 H          1 MOL1         0.0959
       5    C2      20.443000   18.804851   20.917213 C.3        1 MOL1        -0.1410
       6    H4      21.248460   19.392968   21.376812 H          1 MOL1         0.0948
       7    H5      20.937120   17.973897   20.394842 H          1 MOL1         0.0948
       8    C3      19.516572   18.217910   22.012166 C.3        1 MOL1        -0.1435
       9    H6      18.779398   17.557799   21.535009 H          1 MOL1         0.0948
      10    H7      20.112321   17.569713   22.666739 H          1 MOL1         0.0948
      11    C4      18.758954   19.268581   22.868416 C.3        1 MOL1        -0.1435
      12    H8      18.119071   18.753338   23.593956 H          1 MOL1         0.0948
      13    H9      18.061870   19.818546   22.222500 H          1 MOL1         0.0948
      14    C5      19.660630   20.293975   23.603806 C.3        1 MOL1        -0.1435
      15    H10     20.166654   20.912852   22.851101 H          1 MOL1         0.0948
      16    H11     19.022294   20.995105   24.157105 H          1 MOL1         0.0948
      17    C6      20.744648   19.710922   24.558009 C.3        1 MOL1        -0.1500
      18    H12     21.356553   20.555643   24.900201 H          1 MOL1         0.0948
      19    H13     21.437750   19.070009   23.998791 H          1 MOL1         0.0948
      20    C7      20.254473   18.969951   25.829774 C.3        1 MOL1         0.1162
      21    H14     21.075817   19.016422   26.551516 H          1 MOL1         0.0910
      22    C8      19.975651   17.475744   25.589033 C.3        1 MOL1        -0.2491
      23    H15     20.839667   16.988126   25.121175 H          1 MOL1         0.0959
      24    H16     19.788000   16.966329   26.542122 H          1 MOL1         0.0959
      25    H17     19.102130   17.312500   24.951239 H          1 MOL1         0.0959
      26    N1      19.088101   19.644706   26.497353 N.4        1 MOL1        -0.5987
      27    H18     19.304058   20.617589   26.732677 H          1 MOL1         0.3605
      28    H19     18.825924   19.168879   27.365310 H          1 MOL1         0.3605
      29    H20     18.268017   19.649360   25.885770 H          1 MOL1         0.3605
@<TRIPOS>BOND
    1     1     2    1
    2     1     3    1
    3     1     4    1
    4     1     5    1
    5     5     6    1
    6     5     7    1
    7     5     8    1
    8     8     9    1
    9     8    10    1
   10     8    11    1
   11    11    12    1
   12    11    13    1
   13    11    14    1
   14    14    15    1
   15    14    16    1
   16    14    17    1
   17    17    18    1
   18    17    19    1
   19    17    20    1
   20    20    21    1
   21    20    22    1
   22    22    23    1
   23    22    24    1
   24    22    25    1
   25    20    26    1
   26    26    27    1
   27    26    28    1
   28    26    29    1
@<TRIPOS>SUBSTRUCTURE
       1 MOL1            1 RESIDUE      1      MOL     
@<SCITEGIC>MOL_PROPERTY
VM2 Rank
SciTegic.value.IntegerValue
175

@<SCITEGIC>MOL_PROPERTY
Conf_Id
SciTegic.value.IntegerValue
958

@<SCITEGIC>MOL_PROPERTY
Probability
SciTegic.value.DoubleValue
0.00

@<SCITEGIC>MOL_PROPERTY
Sum Probability
SciTegic.value.DoubleValue
99.99

@<SCITEGIC>MOL_PROPERTY
Delta G
SciTegic.value.DoubleValue
5.938

@<SCITEGIC>MOL_PROPERTY
G
SciTegic.value.DoubleValue
39.640

@<SCITEGIC>MOL_PROPERTY
E
SciTegic.value.DoubleValue
0.655

@<SCITEGIC>MOL_PROPERTY
-TS
SciTegic.value.DoubleValue
38.985

@<SCITEGIC>MOL_PROPERTY
U+W
SciTegic.value.DoubleValue
-23.490

@<SCITEGIC>MOL_PROPERTY
U
SciTegic.value.DoubleValue
29.136

@<SCITEGIC>MOL_PROPERTY
W
SciTegic.value.DoubleValue
-52.625

@<SCITEGIC>MOL_PROPERTY
W(PB)
SciTegic.value.DoubleValue
-54.969

@<SCITEGIC>MOL_PROPERTY
W(SA)
SciTegic.value.DoubleValue
2.344

@<SCITEGIC>MOL_PROPERTY
Valence
SciTegic.value.DoubleValue
7.786

@<SCITEGIC>MOL_PROPERTY
Coulomb
SciTegic.value.DoubleValue
20.543

@<SCITEGIC>MOL_PROPERTY
VdW
SciTegic.value.DoubleValue
0.806

@<SCITEGIC>MOL_PROPERTY
VdW6
SciTegic.value.DoubleValue
-12.839

@<SCITEGIC>MOL_PROPERTY
VdW12
SciTegic.value.DoubleValue
13.645

@<SCITEGIC>MOL_PROPERTY
Bond
SciTegic.value.DoubleValue
0.443

@<SCITEGIC>MOL_PROPERTY
Angle
SciTegic.value.DoubleValue
3.663

@<SCITEGIC>MOL_PROPERTY
Pdih
SciTegic.value.DoubleValue
3.681

@<SCITEGIC>MOL_PROPERTY
Idih
SciTegic.value.DoubleValue
0.000

@<SCITEGIC>MOL_PROPERTY
Tether
SciTegic.value.DoubleValue
0.000

@<TRIPOS>MOLECULE
guest-s15_vm2.mol2 : vm2 ligand conformer 176
          29          28           1
SMALL
USER_CHARGES
 
@<TRIPOS>ATOM
       1    C1      19.010766   19.699689   20.089742 C.3        1 MOL1        -0.2426
       2    H1      19.854831   19.658995   19.389120 H          1 MOL1         0.0959
       3    H2      18.640257   18.678407   20.243079 H          1 MOL1         0.0959
       4    H3      18.206070   20.274686   19.613606 H          1 MOL1         0.0959
       5    C2      19.427965   20.355857   21.424897 C.3        1 MOL1        -0.1410
       6    H4      18.572501   20.362813   22.111075 H          1 MOL1         0.0948
       7    H5      19.669209   21.411513   21.237140 H          1 MOL1         0.0948
       8    C3      20.658321   19.681865   22.086348 C.3        1 MOL1        -0.1435
       9    H6      21.519264   19.806191   21.415150 H          1 MOL1         0.0948
      10    H7      20.923602   20.233587   22.994565 H          1 MOL1         0.0948
      11    C4      20.508077   18.166680   22.398548 C.3        1 MOL1        -0.1435
      12    H8      21.456519   17.786128   22.801637 H          1 MOL1         0.0948
      13    H9      20.368609   17.632266   21.449597 H          1 MOL1         0.0948
      14    C5      19.350481   17.772506   23.356745 C.3        1 MOL1        -0.1435
      15    H10     18.446855   18.357534   23.149839 H          1 MOL1         0.0948
      16    H11     19.072429   16.734707   23.126793 H          1 MOL1         0.0948
      17    C6      19.704554   17.820287   24.868063 C.3        1 MOL1        -0.1500
      18    H12     20.539892   17.132695   25.055781 H          1 MOL1         0.0948
      19    H13     18.853842   17.424518   25.438655 H          1 MOL1         0.0948
      20    C7      20.072205   19.213449   25.421031 C.3        1 MOL1         0.1162
      21    H14     20.958502   19.571251   24.891102 H          1 MOL1         0.0910
      22    C8      20.420284   19.120844   26.914999 C.3        1 MOL1        -0.2491
      23    H15     19.562207   18.770450   27.502233 H          1 MOL1         0.0959
      24    H16     21.253061   18.425498   27.078455 H          1 MOL1         0.0959
      25    H17     20.723440   20.100596   27.304294 H          1 MOL1         0.0959
      26    N1      18.983347   20.224823   25.193628 N.4        1 MOL1        -0.5987
      27    H18     18.119480   19.953923   25.671333 H          1 MOL1         0.3605
      28    H19     18.773225   20.316036   24.196307 H          1 MOL1         0.3605
      29    H20     19.251680   21.149419   25.542934 H          1 MOL1         0.3605
@<TRIPOS>BOND
    1     1     2    1
    2     1     3    1
    3     1     4    1
    4     1     5    1
    5     5     6    1
    6     5     7    1
    7     5     8    1
    8     8     9    1
    9     8    10    1
   10     8    11    1
   11    11    12    1
   12    11    13    1
   13    11    14    1
   14    14    15    1
   15    14    16    1
   16    14    17    1
   17    17    18    1
   18    17    19    1
   19    17    20    1
   20    20    21    1
   21    20    22    1
   22    22    23    1
   23    22    24    1
   24    22    25    1
   25    20    26    1
   26    26    27    1
   27    26    28    1
   28    26    29    1
@<TRIPOS>SUBSTRUCTURE
       1 MOL1            1 RESIDUE      1      MOL     
@<SCITEGIC>MOL_PROPERTY
VM2 Rank
SciTegic.value.IntegerValue
176

@<SCITEGIC>MOL_PROPERTY
Conf_Id
SciTegic.value.IntegerValue
620

@<SCITEGIC>MOL_PROPERTY
Probability
SciTegic.value.DoubleValue
0.00

@<SCITEGIC>MOL_PROPERTY
Sum Probability
SciTegic.value.DoubleValue
99.99

@<SCITEGIC>MOL_PROPERTY
Delta G
SciTegic.value.DoubleValue
6.008

@<SCITEGIC>MOL_PROPERTY
G
SciTegic.value.DoubleValue
39.710

@<SCITEGIC>MOL_PROPERTY
E
SciTegic.value.DoubleValue
1.225

@<SCITEGIC>MOL_PROPERTY
-TS
SciTegic.value.DoubleValue
38.486

@<SCITEGIC>MOL_PROPERTY
U+W
SciTegic.value.DoubleValue
-22.920

@<SCITEGIC>MOL_PROPERTY
U
SciTegic.value.DoubleValue
29.194

@<SCITEGIC>MOL_PROPERTY
W
SciTegic.value.DoubleValue
-52.113

@<SCITEGIC>MOL_PROPERTY
W(PB)
SciTegic.value.DoubleValue
-54.495

@<SCITEGIC>MOL_PROPERTY
W(SA)
SciTegic.value.DoubleValue
2.382

@<SCITEGIC>MOL_PROPERTY
Valence
SciTegic.value.DoubleValue
7.015

@<SCITEGIC>MOL_PROPERTY
Coulomb
SciTegic.value.DoubleValue
21.615

@<SCITEGIC>MOL_PROPERTY
VdW
SciTegic.value.DoubleValue
0.564

@<SCITEGIC>MOL_PROPERTY
VdW6
SciTegic.value.DoubleValue
-12.006

@<SCITEGIC>MOL_PROPERTY
VdW12
SciTegic.value.DoubleValue
12.570

@<SCITEGIC>MOL_PROPERTY
Bond
SciTegic.value.DoubleValue
0.392

@<SCITEGIC>MOL_PROPERTY
Angle
SciTegic.value.DoubleValue
2.975

@<SCITEGIC>MOL_PROPERTY
Pdih
SciTegic.value.DoubleValue
3.647

@<SCITEGIC>MOL_PROPERTY
Idih
SciTegic.value.DoubleValue
0.000

@<SCITEGIC>MOL_PROPERTY
Tether
SciTegic.value.DoubleValue
0.000

@<TRIPOS>MOLECULE
guest-s15_vm2.mol2 : vm2 ligand conformer 177
          29          28           1
SMALL
USER_CHARGES
 
@<TRIPOS>ATOM
       1    C1      20.748050   20.343974   20.690454 C.3        1 MOL1        -0.2426
       2    H1      20.885153   20.699023   21.718979 H          1 MOL1         0.0959
       3    H2      21.455687   19.525916   20.503604 H          1 MOL1         0.0959
       4    H3      21.009114   21.174016   20.021330 H          1 MOL1         0.0959
       5    C2      19.292909   19.890405   20.443907 C.3        1 MOL1        -0.1410
       6    H4      19.152091   19.732321   19.365525 H          1 MOL1         0.0948
       7    H5      18.606144   20.701244   20.724159 H          1 MOL1         0.0948
       8    C3      18.892883   18.589198   21.185372 C.3        1 MOL1        -0.1435
       9    H6      17.860404   18.350111   20.895178 H          1 MOL1         0.0948
      10    H7      19.501455   17.748499   20.825309 H          1 MOL1         0.0948
      11    C4      18.949366   18.675710   22.733365 C.3        1 MOL1        -0.1435
      12    H8      18.143723   18.050280   23.142200 H          1 MOL1         0.0948
      13    H9      18.736914   19.706074   23.041194 H          1 MOL1         0.0948
      14    C5      20.294748   18.186824   23.329812 C.3        1 MOL1        -0.1435
      15    H10     20.539301   17.211016   22.888266 H          1 MOL1         0.0948
      16    H11     21.110030   18.860102   23.040318 H          1 MOL1         0.0948
      17    C6      20.299381   18.020016   24.872251 C.3        1 MOL1        -0.1500
      18    H12     21.250834   17.541574   25.140487 H          1 MOL1         0.0948
      19    H13     19.514260   17.317345   25.181174 H          1 MOL1         0.0948
      20    C7      20.171414   19.340509   25.668143 C.3        1 MOL1         0.1162
      21    H14     20.762119   20.108849   25.159955 H          1 MOL1         0.0910
      22    C8      20.731125   19.164960   27.089495 C.3        1 MOL1        -0.2491
      23    H15     20.181558   18.390582   27.639363 H          1 MOL1         0.0959
      24    H16     21.789645   18.877783   27.060248 H          1 MOL1         0.0959
      25    H17     20.658488   20.102526   27.654456 H          1 MOL1         0.0959
      26    N1      18.756123   19.844403   25.741201 N.4        1 MOL1        -0.5987
      27    H18     18.152005   19.183052   26.236359 H          1 MOL1         0.3605
      28    H19     18.360520   19.984532   24.808958 H          1 MOL1         0.3605
      29    H20     18.703018   20.738521   26.237645 H          1 MOL1         0.3605
@<TRIPOS>BOND
    1     1     2    1
    2     1     3    1
    3     1     4    1
    4     1     5    1
    5     5     6    1
    6     5     7    1
    7     5     8    1
    8     8     9    1
    9     8    10    1
   10     8    11    1
   11    11    12    1
   12    11    13    1
   13    11    14    1
   14    14    15    1
   15    14    16    1
   16    14    17    1
   17    17    18    1
   18    17    19    1
   19    17    20    1
   20    20    21    1
   21    20    22    1
   22    22    23    1
   23    22    24    1
   24    22    25    1
   25    20    26    1
   26    26    27    1
   27    26    28    1
   28    26    29    1
@<TRIPOS>SUBSTRUCTURE
       1 MOL1            1 RESIDUE      1      MOL     
@<SCITEGIC>MOL_PROPERTY
VM2 Rank
SciTegic.value.IntegerValue
177

@<SCITEGIC>MOL_PROPERTY
Conf_Id
SciTegic.value.IntegerValue
1518

@<SCITEGIC>MOL_PROPERTY
Probability
SciTegic.value.DoubleValue
0.00

@<SCITEGIC>MOL_PROPERTY
Sum Probability
SciTegic.value.DoubleValue
100.00

@<SCITEGIC>MOL_PROPERTY
Delta G
SciTegic.value.DoubleValue
6.064

@<SCITEGIC>MOL_PROPERTY
G
SciTegic.value.DoubleValue
39.766

@<SCITEGIC>MOL_PROPERTY
E
SciTegic.value.DoubleValue
2.263

@<SCITEGIC>MOL_PROPERTY
-TS
SciTegic.value.DoubleValue
37.503

@<SCITEGIC>MOL_PROPERTY
U+W
SciTegic.value.DoubleValue
-21.881

@<SCITEGIC>MOL_PROPERTY
U
SciTegic.value.DoubleValue
30.431

@<SCITEGIC>MOL_PROPERTY
W
SciTegic.value.DoubleValue
-52.312

@<SCITEGIC>MOL_PROPERTY
W(PB)
SciTegic.value.DoubleValue
-54.731

@<SCITEGIC>MOL_PROPERTY
W(SA)
SciTegic.value.DoubleValue
2.419

@<SCITEGIC>MOL_PROPERTY
Valence
SciTegic.value.DoubleValue
7.908

@<SCITEGIC>MOL_PROPERTY
Coulomb
SciTegic.value.DoubleValue
21.387

@<SCITEGIC>MOL_PROPERTY
VdW
SciTegic.value.DoubleValue
1.136

@<SCITEGIC>MOL_PROPERTY
VdW6
SciTegic.value.DoubleValue
-10.627

@<SCITEGIC>MOL_PROPERTY
VdW12
SciTegic.value.DoubleValue
11.762

@<SCITEGIC>MOL_PROPERTY
Bond
SciTegic.value.DoubleValue
0.341

@<SCITEGIC>MOL_PROPERTY
Angle
SciTegic.value.DoubleValue
2.395

@<SCITEGIC>MOL_PROPERTY
Pdih
SciTegic.value.DoubleValue
5.172

@<SCITEGIC>MOL_PROPERTY
Idih
SciTegic.value.DoubleValue
0.000

@<SCITEGIC>MOL_PROPERTY
Tether
SciTegic.value.DoubleValue
0.000

@<TRIPOS>MOLECULE
guest-s15_vm2.mol2 : vm2 ligand conformer 178
          29          28           1
SMALL
USER_CHARGES
 
@<TRIPOS>ATOM
       1    C1      20.829345   19.338192   20.025395 C.3        1 MOL1        -0.2426
       2    H1      21.420475   18.868952   20.819014 H          1 MOL1         0.0959
       3    H2      20.494432   18.548877   19.339972 H          1 MOL1         0.0959
       4    H3      21.498495   20.003634   19.464759 H          1 MOL1         0.0959
       5    C2      19.625614   20.131150   20.585482 C.3        1 MOL1        -0.1410
       6    H4      19.118701   20.615632   19.739206 H          1 MOL1         0.0948
       7    H5      19.974581   20.945829   21.235106 H          1 MOL1         0.0948
       8    C3      18.593963   19.248518   21.334621 C.3        1 MOL1        -0.1435
       9    H6      17.596650   19.679940   21.171387 H          1 MOL1         0.0948
      10    H7      18.557408   18.244573   20.889791 H          1 MOL1         0.0948
      11    C4      18.811038   19.148697   22.866595 C.3        1 MOL1        -0.1435
      12    H8      17.969344   18.587342   23.295162 H          1 MOL1         0.0948
      13    H9      18.768777   20.159567   23.290316 H          1 MOL1         0.0948
      14    C5      20.137074   18.462948   23.274986 C.3        1 MOL1        -0.1435
      15    H10     20.277695   17.569236   22.651630 H          1 MOL1         0.0948
      16    H11     20.980032   19.131856   23.057114 H          1 MOL1         0.0948
      17    C6      20.211544   18.025041   24.761498 C.3        1 MOL1        -0.1500
      18    H12     21.133741   17.440423   24.879193 H          1 MOL1         0.0948
      19    H13     19.388947   17.336675   24.996221 H          1 MOL1         0.0948
      20    C7      20.234955   19.188872   25.780464 C.3        1 MOL1         0.1162
      21    H14     20.884206   19.977758   25.388481 H          1 MOL1         0.0910
      22    C8      20.813556   18.712105   27.122886 C.3        1 MOL1        -0.2491
      23    H15     20.850321   19.536948   27.845219 H          1 MOL1         0.0959
      24    H16     20.205035   17.906952   27.553536 H          1 MOL1         0.0959
      25    H17     21.836936   18.337257   26.996571 H          1 MOL1         0.0959
      26    N1      18.878912   19.800477   26.002073 N.4        1 MOL1        -0.5987
      27    H18     18.225639   19.120431   26.399906 H          1 MOL1         0.3605
      28    H19     18.475270   20.140079   25.126190 H          1 MOL1         0.3605
      29    H20     18.927563   20.593178   26.648594 H          1 MOL1         0.3605
@<TRIPOS>BOND
    1     1     2    1
    2     1     3    1
    3     1     4    1
    4     1     5    1
    5     5     6    1
    6     5     7    1
    7     5     8    1
    8     8     9    1
    9     8    10    1
   10     8    11    1
   11    11    12    1
   12    11    13    1
   13    11    14    1
   14    14    15    1
   15    14    16    1
   16    14    17    1
   17    17    18    1
   18    17    19    1
   19    17    20    1
   20    20    21    1
   21    20    22    1
   22    22    23    1
   23    22    24    1
   24    22    25    1
   25    20    26    1
   26    26    27    1
   27    26    28    1
   28    26    29    1
@<TRIPOS>SUBSTRUCTURE
       1 MOL1            1 RESIDUE      1      MOL     
@<SCITEGIC>MOL_PROPERTY
VM2 Rank
SciTegic.value.IntegerValue
178

@<SCITEGIC>MOL_PROPERTY
Conf_Id
SciTegic.value.IntegerValue
615

@<SCITEGIC>MOL_PROPERTY
Probability
SciTegic.value.DoubleValue
0.00

@<SCITEGIC>MOL_PROPERTY
Sum Probability
SciTegic.value.DoubleValue
100.00

@<SCITEGIC>MOL_PROPERTY
Delta G
SciTegic.value.DoubleValue
6.076

@<SCITEGIC>MOL_PROPERTY
G
SciTegic.value.DoubleValue
39.778

@<SCITEGIC>MOL_PROPERTY
E
SciTegic.value.DoubleValue
2.058

@<SCITEGIC>MOL_PROPERTY
-TS
SciTegic.value.DoubleValue
37.721

@<SCITEGIC>MOL_PROPERTY
U+W
SciTegic.value.DoubleValue
-22.087

@<SCITEGIC>MOL_PROPERTY
U
SciTegic.value.DoubleValue
30.184

@<SCITEGIC>MOL_PROPERTY
W
SciTegic.value.DoubleValue
-52.271

@<SCITEGIC>MOL_PROPERTY
W(PB)
SciTegic.value.DoubleValue
-54.705

@<SCITEGIC>MOL_PROPERTY
W(SA)
SciTegic.value.DoubleValue
2.434

@<SCITEGIC>MOL_PROPERTY
Valence
SciTegic.value.DoubleValue
7.816

@<SCITEGIC>MOL_PROPERTY
Coulomb
SciTegic.value.DoubleValue
21.246

@<SCITEGIC>MOL_PROPERTY
VdW
SciTegic.value.DoubleValue
1.122

@<SCITEGIC>MOL_PROPERTY
VdW6
SciTegic.value.DoubleValue
-10.605

@<SCITEGIC>MOL_PROPERTY
VdW12
SciTegic.value.DoubleValue
11.727

@<SCITEGIC>MOL_PROPERTY
Bond
SciTegic.value.DoubleValue
0.328

@<SCITEGIC>MOL_PROPERTY
Angle
SciTegic.value.DoubleValue
2.365

@<SCITEGIC>MOL_PROPERTY
Pdih
SciTegic.value.DoubleValue
5.123

@<SCITEGIC>MOL_PROPERTY
Idih
SciTegic.value.DoubleValue
0.000

@<SCITEGIC>MOL_PROPERTY
Tether
SciTegic.value.DoubleValue
0.000

@<TRIPOS>MOLECULE
guest-s15_vm2.mol2 : vm2 ligand conformer 179
          29          28           1
SMALL
USER_CHARGES
 
@<TRIPOS>ATOM
       1    C1      19.383858   18.379223   19.630128 C.3        1 MOL1        -0.2426
       2    H1      18.514509   18.888117   19.193699 H          1 MOL1         0.0959
       3    H2      20.281905   18.718915   19.097816 H          1 MOL1         0.0959
       4    H3      19.270643   17.302720   19.447565 H          1 MOL1         0.0959
       5    C2      19.494093   18.666694   21.142397 C.3        1 MOL1        -0.1410
       6    H4      20.350487   18.111855   21.548162 H          1 MOL1         0.0948
       7    H5      18.595152   18.291007   21.650465 H          1 MOL1         0.0948
       8    C3      19.661387   20.177413   21.424754 C.3        1 MOL1        -0.1435
       9    H6      20.589538   20.536502   20.959101 H          1 MOL1         0.0948
      10    H7      18.843237   20.723986   20.935701 H          1 MOL1         0.0948
      11    C4      19.663544   20.545755   22.930630 C.3        1 MOL1        -0.1435
      12    H8      18.700761   20.267037   23.375563 H          1 MOL1         0.0948
      13    H9      19.722314   21.640525   23.004179 H          1 MOL1         0.0948
      14    C5      20.847436   19.940936   23.733876 C.3        1 MOL1        -0.1435
      15    H10     21.699934   19.794234   23.056386 H          1 MOL1         0.0948
      16    H11     21.194555   20.670684   24.478548 H          1 MOL1         0.0948
      17    C6      20.527745   18.601926   24.453093 C.3        1 MOL1        -0.1500
      18    H12     21.454476   18.014861   24.501875 H          1 MOL1         0.0948
      19    H13     19.820000   18.003055   23.867517 H          1 MOL1         0.0948
      20    C7      20.002017   18.778328   25.896439 C.3        1 MOL1         0.1162
      21    H14     20.744522   19.352126   26.459475 H          1 MOL1         0.0910
      22    C8      19.837687   17.409225   26.575373 C.3        1 MOL1        -0.2491
      23    H15     19.098786   16.791580   26.049583 H          1 MOL1         0.0959
      24    H16     20.789847   16.864340   26.590347 H          1 MOL1         0.0959
      25    H17     19.506455   17.528230   27.614382 H          1 MOL1         0.0959
      26    N1      18.718234   19.556501   25.967309 N.4        1 MOL1        -0.5987
      27    H18     17.961922   19.071397   25.477586 H          1 MOL1         0.3605
      28    H19     18.824613   20.480560   25.539466 H          1 MOL1         0.3605
      29    H20     18.418259   19.696546   26.936415 H          1 MOL1         0.3605
@<TRIPOS>BOND
    1     1     2    1
    2     1     3    1
    3     1     4    1
    4     1     5    1
    5     5     6    1
    6     5     7    1
    7     5     8    1
    8     8     9    1
    9     8    10    1
   10     8    11    1
   11    11    12    1
   12    11    13    1
   13    11    14    1
   14    14    15    1
   15    14    16    1
   16    14    17    1
   17    17    18    1
   18    17    19    1
   19    17    20    1
   20    20    21    1
   21    20    22    1
   22    22    23    1
   23    22    24    1
   24    22    25    1
   25    20    26    1
   26    26    27    1
   27    26    28    1
   28    26    29    1
@<TRIPOS>SUBSTRUCTURE
       1 MOL1            1 RESIDUE      1      MOL     
@<SCITEGIC>MOL_PROPERTY
VM2 Rank
SciTegic.value.IntegerValue
179

@<SCITEGIC>MOL_PROPERTY
Conf_Id
SciTegic.value.IntegerValue
322

@<SCITEGIC>MOL_PROPERTY
Probability
SciTegic.value.DoubleValue
0.00

@<SCITEGIC>MOL_PROPERTY
Sum Probability
SciTegic.value.DoubleValue
100.00

@<SCITEGIC>MOL_PROPERTY
Delta G
SciTegic.value.DoubleValue
6.114

@<SCITEGIC>MOL_PROPERTY
G
SciTegic.value.DoubleValue
39.816

@<SCITEGIC>MOL_PROPERTY
E
SciTegic.value.DoubleValue
1.853

@<SCITEGIC>MOL_PROPERTY
-TS
SciTegic.value.DoubleValue
37.963

@<SCITEGIC>MOL_PROPERTY
U+W
SciTegic.value.DoubleValue
-22.291

@<SCITEGIC>MOL_PROPERTY
U
SciTegic.value.DoubleValue
30.054

@<SCITEGIC>MOL_PROPERTY
W
SciTegic.value.DoubleValue
-52.346

@<SCITEGIC>MOL_PROPERTY
W(PB)
SciTegic.value.DoubleValue
-54.788

@<SCITEGIC>MOL_PROPERTY
W(SA)
SciTegic.value.DoubleValue
2.442

@<SCITEGIC>MOL_PROPERTY
Valence
SciTegic.value.DoubleValue
8.013

@<SCITEGIC>MOL_PROPERTY
Coulomb
SciTegic.value.DoubleValue
20.944

@<SCITEGIC>MOL_PROPERTY
VdW
SciTegic.value.DoubleValue
1.096

@<SCITEGIC>MOL_PROPERTY
VdW6
SciTegic.value.DoubleValue
-10.534

@<SCITEGIC>MOL_PROPERTY
VdW12
SciTegic.value.DoubleValue
11.631

@<SCITEGIC>MOL_PROPERTY
Bond
SciTegic.value.DoubleValue
0.334

@<SCITEGIC>MOL_PROPERTY
Angle
SciTegic.value.DoubleValue
1.816

@<SCITEGIC>MOL_PROPERTY
Pdih
SciTegic.value.DoubleValue
5.864

@<SCITEGIC>MOL_PROPERTY
Idih
SciTegic.value.DoubleValue
0.000

@<SCITEGIC>MOL_PROPERTY
Tether
SciTegic.value.DoubleValue
0.000

@<TRIPOS>MOLECULE
guest-s15_vm2.mol2 : vm2 ligand conformer 180
          29          28           1
SMALL
USER_CHARGES
 
@<TRIPOS>ATOM
       1    C1      18.709629   19.656413   19.715592 C.3        1 MOL1        -0.2426
       2    H1      17.718703   20.125466   19.660306 H          1 MOL1         0.0959
       3    H2      19.428968   20.329892   19.231636 H          1 MOL1         0.0959
       4    H3      18.673190   18.723145   19.138620 H          1 MOL1         0.0959
       5    C2      19.103666   19.386857   21.183186 C.3        1 MOL1        -0.1410
       6    H4      18.351607   18.734062   21.647569 H          1 MOL1         0.0948
       7    H5      19.092448   20.336519   21.734482 H          1 MOL1         0.0948
       8    C3      20.500060   18.731825   21.287387 C.3        1 MOL1        -0.1435
       9    H6      20.517989   17.830030   20.659931 H          1 MOL1         0.0948
      10    H7      21.255098   19.410729   20.867609 H          1 MOL1         0.0948
      11    C4      20.910267   18.332413   22.728250 C.3        1 MOL1        -0.1435
      12    H8      21.881220   17.821752   22.667819 H          1 MOL1         0.0948
      13    H9      20.205809   17.587624   23.119644 H          1 MOL1         0.0948
      14    C5      21.052469   19.528178   23.708832 C.3        1 MOL1        -0.1435
      15    H10     21.886019   19.337004   24.398826 H          1 MOL1         0.0948
      16    H11     21.347621   20.421625   23.141501 H          1 MOL1         0.0948
      17    C6      19.774654   19.841183   24.535201 C.3        1 MOL1        -0.1500
      18    H12     18.872590   19.549914   23.983971 H          1 MOL1         0.0948
      19    H13     19.714152   20.930408   24.659324 H          1 MOL1         0.0948
      20    C7      19.753184   19.205451   25.945796 C.3        1 MOL1         0.1162
      21    H14     20.651891   19.530353   26.479013 H          1 MOL1         0.0910
      22    C8      19.748681   17.667865   25.902930 C.3        1 MOL1        -0.2491
      23    H15     18.896736   17.289140   25.324753 H          1 MOL1         0.0959
      24    H16     20.671768   17.282946   25.453996 H          1 MOL1         0.0959
      25    H17     19.683677   17.253028   26.916312 H          1 MOL1         0.0959
      26    N1      18.583388   19.705815   26.746827 N.4        1 MOL1        -0.5987
      27    H18     17.693865   19.439154   26.316405 H          1 MOL1         0.3605
      28    H19     18.591997   20.726544   26.829792 H          1 MOL1         0.3605
      29    H20     18.590069   19.323156   27.696671 H          1 MOL1         0.3605
@<TRIPOS>BOND
    1     1     2    1
    2     1     3    1
    3     1     4    1
    4     1     5    1
    5     5     6    1
    6     5     7    1
    7     5     8    1
    8     8     9    1
    9     8    10    1
   10     8    11    1
   11    11    12    1
   12    11    13    1
   13    11    14    1
   14    14    15    1
   15    14    16    1
   16    14    17    1
   17    17    18    1
   18    17    19    1
   19    17    20    1
   20    20    21    1
   21    20    22    1
   22    22    23    1
   23    22    24    1
   24    22    25    1
   25    20    26    1
   26    26    27    1
   27    26    28    1
   28    26    29    1
@<TRIPOS>SUBSTRUCTURE
       1 MOL1            1 RESIDUE      1      MOL     
@<SCITEGIC>MOL_PROPERTY
VM2 Rank
SciTegic.value.IntegerValue
180

@<SCITEGIC>MOL_PROPERTY
Conf_Id
SciTegic.value.IntegerValue
1028

@<SCITEGIC>MOL_PROPERTY
Probability
SciTegic.value.DoubleValue
0.00

@<SCITEGIC>MOL_PROPERTY
Sum Probability
SciTegic.value.DoubleValue
100.00

@<SCITEGIC>MOL_PROPERTY
Delta G
SciTegic.value.DoubleValue
6.170

@<SCITEGIC>MOL_PROPERTY
G
SciTegic.value.DoubleValue
39.872

@<SCITEGIC>MOL_PROPERTY
E
SciTegic.value.DoubleValue
1.723

@<SCITEGIC>MOL_PROPERTY
-TS
SciTegic.value.DoubleValue
38.149

@<SCITEGIC>MOL_PROPERTY
U+W
SciTegic.value.DoubleValue
-22.421

@<SCITEGIC>MOL_PROPERTY
U
SciTegic.value.DoubleValue
30.226

@<SCITEGIC>MOL_PROPERTY
W
SciTegic.value.DoubleValue
-52.647

@<SCITEGIC>MOL_PROPERTY
W(PB)
SciTegic.value.DoubleValue
-55.091

@<SCITEGIC>MOL_PROPERTY
W(SA)
SciTegic.value.DoubleValue
2.444

@<SCITEGIC>MOL_PROPERTY
Valence
SciTegic.value.DoubleValue
8.804

@<SCITEGIC>MOL_PROPERTY
Coulomb
SciTegic.value.DoubleValue
20.287

@<SCITEGIC>MOL_PROPERTY
VdW
SciTegic.value.DoubleValue
1.135

@<SCITEGIC>MOL_PROPERTY
VdW6
SciTegic.value.DoubleValue
-10.804

@<SCITEGIC>MOL_PROPERTY
VdW12
SciTegic.value.DoubleValue
11.939

@<SCITEGIC>MOL_PROPERTY
Bond
SciTegic.value.DoubleValue
0.337

@<SCITEGIC>MOL_PROPERTY
Angle
SciTegic.value.DoubleValue
2.139

@<SCITEGIC>MOL_PROPERTY
Pdih
SciTegic.value.DoubleValue
6.328

@<SCITEGIC>MOL_PROPERTY
Idih
SciTegic.value.DoubleValue
0.000

@<SCITEGIC>MOL_PROPERTY
Tether
SciTegic.value.DoubleValue
0.000

@<TRIPOS>MOLECULE
guest-s15_vm2.mol2 : vm2 ligand conformer 181
          29          28           1
SMALL
USER_CHARGES
 
@<TRIPOS>ATOM
       1    C1      18.701221   20.718450   20.917835 C.3        1 MOL1        -0.2426
       2    H1      17.866329   20.673392   21.628832 H          1 MOL1         0.0959
       3    H2      19.494981   21.338917   21.351468 H          1 MOL1         0.0959
       4    H3      18.342199   21.230159   20.015443 H          1 MOL1         0.0959
       5    C2      19.210947   19.302389   20.565033 C.3        1 MOL1        -0.1410
       6    H4      20.054062   19.375456   19.863884 H          1 MOL1         0.0948
       7    H5      18.414769   18.763366   20.032694 H          1 MOL1         0.0948
       8    C3      19.628451   18.474227   21.803169 C.3        1 MOL1        -0.1435
       9    H6      18.778071   18.408329   22.492553 H          1 MOL1         0.0948
      10    H7      19.839274   17.445091   21.481176 H          1 MOL1         0.0948
      11    C4      20.881255   19.036948   22.521684 C.3        1 MOL1        -0.1435
      12    H8      20.721791   20.071511   22.844838 H          1 MOL1         0.0948
      13    H9      21.706999   19.082554   21.798211 H          1 MOL1         0.0948
      14    C5      21.341629   18.177433   23.726231 C.3        1 MOL1        -0.1435
      15    H10     21.636349   17.185754   23.356145 H          1 MOL1         0.0948
      16    H11     22.256000   18.622130   24.142819 H          1 MOL1         0.0948
      17    C6      20.313422   17.987443   24.875673 C.3        1 MOL1        -0.1500
      18    H12     20.787022   17.336650   25.622778 H          1 MOL1         0.0948
      19    H13     19.433456   17.435039   24.522730 H          1 MOL1         0.0948
      20    C7      19.875198   19.297952   25.571672 C.3        1 MOL1         0.1162
      21    H14     20.750790   19.948223   25.660982 H          1 MOL1         0.0910
      22    C8      19.345271   19.005816   26.985016 C.3        1 MOL1        -0.2491
      23    H15     20.117461   18.528192   27.600937 H          1 MOL1         0.0959
      24    H16     19.048131   19.934215   27.488279 H          1 MOL1         0.0959
      25    H17     18.473660   18.340084   26.952180 H          1 MOL1         0.0959
      26    N1      18.838607   20.055341   24.787687 N.4        1 MOL1        -0.5987
      27    H18     17.957272   19.536603   24.745026 H          1 MOL1         0.3605
      28    H19     19.149669   20.217005   23.825530 H          1 MOL1         0.3605
      29    H20     18.638695   20.965488   25.213098 H          1 MOL1         0.3605
@<TRIPOS>BOND
    1     1     2    1
    2     1     3    1
    3     1     4    1
    4     1     5    1
    5     5     6    1
    6     5     7    1
    7     5     8    1
    8     8     9    1
    9     8    10    1
   10     8    11    1
   11    11    12    1
   12    11    13    1
   13    11    14    1
   14    14    15    1
   15    14    16    1
   16    14    17    1
   17    17    18    1
   18    17    19    1
   19    17    20    1
   20    20    21    1
   21    20    22    1
   22    22    23    1
   23    22    24    1
   24    22    25    1
   25    20    26    1
   26    26    27    1
   27    26    28    1
   28    26    29    1
@<TRIPOS>SUBSTRUCTURE
       1 MOL1            1 RESIDUE      1      MOL     
@<SCITEGIC>MOL_PROPERTY
VM2 Rank
SciTegic.value.IntegerValue
181

@<SCITEGIC>MOL_PROPERTY
Conf_Id
SciTegic.value.IntegerValue
509

@<SCITEGIC>MOL_PROPERTY
Probability
SciTegic.value.DoubleValue
0.00

@<SCITEGIC>MOL_PROPERTY
Sum Probability
SciTegic.value.DoubleValue
100.00

@<SCITEGIC>MOL_PROPERTY
Delta G
SciTegic.value.DoubleValue
6.251

@<SCITEGIC>MOL_PROPERTY
G
SciTegic.value.DoubleValue
39.954

@<SCITEGIC>MOL_PROPERTY
E
SciTegic.value.DoubleValue
1.612

@<SCITEGIC>MOL_PROPERTY
-TS
SciTegic.value.DoubleValue
38.342

@<SCITEGIC>MOL_PROPERTY
U+W
SciTegic.value.DoubleValue
-22.533

@<SCITEGIC>MOL_PROPERTY
U
SciTegic.value.DoubleValue
28.370

@<SCITEGIC>MOL_PROPERTY
W
SciTegic.value.DoubleValue
-50.903

@<SCITEGIC>MOL_PROPERTY
W(PB)
SciTegic.value.DoubleValue
-53.303

@<SCITEGIC>MOL_PROPERTY
W(SA)
SciTegic.value.DoubleValue
2.400

@<SCITEGIC>MOL_PROPERTY
Valence
SciTegic.value.DoubleValue
5.939

@<SCITEGIC>MOL_PROPERTY
Coulomb
SciTegic.value.DoubleValue
21.711

@<SCITEGIC>MOL_PROPERTY
VdW
SciTegic.value.DoubleValue
0.720

@<SCITEGIC>MOL_PROPERTY
VdW6
SciTegic.value.DoubleValue
-11.571

@<SCITEGIC>MOL_PROPERTY
VdW12
SciTegic.value.DoubleValue
12.291

@<SCITEGIC>MOL_PROPERTY
Bond
SciTegic.value.DoubleValue
0.321

@<SCITEGIC>MOL_PROPERTY
Angle
SciTegic.value.DoubleValue
2.348

@<SCITEGIC>MOL_PROPERTY
Pdih
SciTegic.value.DoubleValue
3.270

@<SCITEGIC>MOL_PROPERTY
Idih
SciTegic.value.DoubleValue
0.000

@<SCITEGIC>MOL_PROPERTY
Tether
SciTegic.value.DoubleValue
0.000

@<TRIPOS>MOLECULE
guest-s15_vm2.mol2 : vm2 ligand conformer 182
          29          28           1
SMALL
USER_CHARGES
 
@<TRIPOS>ATOM
       1    C1      21.292924   19.936989   21.335125 C.3        1 MOL1        -0.2426
       2    H1      21.150403   20.165673   22.396327 H          1 MOL1         0.0959
       3    H2      21.124744   20.860744   20.766504 H          1 MOL1         0.0959
       4    H3      22.342234   19.646770   21.195474 H          1 MOL1         0.0959
       5    C2      20.351144   18.811390   20.847136 C.3        1 MOL1        -0.1410
       6    H4      20.576064   17.866267   21.359240 H          1 MOL1         0.0948
       7    H5      20.567152   18.632760   19.784460 H          1 MOL1         0.0948
       8    C3      18.847205   19.157939   20.988070 C.3        1 MOL1        -0.1435
       9    H6      18.692931   20.237034   20.850953 H          1 MOL1         0.0948
      10    H7      18.315234   18.678985   20.154411 H          1 MOL1         0.0948
      11    C4      18.163547   18.683948   22.299484 C.3        1 MOL1        -0.1435
      12    H8      18.247139   17.592665   22.395688 H          1 MOL1         0.0948
      13    H9      17.088431   18.885951   22.195759 H          1 MOL1         0.0948
      14    C5      18.651330   19.377410   23.596748 C.3        1 MOL1        -0.1435
      15    H10     19.010835   20.389975   23.369586 H          1 MOL1         0.0948
      16    H11     17.785860   19.506310   24.260349 H          1 MOL1         0.0948
      17    C6      19.733490   18.564932   24.353981 C.3        1 MOL1        -0.1500
      18    H12     20.547777   18.303546   23.669233 H          1 MOL1         0.0948
      19    H13     19.305520   17.613727   24.697231 H          1 MOL1         0.0948
      20    C7      20.325096   19.330585   25.556706 C.3        1 MOL1         0.1162
      21    H14     20.720363   20.284627   25.194516 H          1 MOL1         0.0910
      22    C8      21.482597   18.534749   26.180256 C.3        1 MOL1        -0.2491
      23    H15     21.137783   17.565399   26.561566 H          1 MOL1         0.0959
      24    H16     22.271616   18.349963   25.440584 H          1 MOL1         0.0959
      25    H17     21.931142   19.089934   27.013302 H          1 MOL1         0.0959
      26    N1      19.288668   19.658060   26.596493 N.4        1 MOL1        -0.5987
      27    H18     18.532046   20.224765   26.203955 H          1 MOL1         0.3605
      28    H19     19.693652   20.184431   27.375929 H          1 MOL1         0.3605
      29    H20     18.869043   18.809126   26.984718 H          1 MOL1         0.3605
@<TRIPOS>BOND
    1     1     2    1
    2     1     3    1
    3     1     4    1
    4     1     5    1
    5     5     6    1
    6     5     7    1
    7     5     8    1
    8     8     9    1
    9     8    10    1
   10     8    11    1
   11    11    12    1
   12    11    13    1
   13    11    14    1
   14    14    15    1
   15    14    16    1
   16    14    17    1
   17    17    18    1
   18    17    19    1
   19    17    20    1
   20    20    21    1
   21    20    22    1
   22    22    23    1
   23    22    24    1
   24    22    25    1
   25    20    26    1
   26    26    27    1
   27    26    28    1
   28    26    29    1
@<TRIPOS>SUBSTRUCTURE
       1 MOL1            1 RESIDUE      1      MOL     
@<SCITEGIC>MOL_PROPERTY
VM2 Rank
SciTegic.value.IntegerValue
182

@<SCITEGIC>MOL_PROPERTY
Conf_Id
SciTegic.value.IntegerValue
1314

@<SCITEGIC>MOL_PROPERTY
Probability
SciTegic.value.DoubleValue
0.00

@<SCITEGIC>MOL_PROPERTY
Sum Probability
SciTegic.value.DoubleValue
100.00

@<SCITEGIC>MOL_PROPERTY
Delta G
SciTegic.value.DoubleValue
6.255

@<SCITEGIC>MOL_PROPERTY
G
SciTegic.value.DoubleValue
39.957

@<SCITEGIC>MOL_PROPERTY
E
SciTegic.value.DoubleValue
1.672

@<SCITEGIC>MOL_PROPERTY
-TS
SciTegic.value.DoubleValue
38.286

@<SCITEGIC>MOL_PROPERTY
U+W
SciTegic.value.DoubleValue
-22.473

@<SCITEGIC>MOL_PROPERTY
U
SciTegic.value.DoubleValue
30.008

@<SCITEGIC>MOL_PROPERTY
W
SciTegic.value.DoubleValue
-52.481

@<SCITEGIC>MOL_PROPERTY
W(PB)
SciTegic.value.DoubleValue
-54.892

@<SCITEGIC>MOL_PROPERTY
W(SA)
SciTegic.value.DoubleValue
2.411

@<SCITEGIC>MOL_PROPERTY
Valence
SciTegic.value.DoubleValue
8.778

@<SCITEGIC>MOL_PROPERTY
Coulomb
SciTegic.value.DoubleValue
20.386

@<SCITEGIC>MOL_PROPERTY
VdW
SciTegic.value.DoubleValue
0.844

@<SCITEGIC>MOL_PROPERTY
VdW6
SciTegic.value.DoubleValue
-10.989

@<SCITEGIC>MOL_PROPERTY
VdW12
SciTegic.value.DoubleValue
11.834

@<SCITEGIC>MOL_PROPERTY
Bond
SciTegic.value.DoubleValue
0.330

@<SCITEGIC>MOL_PROPERTY
Angle
SciTegic.value.DoubleValue
2.382

@<SCITEGIC>MOL_PROPERTY
Pdih
SciTegic.value.DoubleValue
6.066

@<SCITEGIC>MOL_PROPERTY
Idih
SciTegic.value.DoubleValue
0.000

@<SCITEGIC>MOL_PROPERTY
Tether
SciTegic.value.DoubleValue
0.000

@<TRIPOS>MOLECULE
guest-s15_vm2.mol2 : vm2 ligand conformer 183
          29          28           1
SMALL
USER_CHARGES
 
@<TRIPOS>ATOM
       1    C1      18.080870   19.761187   20.936680 C.3        1 MOL1        -0.2426
       2    H1      17.897234   20.627605   21.584882 H          1 MOL1         0.0959
       3    H2      17.507451   19.909589   20.012450 H          1 MOL1         0.0959
       4    H3      17.681030   18.866589   21.429487 H          1 MOL1         0.0959
       5    C2      19.585927   19.612771   20.616889 C.3        1 MOL1        -0.1410
       6    H4      19.907888   20.480287   20.023967 H          1 MOL1         0.0948
       7    H5      19.744907   18.730403   19.981350 H          1 MOL1         0.0948
       8    C3      20.475271   19.517209   21.879138 C.3        1 MOL1        -0.1435
       9    H6      21.528620   19.554700   21.568939 H          1 MOL1         0.0948
      10    H7      20.309914   20.404851   22.501483 H          1 MOL1         0.0948
      11    C4      20.242321   18.220620   22.695413 C.3        1 MOL1        -0.1435
      12    H8      20.415639   17.357985   22.037363 H          1 MOL1         0.0948
      13    H9      19.197985   18.138767   23.014757 H          1 MOL1         0.0948
      14    C5      21.178225   18.087998   23.923551 C.3        1 MOL1        -0.1435
      15    H10     21.003284   17.113121   24.397968 H          1 MOL1         0.0948
      16    H11     22.216568   18.052511   23.566284 H          1 MOL1         0.0948
      17    C6      21.071003   19.210092   24.997954 C.3        1 MOL1        -0.1500
      18    H12     21.405850   20.164848   24.573554 H          1 MOL1         0.0948
      19    H13     21.797475   18.980235   25.788414 H          1 MOL1         0.0948
      20    C7      19.693036   19.412085   25.679367 C.3        1 MOL1         0.1162
      21    H14     19.856940   20.068519   26.539534 H          1 MOL1         0.0910
      22    C8      19.104437   18.095573   26.215760 C.3        1 MOL1        -0.2491
      23    H15     18.206405   18.292106   26.814084 H          1 MOL1         0.0959
      24    H16     18.823582   17.415371   25.402991 H          1 MOL1         0.0959
      25    H17     19.827771   17.581246   26.860576 H          1 MOL1         0.0959
      26    N1      18.704910   20.138464   24.809249 N.4        1 MOL1        -0.5987
      27    H18     18.543294   19.631177   23.935559 H          1 MOL1         0.3605
      28    H19     19.041850   21.074264   24.565580 H          1 MOL1         0.3605
      29    H20     17.803068   20.250787   25.281618 H          1 MOL1         0.3605
@<TRIPOS>BOND
    1     1     2    1
    2     1     3    1
    3     1     4    1
    4     1     5    1
    5     5     6    1
    6     5     7    1
    7     5     8    1
    8     8     9    1
    9     8    10    1
   10     8    11    1
   11    11    12    1
   12    11    13    1
   13    11    14    1
   14    14    15    1
   15    14    16    1
   16    14    17    1
   17    17    18    1
   18    17    19    1
   19    17    20    1
   20    20    21    1
   21    20    22    1
   22    22    23    1
   23    22    24    1
   24    22    25    1
   25    20    26    1
   26    26    27    1
   27    26    28    1
   28    26    29    1
@<TRIPOS>SUBSTRUCTURE
       1 MOL1            1 RESIDUE      1      MOL     
@<SCITEGIC>MOL_PROPERTY
VM2 Rank
SciTegic.value.IntegerValue
183

@<SCITEGIC>MOL_PROPERTY
Conf_Id
SciTegic.value.IntegerValue
1647

@<SCITEGIC>MOL_PROPERTY
Probability
SciTegic.value.DoubleValue
0.00

@<SCITEGIC>MOL_PROPERTY
Sum Probability
SciTegic.value.DoubleValue
100.00

@<SCITEGIC>MOL_PROPERTY
Delta G
SciTegic.value.DoubleValue
6.289

@<SCITEGIC>MOL_PROPERTY
G
SciTegic.value.DoubleValue
39.991

@<SCITEGIC>MOL_PROPERTY
E
SciTegic.value.DoubleValue
1.248

@<SCITEGIC>MOL_PROPERTY
-TS
SciTegic.value.DoubleValue
38.743

@<SCITEGIC>MOL_PROPERTY
U+W
SciTegic.value.DoubleValue
-22.897

@<SCITEGIC>MOL_PROPERTY
U
SciTegic.value.DoubleValue
28.641

@<SCITEGIC>MOL_PROPERTY
W
SciTegic.value.DoubleValue
-51.538

@<SCITEGIC>MOL_PROPERTY
W(PB)
SciTegic.value.DoubleValue
-53.873

@<SCITEGIC>MOL_PROPERTY
W(SA)
SciTegic.value.DoubleValue
2.335

@<SCITEGIC>MOL_PROPERTY
Valence
SciTegic.value.DoubleValue
6.059

@<SCITEGIC>MOL_PROPERTY
Coulomb
SciTegic.value.DoubleValue
22.000

@<SCITEGIC>MOL_PROPERTY
VdW
SciTegic.value.DoubleValue
0.582

@<SCITEGIC>MOL_PROPERTY
VdW6
SciTegic.value.DoubleValue
-12.551

@<SCITEGIC>MOL_PROPERTY
VdW12
SciTegic.value.DoubleValue
13.133

@<SCITEGIC>MOL_PROPERTY
Bond
SciTegic.value.DoubleValue
0.383

@<SCITEGIC>MOL_PROPERTY
Angle
SciTegic.value.DoubleValue
2.850

@<SCITEGIC>MOL_PROPERTY
Pdih
SciTegic.value.DoubleValue
2.826

@<SCITEGIC>MOL_PROPERTY
Idih
SciTegic.value.DoubleValue
0.000

@<SCITEGIC>MOL_PROPERTY
Tether
SciTegic.value.DoubleValue
0.000

@<TRIPOS>MOLECULE
guest-s15_vm2.mol2 : vm2 ligand conformer 184
          29          28           1
SMALL
USER_CHARGES
 
@<TRIPOS>ATOM
       1    C1      20.555438   18.524846   20.164279 C.3        1 MOL1        -0.2426
       2    H1      20.610642   17.594940   19.583674 H          1 MOL1         0.0959
       3    H2      20.826718   19.351521   19.494939 H          1 MOL1         0.0959
       4    H3      21.312566   18.466886   20.953596 H          1 MOL1         0.0959
       5    C2      19.131587   18.721086   20.734867 C.3        1 MOL1        -0.1410
       6    H4      18.849240   17.862329   21.359608 H          1 MOL1         0.0948
       7    H5      18.427823   18.724981   19.890737 H          1 MOL1         0.0948
       8    C3      18.957826   20.043574   21.525573 C.3        1 MOL1        -0.1435
       9    H6      19.615426   20.822137   21.115067 H          1 MOL1         0.0948
      10    H7      17.933493   20.405749   21.361446 H          1 MOL1         0.0948
      11    C4      19.166603   19.918626   23.056674 C.3        1 MOL1        -0.1435
      12    H8      18.442217   19.194888   23.449839 H          1 MOL1         0.0948
      13    H9      18.928431   20.888236   23.515115 H          1 MOL1         0.0948
      14    C5      20.599337   19.503510   23.468893 C.3        1 MOL1        -0.1435
      15    H10     20.781148   18.460550   23.181112 H          1 MOL1         0.0948
      16    H11     21.317602   20.106791   22.897042 H          1 MOL1         0.0948
      17    C6      20.917415   19.689428   24.979289 C.3        1 MOL1        -0.1500
      18    H12     20.844189   20.753998   25.237322 H          1 MOL1         0.0948
      19    H13     21.971863   19.424991   25.133269 H          1 MOL1         0.0948
      20    C7      20.077314   18.867592   25.990070 C.3        1 MOL1         0.1162
      21    H14     20.570859   18.963259   26.962155 H          1 MOL1         0.0910
      22    C8      20.037868   17.369585   25.641259 C.3        1 MOL1        -0.2491
      23    H15     19.471190   17.182775   24.721220 H          1 MOL1         0.0959
      24    H16     21.052676   16.975023   25.506995 H          1 MOL1         0.0959
      25    H17     19.563115   16.799540   26.449190 H          1 MOL1         0.0959
      26    N1      18.692611   19.417755   26.193095 N.4        1 MOL1        -0.5987
      27    H18     18.181913   18.889497   26.906449 H          1 MOL1         0.3605
      28    H19     18.147811   19.377840   25.329258 H          1 MOL1         0.3605
      29    H20     18.719355   20.395255   26.497168 H          1 MOL1         0.3605
@<TRIPOS>BOND
    1     1     2    1
    2     1     3    1
    3     1     4    1
    4     1     5    1
    5     5     6    1
    6     5     7    1
    7     5     8    1
    8     8     9    1
    9     8    10    1
   10     8    11    1
   11    11    12    1
   12    11    13    1
   13    11    14    1
   14    14    15    1
   15    14    16    1
   16    14    17    1
   17    17    18    1
   18    17    19    1
   19    17    20    1
   20    20    21    1
   21    20    22    1
   22    22    23    1
   23    22    24    1
   24    22    25    1
   25    20    26    1
   26    26    27    1
   27    26    28    1
   28    26    29    1
@<TRIPOS>SUBSTRUCTURE
       1 MOL1            1 RESIDUE      1      MOL     
@<SCITEGIC>MOL_PROPERTY
VM2 Rank
SciTegic.value.IntegerValue
184

@<SCITEGIC>MOL_PROPERTY
Conf_Id
SciTegic.value.IntegerValue
1245

@<SCITEGIC>MOL_PROPERTY
Probability
SciTegic.value.DoubleValue
0.00

@<SCITEGIC>MOL_PROPERTY
Sum Probability
SciTegic.value.DoubleValue
100.00

@<SCITEGIC>MOL_PROPERTY
Delta G
SciTegic.value.DoubleValue
6.387

@<SCITEGIC>MOL_PROPERTY
G
SciTegic.value.DoubleValue
40.089

@<SCITEGIC>MOL_PROPERTY
E
SciTegic.value.DoubleValue
1.771

@<SCITEGIC>MOL_PROPERTY
-TS
SciTegic.value.DoubleValue
38.318

@<SCITEGIC>MOL_PROPERTY
U+W
SciTegic.value.DoubleValue
-22.374

@<SCITEGIC>MOL_PROPERTY
U
SciTegic.value.DoubleValue
30.296

@<SCITEGIC>MOL_PROPERTY
W
SciTegic.value.DoubleValue
-52.670

@<SCITEGIC>MOL_PROPERTY
W(PB)
SciTegic.value.DoubleValue
-55.068

@<SCITEGIC>MOL_PROPERTY
W(SA)
SciTegic.value.DoubleValue
2.399

@<SCITEGIC>MOL_PROPERTY
Valence
SciTegic.value.DoubleValue
7.940

@<SCITEGIC>MOL_PROPERTY
Coulomb
SciTegic.value.DoubleValue
21.395

@<SCITEGIC>MOL_PROPERTY
VdW
SciTegic.value.DoubleValue
0.961

@<SCITEGIC>MOL_PROPERTY
VdW6
SciTegic.value.DoubleValue
-11.719

@<SCITEGIC>MOL_PROPERTY
VdW12
SciTegic.value.DoubleValue
12.680

@<SCITEGIC>MOL_PROPERTY
Bond
SciTegic.value.DoubleValue
0.376

@<SCITEGIC>MOL_PROPERTY
Angle
SciTegic.value.DoubleValue
2.868

@<SCITEGIC>MOL_PROPERTY
Pdih
SciTegic.value.DoubleValue
4.695

@<SCITEGIC>MOL_PROPERTY
Idih
SciTegic.value.DoubleValue
0.000

@<SCITEGIC>MOL_PROPERTY
Tether
SciTegic.value.DoubleValue
0.000

@<TRIPOS>MOLECULE
guest-s15_vm2.mol2 : vm2 ligand conformer 185
          29          28           1
SMALL
USER_CHARGES
 
@<TRIPOS>ATOM
       1    C1      20.492227   19.784551   19.562648 C.3        1 MOL1        -0.2426
       2    H1      19.604041   20.297640   19.171373 H          1 MOL1         0.0959
       3    H2      21.362414   20.427184   19.376097 H          1 MOL1         0.0959
       4    H3      20.630277   18.856712   18.992327 H          1 MOL1         0.0959
       5    C2      20.344019   19.492444   21.070786 C.3        1 MOL1        -0.1410
       6    H4      20.245911   20.444433   21.609300 H          1 MOL1         0.0948
       7    H5      21.257744   19.005186   21.438301 H          1 MOL1         0.0948
       8    C3      19.120045   18.593474   21.359713 C.3        1 MOL1        -0.1435
       9    H6      18.204064   19.107613   21.037467 H          1 MOL1         0.0948
      10    H7      19.192425   17.685340   20.745465 H          1 MOL1         0.0948
      11    C4      18.977706   18.168789   22.844076 C.3        1 MOL1        -0.1435
      12    H8      19.852094   17.578439   23.144798 H          1 MOL1         0.0948
      13    H9      18.119852   17.485766   22.912884 H          1 MOL1         0.0948
      14    C5      18.738776   19.346132   23.828156 C.3        1 MOL1        -0.1435
      15    H10     18.221205   20.155195   23.294650 H          1 MOL1         0.0948
      16    H11     18.037244   19.024796   24.608540 H          1 MOL1         0.0948
      17    C6      20.030215   19.912019   24.487317 C.3        1 MOL1        -0.1500
      18    H12     19.907282   20.995542   24.614292 H          1 MOL1         0.0948
      19    H13     20.886518   19.793282   23.813021 H          1 MOL1         0.0948
      20    C7      20.396150   19.317306   25.869865 C.3        1 MOL1         0.1162
      21    H14     21.318569   19.806560   26.197713 H          1 MOL1         0.0910
      22    C8      20.670184   17.805538   25.811927 C.3        1 MOL1        -0.2491
      23    H15     19.763615   17.241321   25.562158 H          1 MOL1         0.0959
      24    H16     21.438762   17.577915   25.063102 H          1 MOL1         0.0959
      25    H17     21.034322   17.443812   26.781297 H          1 MOL1         0.0959
      26    N1      19.366678   19.635746   26.919510 N.4        1 MOL1        -0.5987
      27    H18     19.214191   20.645011   27.001850 H          1 MOL1         0.3605
      28    H19     19.654016   19.293494   27.840857 H          1 MOL1         0.3605
      29    H20     18.465413   19.204990   26.699431 H          1 MOL1         0.3605
@<TRIPOS>BOND
    1     1     2    1
    2     1     3    1
    3     1     4    1
    4     1     5    1
    5     5     6    1
    6     5     7    1
    7     5     8    1
    8     8     9    1
    9     8    10    1
   10     8    11    1
   11    11    12    1
   12    11    13    1
   13    11    14    1
   14    14    15    1
   15    14    16    1
   16    14    17    1
   17    17    18    1
   18    17    19    1
   19    17    20    1
   20    20    21    1
   21    20    22    1
   22    22    23    1
   23    22    24    1
   24    22    25    1
   25    20    26    1
   26    26    27    1
   27    26    28    1
   28    26    29    1
@<TRIPOS>SUBSTRUCTURE
       1 MOL1            1 RESIDUE      1      MOL     
@<SCITEGIC>MOL_PROPERTY
VM2 Rank
SciTegic.value.IntegerValue
185

@<SCITEGIC>MOL_PROPERTY
Conf_Id
SciTegic.value.IntegerValue
988

@<SCITEGIC>MOL_PROPERTY
Probability
SciTegic.value.DoubleValue
0.00

@<SCITEGIC>MOL_PROPERTY
Sum Probability
SciTegic.value.DoubleValue
100.00

@<SCITEGIC>MOL_PROPERTY
Delta G
SciTegic.value.DoubleValue
6.391

@<SCITEGIC>MOL_PROPERTY
G
SciTegic.value.DoubleValue
40.093

@<SCITEGIC>MOL_PROPERTY
E
SciTegic.value.DoubleValue
1.856

@<SCITEGIC>MOL_PROPERTY
-TS
SciTegic.value.DoubleValue
38.238

@<SCITEGIC>MOL_PROPERTY
U+W
SciTegic.value.DoubleValue
-22.289

@<SCITEGIC>MOL_PROPERTY
U
SciTegic.value.DoubleValue
30.254

@<SCITEGIC>MOL_PROPERTY
W
SciTegic.value.DoubleValue
-52.543

@<SCITEGIC>MOL_PROPERTY
W(PB)
SciTegic.value.DoubleValue
-54.955

@<SCITEGIC>MOL_PROPERTY
W(SA)
SciTegic.value.DoubleValue
2.412

@<SCITEGIC>MOL_PROPERTY
Valence
SciTegic.value.DoubleValue
8.875

@<SCITEGIC>MOL_PROPERTY
Coulomb
SciTegic.value.DoubleValue
20.220

@<SCITEGIC>MOL_PROPERTY
VdW
SciTegic.value.DoubleValue
1.159

@<SCITEGIC>MOL_PROPERTY
VdW6
SciTegic.value.DoubleValue
-11.235

@<SCITEGIC>MOL_PROPERTY
VdW12
SciTegic.value.DoubleValue
12.394

@<SCITEGIC>MOL_PROPERTY
Bond
SciTegic.value.DoubleValue
0.376

@<SCITEGIC>MOL_PROPERTY
Angle
SciTegic.value.DoubleValue
2.277

@<SCITEGIC>MOL_PROPERTY
Pdih
SciTegic.value.DoubleValue
6.221

@<SCITEGIC>MOL_PROPERTY
Idih
SciTegic.value.DoubleValue
0.000

@<SCITEGIC>MOL_PROPERTY
Tether
SciTegic.value.DoubleValue
0.000

@<TRIPOS>MOLECULE
guest-s15_vm2.mol2 : vm2 ligand conformer 186
          29          28           1
SMALL
USER_CHARGES
 
@<TRIPOS>ATOM
       1    C1      19.707317   18.225213   20.133700 C.3        1 MOL1        -0.2426
       2    H1      19.401159   17.608229   20.987691 H          1 MOL1         0.0959
       3    H2      19.299512   17.758290   19.227875 H          1 MOL1         0.0959
       4    H3      20.802194   18.201513   20.059699 H          1 MOL1         0.0959
       5    C2      19.190363   19.673651   20.273769 C.3        1 MOL1        -0.1410
       6    H4      18.097130   19.660680   20.384962 H          1 MOL1         0.0948
       7    H5      19.394573   20.212877   19.338229 H          1 MOL1         0.0948
       8    C3      19.821401   20.465842   21.447274 C.3        1 MOL1        -0.1435
       9    H6      20.904631   20.569491   21.295100 H          1 MOL1         0.0948
      10    H7      19.418219   21.487377   21.410585 H          1 MOL1         0.0948
      11    C4      19.528102   19.879281   22.852631 C.3        1 MOL1        -0.1435
      12    H8      18.572611   19.337105   22.838649 H          1 MOL1         0.0948
      13    H9      19.405327   20.720904   23.545445 H          1 MOL1         0.0948
      14    C5      20.664447   18.968215   23.382590 C.3        1 MOL1        -0.1435
      15    H10     20.968129   18.265845   22.597200 H          1 MOL1         0.0948
      16    H11     21.552151   19.580777   23.592436 H          1 MOL1         0.0948
      17    C6      20.300181   18.141247   24.643618 C.3        1 MOL1        -0.1500
      18    H12     21.142546   17.464282   24.839120 H          1 MOL1         0.0948
      19    H13     19.438156   17.493804   24.435425 H          1 MOL1         0.0948
      20    C7      20.036415   18.979228   25.917053 C.3        1 MOL1         0.1162
      21    H14     20.768379   19.791897   25.953342 H          1 MOL1         0.0910
      22    C8      20.216517   18.112625   27.174355 C.3        1 MOL1        -0.2491
      23    H15     19.513337   17.270283   27.179601 H          1 MOL1         0.0959
      24    H16     21.235067   17.708322   27.227971 H          1 MOL1         0.0959
      25    H17     20.047695   18.704949   28.082174 H          1 MOL1         0.0959
      26    N1      18.671255   19.610699   25.929010 N.4        1 MOL1        -0.5987
      27    H18     18.526530   20.202551   25.107831 H          1 MOL1         0.3605
      28    H19     18.536874   20.194705   26.759450 H          1 MOL1         0.3605
      29    H20     17.934084   18.900718   25.931417 H          1 MOL1         0.3605
@<TRIPOS>BOND
    1     1     2    1
    2     1     3    1
    3     1     4    1
    4     1     5    1
    5     5     6    1
    6     5     7    1
    7     5     8    1
    8     8     9    1
    9     8    10    1
   10     8    11    1
   11    11    12    1
   12    11    13    1
   13    11    14    1
   14    14    15    1
   15    14    16    1
   16    14    17    1
   17    17    18    1
   18    17    19    1
   19    17    20    1
   20    20    21    1
   21    20    22    1
   22    22    23    1
   23    22    24    1
   24    22    25    1
   25    20    26    1
   26    26    27    1
   27    26    28    1
   28    26    29    1
@<TRIPOS>SUBSTRUCTURE
       1 MOL1            1 RESIDUE      1      MOL     
@<SCITEGIC>MOL_PROPERTY
VM2 Rank
SciTegic.value.IntegerValue
186

@<SCITEGIC>MOL_PROPERTY
Conf_Id
SciTegic.value.IntegerValue
323

@<SCITEGIC>MOL_PROPERTY
Probability
SciTegic.value.DoubleValue
0.00

@<SCITEGIC>MOL_PROPERTY
Sum Probability
SciTegic.value.DoubleValue
100.00

@<SCITEGIC>MOL_PROPERTY
Delta G
SciTegic.value.DoubleValue
6.430

@<SCITEGIC>MOL_PROPERTY
G
SciTegic.value.DoubleValue
40.133

@<SCITEGIC>MOL_PROPERTY
E
SciTegic.value.DoubleValue
2.284

@<SCITEGIC>MOL_PROPERTY
-TS
SciTegic.value.DoubleValue
37.849

@<SCITEGIC>MOL_PROPERTY
U+W
SciTegic.value.DoubleValue
-21.861

@<SCITEGIC>MOL_PROPERTY
U
SciTegic.value.DoubleValue
30.313

@<SCITEGIC>MOL_PROPERTY
W
SciTegic.value.DoubleValue
-52.173

@<SCITEGIC>MOL_PROPERTY
W(PB)
SciTegic.value.DoubleValue
-54.606

@<SCITEGIC>MOL_PROPERTY
W(SA)
SciTegic.value.DoubleValue
2.433

@<SCITEGIC>MOL_PROPERTY
Valence
SciTegic.value.DoubleValue
7.950

@<SCITEGIC>MOL_PROPERTY
Coulomb
SciTegic.value.DoubleValue
21.217

@<SCITEGIC>MOL_PROPERTY
VdW
SciTegic.value.DoubleValue
1.147

@<SCITEGIC>MOL_PROPERTY
VdW6
SciTegic.value.DoubleValue
-10.650

@<SCITEGIC>MOL_PROPERTY
VdW12
SciTegic.value.DoubleValue
11.797

@<SCITEGIC>MOL_PROPERTY
Bond
SciTegic.value.DoubleValue
0.329

@<SCITEGIC>MOL_PROPERTY
Angle
SciTegic.value.DoubleValue
2.263

@<SCITEGIC>MOL_PROPERTY
Pdih
SciTegic.value.DoubleValue
5.358

@<SCITEGIC>MOL_PROPERTY
Idih
SciTegic.value.DoubleValue
0.000

@<SCITEGIC>MOL_PROPERTY
Tether
SciTegic.value.DoubleValue
0.000

@<TRIPOS>MOLECULE
guest-s15_vm2.mol2 : vm2 ligand conformer 187
          29          28           1
SMALL
USER_CHARGES
 
@<TRIPOS>ATOM
       1    C1      20.660106   19.052697   19.807094 C.3        1 MOL1        -0.2426
       2    H1      20.699032   18.321427   18.989399 H          1 MOL1         0.0959
       3    H2      21.037890   20.007336   19.418445 H          1 MOL1         0.0959
       4    H3      21.346813   18.713905   20.591019 H          1 MOL1         0.0959
       5    C2      19.212465   19.205320   20.329166 C.3        1 MOL1        -0.1410
       6    H4      18.809526   18.228202   20.629922 H          1 MOL1         0.0948
       7    H5      18.584415   19.546286   19.494196 H          1 MOL1         0.0948
       8    C3      19.087882   20.222933   21.492323 C.3        1 MOL1        -0.1435
       9    H6      19.901566   20.959629   21.442459 H          1 MOL1         0.0948
      10    H7      18.161946   20.796404   21.346703 H          1 MOL1         0.0948
      11    C4      19.028691   19.592043   22.907655 C.3        1 MOL1        -0.1435
      12    H8      18.149905   18.936196   22.977362 H          1 MOL1         0.0948
      13    H9      18.872037   20.411033   23.618738 H          1 MOL1         0.0948
      14    C5      20.299889   18.801688   23.304017 C.3        1 MOL1        -0.1435
      15    H10     20.474550   18.013048   22.561934 H          1 MOL1         0.0948
      16    H11     21.173540   19.466649   23.263188 H          1 MOL1         0.0948
      17    C6      20.236124   18.114793   24.693890 C.3        1 MOL1        -0.1500
      18    H12     21.147579   17.510283   24.793677 H          1 MOL1         0.0948
      19    H13     19.401314   17.402307   24.726536 H          1 MOL1         0.0948
      20    C7      20.150924   19.083725   25.897233 C.3        1 MOL1         0.1162
      21    H14     20.761817   19.964363   25.676265 H          1 MOL1         0.0910
      22    C8      20.709840   18.416063   27.164699 C.3        1 MOL1        -0.2491
      23    H15     20.664391   19.103433   28.018486 H          1 MOL1         0.0959
      24    H16     20.141096   17.513430   27.421289 H          1 MOL1         0.0959
      25    H17     21.760139   18.130845   27.025628 H          1 MOL1         0.0959
      26    N1      18.750078   19.566739   26.157924 N.4        1 MOL1        -0.5987
      27    H18     18.131385   18.791407   26.410189 H          1 MOL1         0.3605
      28    H19     18.350931   20.022855   25.334508 H          1 MOL1         0.3605
      29    H20     18.724662   20.241264   26.928072 H          1 MOL1         0.3605
@<TRIPOS>BOND
    1     1     2    1
    2     1     3    1
    3     1     4    1
    4     1     5    1
    5     5     6    1
    6     5     7    1
    7     5     8    1
    8     8     9    1
    9     8    10    1
   10     8    11    1
   11    11    12    1
   12    11    13    1
   13    11    14    1
   14    14    15    1
   15    14    16    1
   16    14    17    1
   17    17    18    1
   18    17    19    1
   19    17    20    1
   20    20    21    1
   21    20    22    1
   22    22    23    1
   23    22    24    1
   24    22    25    1
   25    20    26    1
   26    26    27    1
   27    26    28    1
   28    26    29    1
@<TRIPOS>SUBSTRUCTURE
       1 MOL1            1 RESIDUE      1      MOL     
@<SCITEGIC>MOL_PROPERTY
VM2 Rank
SciTegic.value.IntegerValue
187

@<SCITEGIC>MOL_PROPERTY
Conf_Id
SciTegic.value.IntegerValue
1628

@<SCITEGIC>MOL_PROPERTY
Probability
SciTegic.value.DoubleValue
0.00

@<SCITEGIC>MOL_PROPERTY
Sum Probability
SciTegic.value.DoubleValue
100.00

@<SCITEGIC>MOL_PROPERTY
Delta G
SciTegic.value.DoubleValue
6.438

@<SCITEGIC>MOL_PROPERTY
G
SciTegic.value.DoubleValue
40.141

@<SCITEGIC>MOL_PROPERTY
E
SciTegic.value.DoubleValue
2.578

@<SCITEGIC>MOL_PROPERTY
-TS
SciTegic.value.DoubleValue
37.563

@<SCITEGIC>MOL_PROPERTY
U+W
SciTegic.value.DoubleValue
-21.567

@<SCITEGIC>MOL_PROPERTY
U
SciTegic.value.DoubleValue
30.680

@<SCITEGIC>MOL_PROPERTY
W
SciTegic.value.DoubleValue
-52.247

@<SCITEGIC>MOL_PROPERTY
W(PB)
SciTegic.value.DoubleValue
-54.672

@<SCITEGIC>MOL_PROPERTY
W(SA)
SciTegic.value.DoubleValue
2.425

@<SCITEGIC>MOL_PROPERTY
Valence
SciTegic.value.DoubleValue
8.266

@<SCITEGIC>MOL_PROPERTY
Coulomb
SciTegic.value.DoubleValue
21.123

@<SCITEGIC>MOL_PROPERTY
VdW
SciTegic.value.DoubleValue
1.291

@<SCITEGIC>MOL_PROPERTY
VdW6
SciTegic.value.DoubleValue
-10.406

@<SCITEGIC>MOL_PROPERTY
VdW12
SciTegic.value.DoubleValue
11.697

@<SCITEGIC>MOL_PROPERTY
Bond
SciTegic.value.DoubleValue
0.334

@<SCITEGIC>MOL_PROPERTY
Angle
SciTegic.value.DoubleValue
2.443

@<SCITEGIC>MOL_PROPERTY
Pdih
SciTegic.value.DoubleValue
5.488

@<SCITEGIC>MOL_PROPERTY
Idih
SciTegic.value.DoubleValue
0.000

@<SCITEGIC>MOL_PROPERTY
Tether
SciTegic.value.DoubleValue
0.000

@<TRIPOS>MOLECULE
guest-s15_vm2.mol2 : vm2 ligand conformer 188
          29          28           1
SMALL
USER_CHARGES
 
@<TRIPOS>ATOM
       1    C1      20.743901   20.003988   20.087757 C.3        1 MOL1        -0.2426
       2    H1      20.460613   21.055247   19.947676 H          1 MOL1         0.0959
       3    H2      21.408752   19.946665   20.956444 H          1 MOL1         0.0959
       4    H3      21.321459   19.694889   19.206979 H          1 MOL1         0.0959
       5    C2      19.491126   19.112252   20.252347 C.3        1 MOL1        -0.1410
       6    H4      19.781660   18.055210   20.328372 H          1 MOL1         0.0948
       7    H5      18.894208   19.195987   19.333356 H          1 MOL1         0.0948
       8    C3      18.600731   19.514626   21.456238 C.3        1 MOL1        -0.1435
       9    H6      18.679353   20.594499   21.642675 H          1 MOL1         0.0948
      10    H7      17.552446   19.338568   21.177805 H          1 MOL1         0.0948
      11    C4      18.873260   18.725669   22.762936 C.3        1 MOL1        -0.1435
      12    H8      18.697888   17.656071   22.582666 H          1 MOL1         0.0948
      13    H9      18.124172   19.029708   23.502323 H          1 MOL1         0.0948
      14    C5      20.299678   18.917496   23.336222 C.3        1 MOL1        -0.1435
      15    H10     21.011351   18.447929   22.644731 H          1 MOL1         0.0948
      16    H11     20.560395   19.984205   23.373018 H          1 MOL1         0.0948
      17    C6      20.501472   18.273846   24.733214 C.3        1 MOL1        -0.1500
      18    H12     21.547825   17.948070   24.804780 H          1 MOL1         0.0948
      19    H13     19.895306   17.362785   24.825055 H          1 MOL1         0.0948
      20    C7      20.225124   19.229007   25.917824 C.3        1 MOL1         0.1162
      21    H14     20.863441   20.109865   25.798634 H          1 MOL1         0.0910
      22    C8      20.591113   18.548205   27.246444 C.3        1 MOL1        -0.2491
      23    H15     21.645059   18.243396   27.251603 H          1 MOL1         0.0959
      24    H16     20.439525   19.234034   28.089106 H          1 MOL1         0.0959
      25    H17     19.976429   17.655512   27.417310 H          1 MOL1         0.0959
      26    N1      18.809596   19.730911   25.961017 N.4        1 MOL1        -0.5987
      27    H18     18.567928   20.223988   25.097022 H          1 MOL1         0.3605
      28    H19     18.666816   20.381787   26.738634 H          1 MOL1         0.3605
      29    H20     18.145518   18.960991   26.077466 H          1 MOL1         0.3605
@<TRIPOS>BOND
    1     1     2    1
    2     1     3    1
    3     1     4    1
    4     1     5    1
    5     5     6    1
    6     5     7    1
    7     5     8    1
    8     8     9    1
    9     8    10    1
   10     8    11    1
   11    11    12    1
   12    11    13    1
   13    11    14    1
   14    14    15    1
   15    14    16    1
   16    14    17    1
   17    17    18    1
   18    17    19    1
   19    17    20    1
   20    20    21    1
   21    20    22    1
   22    22    23    1
   23    22    24    1
   24    22    25    1
   25    20    26    1
   26    26    27    1
   27    26    28    1
   28    26    29    1
@<TRIPOS>SUBSTRUCTURE
       1 MOL1            1 RESIDUE      1      MOL     
@<SCITEGIC>MOL_PROPERTY
VM2 Rank
SciTegic.value.IntegerValue
188

@<SCITEGIC>MOL_PROPERTY
Conf_Id
SciTegic.value.IntegerValue
357

@<SCITEGIC>MOL_PROPERTY
Probability
SciTegic.value.DoubleValue
0.00

@<SCITEGIC>MOL_PROPERTY
Sum Probability
SciTegic.value.DoubleValue
100.00

@<SCITEGIC>MOL_PROPERTY
Delta G
SciTegic.value.DoubleValue
6.519

@<SCITEGIC>MOL_PROPERTY
G
SciTegic.value.DoubleValue
40.221

@<SCITEGIC>MOL_PROPERTY
E
SciTegic.value.DoubleValue
2.432

@<SCITEGIC>MOL_PROPERTY
-TS
SciTegic.value.DoubleValue
37.789

@<SCITEGIC>MOL_PROPERTY
U+W
SciTegic.value.DoubleValue
-21.713

@<SCITEGIC>MOL_PROPERTY
U
SciTegic.value.DoubleValue
30.319

@<SCITEGIC>MOL_PROPERTY
W
SciTegic.value.DoubleValue
-52.032

@<SCITEGIC>MOL_PROPERTY
W(PB)
SciTegic.value.DoubleValue
-54.489

@<SCITEGIC>MOL_PROPERTY
W(SA)
SciTegic.value.DoubleValue
2.457

@<SCITEGIC>MOL_PROPERTY
Valence
SciTegic.value.DoubleValue
8.319

@<SCITEGIC>MOL_PROPERTY
Coulomb
SciTegic.value.DoubleValue
20.774

@<SCITEGIC>MOL_PROPERTY
VdW
SciTegic.value.DoubleValue
1.226

@<SCITEGIC>MOL_PROPERTY
VdW6
SciTegic.value.DoubleValue
-10.364

@<SCITEGIC>MOL_PROPERTY
VdW12
SciTegic.value.DoubleValue
11.590

@<SCITEGIC>MOL_PROPERTY
Bond
SciTegic.value.DoubleValue
0.335

@<SCITEGIC>MOL_PROPERTY
Angle
SciTegic.value.DoubleValue
2.135

@<SCITEGIC>MOL_PROPERTY
Pdih
SciTegic.value.DoubleValue
5.849

@<SCITEGIC>MOL_PROPERTY
Idih
SciTegic.value.DoubleValue
0.000

@<SCITEGIC>MOL_PROPERTY
Tether
SciTegic.value.DoubleValue
0.000

@<TRIPOS>MOLECULE
guest-s15_vm2.mol2 : vm2 ligand conformer 189
          29          28           1
SMALL
USER_CHARGES
 
@<TRIPOS>ATOM
       1    C1      19.520214   21.121285   21.104894 C.3        1 MOL1        -0.2426
       2    H1      20.078056   21.639797   21.895523 H          1 MOL1         0.0959
       3    H2      20.127981   21.137320   20.190794 H          1 MOL1         0.0959
       4    H3      18.602942   21.691905   20.909967 H          1 MOL1         0.0959
       5    C2      19.183558   19.674187   21.520988 C.3        1 MOL1        -0.1410
       6    H4      18.593477   19.195648   20.726876 H          1 MOL1         0.0948
       7    H5      18.542088   19.691817   22.410065 H          1 MOL1         0.0948
       8    C3      20.462222   18.842418   21.782434 C.3        1 MOL1        -0.1435
       9    H6      20.999242   18.738362   20.829436 H          1 MOL1         0.0948
      10    H7      21.149178   19.375455   22.453010 H          1 MOL1         0.0948
      11    C4      20.161858   17.427504   22.338075 C.3        1 MOL1        -0.1435
      12    H8      20.862722   16.724282   21.867189 H          1 MOL1         0.0948
      13    H9      19.162484   17.098617   22.021272 H          1 MOL1         0.0948
      14    C5      20.310997   17.268209   23.875361 C.3        1 MOL1        -0.1435
      15    H10     20.150900   16.206139   24.106941 H          1 MOL1         0.0948
      16    H11     21.347152   17.471569   24.171663 H          1 MOL1         0.0948
      17    C6      19.314524   18.089658   24.738812 C.3        1 MOL1        -0.1500
      18    H12     19.219032   17.604117   25.719108 H          1 MOL1         0.0948
      19    H13     18.319457   18.028050   24.279441 H          1 MOL1         0.0948
      20    C7      19.688861   19.574360   24.969539 C.3        1 MOL1         0.1162
      21    H14     19.879134   20.045617   24.002894 H          1 MOL1         0.0910
      22    C8      20.950038   19.728908   25.838382 C.3        1 MOL1        -0.2491
      23    H15     21.833671   19.313211   25.341629 H          1 MOL1         0.0959
      24    H16     21.157415   20.788605   26.031692 H          1 MOL1         0.0959
      25    H17     20.830320   19.224870   26.805473 H          1 MOL1         0.0959
      26    N1      18.543727   20.329471   25.585516 N.4        1 MOL1        -0.5987
      27    H18     18.304658   19.956280   26.508248 H          1 MOL1         0.3605
      28    H19     17.701431   20.278839   25.005497 H          1 MOL1         0.3605
      29    H20     18.771750   21.320360   25.707300 H          1 MOL1         0.3605
@<TRIPOS>BOND
    1     1     2    1
    2     1     3    1
    3     1     4    1
    4     1     5    1
    5     5     6    1
    6     5     7    1
    7     5     8    1
    8     8     9    1
    9     8    10    1
   10     8    11    1
   11    11    12    1
   12    11    13    1
   13    11    14    1
   14    14    15    1
   15    14    16    1
   16    14    17    1
   17    17    18    1
   18    17    19    1
   19    17    20    1
   20    20    21    1
   21    20    22    1
   22    22    23    1
   23    22    24    1
   24    22    25    1
   25    20    26    1
   26    26    27    1
   27    26    28    1
   28    26    29    1
@<TRIPOS>SUBSTRUCTURE
       1 MOL1            1 RESIDUE      1      MOL     
@<SCITEGIC>MOL_PROPERTY
VM2 Rank
SciTegic.value.IntegerValue
189

@<SCITEGIC>MOL_PROPERTY
Conf_Id
SciTegic.value.IntegerValue
524

@<SCITEGIC>MOL_PROPERTY
Probability
SciTegic.value.DoubleValue
0.00

@<SCITEGIC>MOL_PROPERTY
Sum Probability
SciTegic.value.DoubleValue
100.00

@<SCITEGIC>MOL_PROPERTY
Delta G
SciTegic.value.DoubleValue
6.521

@<SCITEGIC>MOL_PROPERTY
G
SciTegic.value.DoubleValue
40.223

@<SCITEGIC>MOL_PROPERTY
E
SciTegic.value.DoubleValue
1.924

@<SCITEGIC>MOL_PROPERTY
-TS
SciTegic.value.DoubleValue
38.300

@<SCITEGIC>MOL_PROPERTY
U+W
SciTegic.value.DoubleValue
-22.221

@<SCITEGIC>MOL_PROPERTY
U
SciTegic.value.DoubleValue
30.677

@<SCITEGIC>MOL_PROPERTY
W
SciTegic.value.DoubleValue
-52.897

@<SCITEGIC>MOL_PROPERTY
W(PB)
SciTegic.value.DoubleValue
-55.275

@<SCITEGIC>MOL_PROPERTY
W(SA)
SciTegic.value.DoubleValue
2.378

@<SCITEGIC>MOL_PROPERTY
Valence
SciTegic.value.DoubleValue
8.877

@<SCITEGIC>MOL_PROPERTY
Coulomb
SciTegic.value.DoubleValue
21.328

@<SCITEGIC>MOL_PROPERTY
VdW
SciTegic.value.DoubleValue
0.472

@<SCITEGIC>MOL_PROPERTY
VdW6
SciTegic.value.DoubleValue
-11.982

@<SCITEGIC>MOL_PROPERTY
VdW12
SciTegic.value.DoubleValue
12.454

@<SCITEGIC>MOL_PROPERTY
Bond
SciTegic.value.DoubleValue
0.338

@<SCITEGIC>MOL_PROPERTY
Angle
SciTegic.value.DoubleValue
2.800

@<SCITEGIC>MOL_PROPERTY
Pdih
SciTegic.value.DoubleValue
5.738

@<SCITEGIC>MOL_PROPERTY
Idih
SciTegic.value.DoubleValue
0.000

@<SCITEGIC>MOL_PROPERTY
Tether
SciTegic.value.DoubleValue
0.000

@<TRIPOS>MOLECULE
guest-s15_vm2.mol2 : vm2 ligand conformer 190
          29          28           1
SMALL
USER_CHARGES
 
@<TRIPOS>ATOM
       1    C1      20.907122   19.172253   20.303084 C.3        1 MOL1        -0.2426
       2    H1      20.443282   19.776312   19.512538 H          1 MOL1         0.0959
       3    H2      21.983807   19.120329   20.095819 H          1 MOL1         0.0959
       4    H3      20.507062   18.153496   20.232982 H          1 MOL1         0.0959
       5    C2      20.653826   19.792284   21.696214 C.3        1 MOL1        -0.1410
       6    H4      21.138002   20.778088   21.733146 H          1 MOL1         0.0948
       7    H5      21.145610   19.178511   22.460467 H          1 MOL1         0.0948
       8    C3      19.146854   19.966014   22.016708 C.3        1 MOL1        -0.1435
       9    H6      19.017504   20.662076   22.855826 H          1 MOL1         0.0948
      10    H7      18.668962   20.458416   21.158537 H          1 MOL1         0.0948
      11    C4      18.395866   18.641033   22.314776 C.3        1 MOL1        -0.1435
      12    H8      18.872853   17.798751   21.798041 H          1 MOL1         0.0948
      13    H9      17.391440   18.718938   21.876219 H          1 MOL1         0.0948
      14    C5      18.216764   18.297560   23.818094 C.3        1 MOL1        -0.1435
      15    H10     17.631481   19.082504   24.313761 H          1 MOL1         0.0948
      16    H11     17.593326   17.394384   23.872262 H          1 MOL1         0.0948
      17    C6      19.527538   18.010865   24.598762 C.3        1 MOL1        -0.1500
      18    H12     20.206613   17.431731   23.959303 H          1 MOL1         0.0948
      19    H13     19.293287   17.360976   25.452379 H          1 MOL1         0.0948
      20    C7      20.248679   19.269646   25.133119 C.3        1 MOL1         0.1162
      21    H14     20.419595   19.957284   24.301896 H          1 MOL1         0.0910
      22    C8      21.614237   18.889747   25.726788 C.3        1 MOL1        -0.2491
      23    H15     22.244981   18.401803   24.973274 H          1 MOL1         0.0959
      24    H16     22.146613   19.782061   26.078562 H          1 MOL1         0.0959
      25    H17     21.501289   18.202486   26.574644 H          1 MOL1         0.0959
      26    N1      19.425114   20.016598   26.146456 N.4        1 MOL1        -0.5987
      27    H18     19.908743   20.856802   26.476236 H          1 MOL1         0.3605
      28    H19     19.226923   19.436079   26.965766 H          1 MOL1         0.3605
      29    H20     18.527389   20.312729   25.754349 H          1 MOL1         0.3605
@<TRIPOS>BOND
    1     1     2    1
    2     1     3    1
    3     1     4    1
    4     1     5    1
    5     5     6    1
    6     5     7    1
    7     5     8    1
    8     8     9    1
    9     8    10    1
   10     8    11    1
   11    11    12    1
   12    11    13    1
   13    11    14    1
   14    14    15    1
   15    14    16    1
   16    14    17    1
   17    17    18    1
   18    17    19    1
   19    17    20    1
   20    20    21    1
   21    20    22    1
   22    22    23    1
   23    22    24    1
   24    22    25    1
   25    20    26    1
   26    26    27    1
   27    26    28    1
   28    26    29    1
@<TRIPOS>SUBSTRUCTURE
       1 MOL1            1 RESIDUE      1      MOL     
@<SCITEGIC>MOL_PROPERTY
VM2 Rank
SciTegic.value.IntegerValue
190

@<SCITEGIC>MOL_PROPERTY
Conf_Id
SciTegic.value.IntegerValue
330

@<SCITEGIC>MOL_PROPERTY
Probability
SciTegic.value.DoubleValue
0.00

@<SCITEGIC>MOL_PROPERTY
Sum Probability
SciTegic.value.DoubleValue
100.00

@<SCITEGIC>MOL_PROPERTY
Delta G
SciTegic.value.DoubleValue
6.645

@<SCITEGIC>MOL_PROPERTY
G
SciTegic.value.DoubleValue
40.347

@<SCITEGIC>MOL_PROPERTY
E
SciTegic.value.DoubleValue
1.952

@<SCITEGIC>MOL_PROPERTY
-TS
SciTegic.value.DoubleValue
38.395

@<SCITEGIC>MOL_PROPERTY
U+W
SciTegic.value.DoubleValue
-22.192

@<SCITEGIC>MOL_PROPERTY
U
SciTegic.value.DoubleValue
30.560

@<SCITEGIC>MOL_PROPERTY
W
SciTegic.value.DoubleValue
-52.753

@<SCITEGIC>MOL_PROPERTY
W(PB)
SciTegic.value.DoubleValue
-55.117

@<SCITEGIC>MOL_PROPERTY
W(SA)
SciTegic.value.DoubleValue
2.365

@<SCITEGIC>MOL_PROPERTY
Valence
SciTegic.value.DoubleValue
8.893

@<SCITEGIC>MOL_PROPERTY
Coulomb
SciTegic.value.DoubleValue
21.063

@<SCITEGIC>MOL_PROPERTY
VdW
SciTegic.value.DoubleValue
0.604

@<SCITEGIC>MOL_PROPERTY
VdW6
SciTegic.value.DoubleValue
-12.044

@<SCITEGIC>MOL_PROPERTY
VdW12
SciTegic.value.DoubleValue
12.649

@<SCITEGIC>MOL_PROPERTY
Bond
SciTegic.value.DoubleValue
0.360

@<SCITEGIC>MOL_PROPERTY
Angle
SciTegic.value.DoubleValue
2.555

@<SCITEGIC>MOL_PROPERTY
Pdih
SciTegic.value.DoubleValue
5.978

@<SCITEGIC>MOL_PROPERTY
Idih
SciTegic.value.DoubleValue
0.000

@<SCITEGIC>MOL_PROPERTY
Tether
SciTegic.value.DoubleValue
0.000

@<TRIPOS>MOLECULE
guest-s15_vm2.mol2 : vm2 ligand conformer 191
          29          28           1
SMALL
USER_CHARGES
 
@<TRIPOS>ATOM
       1    C1      18.683865   20.250515   20.582079 C.3        1 MOL1        -0.2426
       2    H1      17.627120   20.344124   20.300300 H          1 MOL1         0.0959
       3    H2      18.843546   20.856938   21.480348 H          1 MOL1         0.0959
       4    H3      19.284067   20.684189   19.771683 H          1 MOL1         0.0959
       5    C2      19.054171   18.766137   20.807819 C.3        1 MOL1        -0.1410
       6    H4      18.855007   18.221744   19.874105 H          1 MOL1         0.0948
       7    H5      18.395003   18.318727   21.564683 H          1 MOL1         0.0948
       8    C3      20.540686   18.556340   21.195208 C.3        1 MOL1        -0.1435
       9    H6      20.891223   17.630989   20.717494 H          1 MOL1         0.0948
      10    H7      21.161144   19.359397   20.774163 H          1 MOL1         0.0948
      11    C4      20.801354   18.422693   22.717616 C.3        1 MOL1        -0.1435
      12    H8      21.868597   18.205859   22.862183 H          1 MOL1         0.0948
      13    H9      20.261091   17.546776   23.095096 H          1 MOL1         0.0948
      14    C5      20.428928   19.683360   23.538059 C.3        1 MOL1        -0.1435
      15    H10     20.926266   20.547958   23.077404 H          1 MOL1         0.0948
      16    H11     19.351952   19.876442   23.471963 H          1 MOL1         0.0948
      17    C6      20.866146   19.606991   25.027966 C.3        1 MOL1        -0.1500
      18    H12     21.158800   20.614431   25.351844 H          1 MOL1         0.0948
      19    H13     21.775855   18.999563   25.121403 H          1 MOL1         0.0948
      20    C7      19.800363   19.091686   26.026933 C.3        1 MOL1         0.1162
      21    H14     20.266642   19.084598   27.017008 H          1 MOL1         0.0910
      22    C8      19.338189   17.657281   25.724917 C.3        1 MOL1        -0.2491
      23    H15     18.737144   17.613660   24.809076 H          1 MOL1         0.0959
      24    H16     20.197764   16.985054   25.612324 H          1 MOL1         0.0959
      25    H17     18.720990   17.273599   26.546471 H          1 MOL1         0.0959
      26    N1      18.622298   20.020998   26.133403 N.4        1 MOL1        -0.5987
      27    H18     18.913764   20.968570   26.390044 H          1 MOL1         0.3605
      28    H19     17.958222   19.702065   26.844703 H          1 MOL1         0.3605
      29    H20     18.116439   20.083386   25.246556 H          1 MOL1         0.3605
@<TRIPOS>BOND
    1     1     2    1
    2     1     3    1
    3     1     4    1
    4     1     5    1
    5     5     6    1
    6     5     7    1
    7     5     8    1
    8     8     9    1
    9     8    10    1
   10     8    11    1
   11    11    12    1
   12    11    13    1
   13    11    14    1
   14    14    15    1
   15    14    16    1
   16    14    17    1
   17    17    18    1
   18    17    19    1
   19    17    20    1
   20    20    21    1
   21    20    22    1
   22    22    23    1
   23    22    24    1
   24    22    25    1
   25    20    26    1
   26    26    27    1
   27    26    28    1
   28    26    29    1
@<TRIPOS>SUBSTRUCTURE
       1 MOL1            1 RESIDUE      1      MOL     
@<SCITEGIC>MOL_PROPERTY
VM2 Rank
SciTegic.value.IntegerValue
191

@<SCITEGIC>MOL_PROPERTY
Conf_Id
SciTegic.value.IntegerValue
307

@<SCITEGIC>MOL_PROPERTY
Probability
SciTegic.value.DoubleValue
0.00

@<SCITEGIC>MOL_PROPERTY
Sum Probability
SciTegic.value.DoubleValue
100.00

@<SCITEGIC>MOL_PROPERTY
Delta G
SciTegic.value.DoubleValue
6.647

@<SCITEGIC>MOL_PROPERTY
G
SciTegic.value.DoubleValue
40.349

@<SCITEGIC>MOL_PROPERTY
E
SciTegic.value.DoubleValue
2.326

@<SCITEGIC>MOL_PROPERTY
-TS
SciTegic.value.DoubleValue
38.023

@<SCITEGIC>MOL_PROPERTY
U+W
SciTegic.value.DoubleValue
-21.819

@<SCITEGIC>MOL_PROPERTY
U
SciTegic.value.DoubleValue
30.957

@<SCITEGIC>MOL_PROPERTY
W
SciTegic.value.DoubleValue
-52.775

@<SCITEGIC>MOL_PROPERTY
W(PB)
SciTegic.value.DoubleValue
-55.160

@<SCITEGIC>MOL_PROPERTY
W(SA)
SciTegic.value.DoubleValue
2.385

@<SCITEGIC>MOL_PROPERTY
Valence
SciTegic.value.DoubleValue
9.252

@<SCITEGIC>MOL_PROPERTY
Coulomb
SciTegic.value.DoubleValue
20.527

@<SCITEGIC>MOL_PROPERTY
VdW
SciTegic.value.DoubleValue
1.177

@<SCITEGIC>MOL_PROPERTY
VdW6
SciTegic.value.DoubleValue
-11.186

@<SCITEGIC>MOL_PROPERTY
VdW12
SciTegic.value.DoubleValue
12.364

@<SCITEGIC>MOL_PROPERTY
Bond
SciTegic.value.DoubleValue
0.373

@<SCITEGIC>MOL_PROPERTY
Angle
SciTegic.value.DoubleValue
2.560

@<SCITEGIC>MOL_PROPERTY
Pdih
SciTegic.value.DoubleValue
6.319

@<SCITEGIC>MOL_PROPERTY
Idih
SciTegic.value.DoubleValue
0.000

@<SCITEGIC>MOL_PROPERTY
Tether
SciTegic.value.DoubleValue
0.000

@<TRIPOS>MOLECULE
guest-s15_vm2.mol2 : vm2 ligand conformer 192
          29          28           1
SMALL
USER_CHARGES
 
@<TRIPOS>ATOM
       1    C1      19.824191   20.533952   20.155975 C.3        1 MOL1        -0.2426
       2    H1      19.214500   20.946823   19.341911 H          1 MOL1         0.0959
       3    H2      19.517798   21.030242   21.083145 H          1 MOL1         0.0959
       4    H3      20.869842   20.802961   19.957843 H          1 MOL1         0.0959
       5    C2      19.654319   18.998718   20.232579 C.3        1 MOL1        -0.1410
       6    H4      19.943471   18.578370   19.259153 H          1 MOL1         0.0948
       7    H5      18.595985   18.737844   20.371848 H          1 MOL1         0.0948
       8    C3      20.522258   18.334799   21.332536 C.3        1 MOL1        -0.1435
       9    H6      20.840633   17.349079   20.965999 H          1 MOL1         0.0948
      10    H7      21.447961   18.906946   21.483497 H          1 MOL1         0.0948
      11    C4      19.803245   18.116056   22.688653 C.3        1 MOL1        -0.1435
      12    H8      20.480473   17.558090   23.346358 H          1 MOL1         0.0948
      13    H9      18.931559   17.464893   22.536018 H          1 MOL1         0.0948
      14    C5      19.347904   19.421711   23.386582 C.3        1 MOL1        -0.1435
      15    H10     20.161583   20.159937   23.392093 H          1 MOL1         0.0948
      16    H11     18.534247   19.861046   22.794842 H          1 MOL1         0.0948
      17    C6      18.824023   19.195835   24.829544 C.3        1 MOL1        -0.1500
      18    H12     18.425857   18.177961   24.935778 H          1 MOL1         0.0948
      19    H13     17.970146   19.868457   24.985138 H          1 MOL1         0.0948
      20    C7      19.855271   19.487361   25.946244 C.3        1 MOL1         0.1162
      21    H14     20.194463   20.521689   25.833628 H          1 MOL1         0.0910
      22    C8      21.087074   18.569086   25.876958 C.3        1 MOL1        -0.2491
      23    H15     21.660610   18.748350   24.960073 H          1 MOL1         0.0959
      24    H16     21.760349   18.760779   26.721485 H          1 MOL1         0.0959
      25    H17     20.796683   17.511568   25.906210 H          1 MOL1         0.0959
      26    N1      19.217714   19.398481   27.304930 N.4        1 MOL1        -0.5987
      27    H18     18.423065   20.038718   27.391410 H          1 MOL1         0.3605
      28    H19     19.882796   19.636569   28.046301 H          1 MOL1         0.3605
      29    H20     18.873685   18.453404   27.495141 H          1 MOL1         0.3605
@<TRIPOS>BOND
    1     1     2    1
    2     1     3    1
    3     1     4    1
    4     1     5    1
    5     5     6    1
    6     5     7    1
    7     5     8    1
    8     8     9    1
    9     8    10    1
   10     8    11    1
   11    11    12    1
   12    11    13    1
   13    11    14    1
   14    14    15    1
   15    14    16    1
   16    14    17    1
   17    17    18    1
   18    17    19    1
   19    17    20    1
   20    20    21    1
   21    20    22    1
   22    22    23    1
   23    22    24    1
   24    22    25    1
   25    20    26    1
   26    26    27    1
   27    26    28    1
   28    26    29    1
@<TRIPOS>SUBSTRUCTURE
       1 MOL1            1 RESIDUE      1      MOL     
@<SCITEGIC>MOL_PROPERTY
VM2 Rank
SciTegic.value.IntegerValue
192

@<SCITEGIC>MOL_PROPERTY
Conf_Id
SciTegic.value.IntegerValue
158

@<SCITEGIC>MOL_PROPERTY
Probability
SciTegic.value.DoubleValue
0.00

@<SCITEGIC>MOL_PROPERTY
Sum Probability
SciTegic.value.DoubleValue
100.00

@<SCITEGIC>MOL_PROPERTY
Delta G
SciTegic.value.DoubleValue
6.700

@<SCITEGIC>MOL_PROPERTY
G
SciTegic.value.DoubleValue
40.403

@<SCITEGIC>MOL_PROPERTY
E
SciTegic.value.DoubleValue
2.337

@<SCITEGIC>MOL_PROPERTY
-TS
SciTegic.value.DoubleValue
38.066

@<SCITEGIC>MOL_PROPERTY
U+W
SciTegic.value.DoubleValue
-21.808

@<SCITEGIC>MOL_PROPERTY
U
SciTegic.value.DoubleValue
30.372

@<SCITEGIC>MOL_PROPERTY
W
SciTegic.value.DoubleValue
-52.180

@<SCITEGIC>MOL_PROPERTY
W(PB)
SciTegic.value.DoubleValue
-54.600

@<SCITEGIC>MOL_PROPERTY
W(SA)
SciTegic.value.DoubleValue
2.420

@<SCITEGIC>MOL_PROPERTY
Valence
SciTegic.value.DoubleValue
9.266

@<SCITEGIC>MOL_PROPERTY
Coulomb
SciTegic.value.DoubleValue
19.847

@<SCITEGIC>MOL_PROPERTY
VdW
SciTegic.value.DoubleValue
1.260

@<SCITEGIC>MOL_PROPERTY
VdW6
SciTegic.value.DoubleValue
-10.647

@<SCITEGIC>MOL_PROPERTY
VdW12
SciTegic.value.DoubleValue
11.907

@<SCITEGIC>MOL_PROPERTY
Bond
SciTegic.value.DoubleValue
0.333

@<SCITEGIC>MOL_PROPERTY
Angle
SciTegic.value.DoubleValue
2.435

@<SCITEGIC>MOL_PROPERTY
Pdih
SciTegic.value.DoubleValue
6.497

@<SCITEGIC>MOL_PROPERTY
Idih
SciTegic.value.DoubleValue
0.000

@<SCITEGIC>MOL_PROPERTY
Tether
SciTegic.value.DoubleValue
0.000

@<TRIPOS>MOLECULE
guest-s15_vm2.mol2 : vm2 ligand conformer 193
          29          28           1
SMALL
USER_CHARGES
 
@<TRIPOS>ATOM
       1    C1      19.174641   20.194916   20.100174 C.3        1 MOL1        -0.2426
       2    H1      18.722267   20.418361   19.125348 H          1 MOL1         0.0959
       3    H2      18.370689   20.214945   20.846123 H          1 MOL1         0.0959
       4    H3      19.887857   20.996578   20.331523 H          1 MOL1         0.0959
       5    C2      19.874282   18.818796   20.067243 C.3        1 MOL1        -0.1410
       6    H4      20.545272   18.785940   19.197525 H          1 MOL1         0.0948
       7    H5      19.124368   18.032521   19.902666 H          1 MOL1         0.0948
       8    C3      20.700451   18.491598   21.337236 C.3        1 MOL1        -0.1435
       9    H6      21.187599   17.520578   21.172371 H          1 MOL1         0.0948
      10    H7      21.518176   19.216195   21.452417 H          1 MOL1         0.0948
      11    C4      19.872299   18.400035   22.645546 C.3        1 MOL1        -0.1435
      12    H8      20.290935   17.593821   23.259566 H          1 MOL1         0.0948
      13    H9      18.842280   18.095174   22.415157 H          1 MOL1         0.0948
      14    C5      19.871759   19.716692   23.466326 C.3        1 MOL1        -0.1435
      15    H10     20.901651   20.029584   23.686675 H          1 MOL1         0.0948
      16    H11     19.442466   20.519184   22.855090 H          1 MOL1         0.0948
      17    C6      19.054794   19.619299   24.782234 C.3        1 MOL1        -0.1500
      18    H12     18.267469   18.859791   24.687381 H          1 MOL1         0.0948
      19    H13     18.531831   20.574541   24.922798 H          1 MOL1         0.0948
      20    C7      19.897504   19.359402   26.054099 C.3        1 MOL1         0.1162
      21    H14     20.638571   20.159950   26.140780 H          1 MOL1         0.0910
      22    C8      20.645438   18.016313   26.011278 C.3        1 MOL1        -0.2491
      23    H15     19.955919   17.182609   25.829404 H          1 MOL1         0.0959
      24    H16     21.408880   18.016463   25.224817 H          1 MOL1         0.0959
      25    H17     21.161815   17.830474   26.961072 H          1 MOL1         0.0959
      26    N1      19.044831   19.438949   27.289864 N.4        1 MOL1        -0.5987
      27    H18     18.573356   20.344973   27.365239 H          1 MOL1         0.3605
      28    H19     19.604197   19.315135   28.138647 H          1 MOL1         0.3605
      29    H20     18.321755   18.714473   27.292160 H          1 MOL1         0.3605
@<TRIPOS>BOND
    1     1     2    1
    2     1     3    1
    3     1     4    1
    4     1     5    1
    5     5     6    1
    6     5     7    1
    7     5     8    1
    8     8     9    1
    9     8    10    1
   10     8    11    1
   11    11    12    1
   12    11    13    1
   13    11    14    1
   14    14    15    1
   15    14    16    1
   16    14    17    1
   17    17    18    1
   18    17    19    1
   19    17    20    1
   20    20    21    1
   21    20    22    1
   22    22    23    1
   23    22    24    1
   24    22    25    1
   25    20    26    1
   26    26    27    1
   27    26    28    1
   28    26    29    1
@<TRIPOS>SUBSTRUCTURE
       1 MOL1            1 RESIDUE      1      MOL     
@<SCITEGIC>MOL_PROPERTY
VM2 Rank
SciTegic.value.IntegerValue
193

@<SCITEGIC>MOL_PROPERTY
Conf_Id
SciTegic.value.IntegerValue
1366

@<SCITEGIC>MOL_PROPERTY
Probability
SciTegic.value.DoubleValue
0.00

@<SCITEGIC>MOL_PROPERTY
Sum Probability
SciTegic.value.DoubleValue
100.00

@<SCITEGIC>MOL_PROPERTY
Delta G
SciTegic.value.DoubleValue
6.746

@<SCITEGIC>MOL_PROPERTY
G
SciTegic.value.DoubleValue
40.448

@<SCITEGIC>MOL_PROPERTY
E
SciTegic.value.DoubleValue
2.482

@<SCITEGIC>MOL_PROPERTY
-TS
SciTegic.value.DoubleValue
37.967

@<SCITEGIC>MOL_PROPERTY
U+W
SciTegic.value.DoubleValue
-21.663

@<SCITEGIC>MOL_PROPERTY
U
SciTegic.value.DoubleValue
30.486

@<SCITEGIC>MOL_PROPERTY
W
SciTegic.value.DoubleValue
-52.149

@<SCITEGIC>MOL_PROPERTY
W(PB)
SciTegic.value.DoubleValue
-54.579

@<SCITEGIC>MOL_PROPERTY
W(SA)
SciTegic.value.DoubleValue
2.430

@<SCITEGIC>MOL_PROPERTY
Valence
SciTegic.value.DoubleValue
9.321

@<SCITEGIC>MOL_PROPERTY
Coulomb
SciTegic.value.DoubleValue
19.844

@<SCITEGIC>MOL_PROPERTY
VdW
SciTegic.value.DoubleValue
1.321

@<SCITEGIC>MOL_PROPERTY
VdW6
SciTegic.value.DoubleValue
-10.558

@<SCITEGIC>MOL_PROPERTY
VdW12
SciTegic.value.DoubleValue
11.879

@<SCITEGIC>MOL_PROPERTY
Bond
SciTegic.value.DoubleValue
0.345

@<SCITEGIC>MOL_PROPERTY
Angle
SciTegic.value.DoubleValue
2.343

@<SCITEGIC>MOL_PROPERTY
Pdih
SciTegic.value.DoubleValue
6.633

@<SCITEGIC>MOL_PROPERTY
Idih
SciTegic.value.DoubleValue
0.000

@<SCITEGIC>MOL_PROPERTY
Tether
SciTegic.value.DoubleValue
0.000

@<TRIPOS>MOLECULE
guest-s15_vm2.mol2 : vm2 ligand conformer 194
          29          28           1
SMALL
USER_CHARGES
 
@<TRIPOS>ATOM
       1    C1      18.982968   20.426117   20.403554 C.3        1 MOL1        -0.2426
       2    H1      17.924186   20.166393   20.274985 H          1 MOL1         0.0959
       3    H2      19.086208   20.961767   21.353420 H          1 MOL1         0.0959
       4    H3      19.254817   21.121967   19.599333 H          1 MOL1         0.0959
       5    C2      19.872042   19.161955   20.347182 C.3        1 MOL1        -0.1410
       6    H4      20.933470   19.437791   20.416512 H          1 MOL1         0.0948
       7    H5      19.743330   18.702871   19.356967 H          1 MOL1         0.0948
       8    C3      19.517293   18.108324   21.427928 C.3        1 MOL1        -0.1435
       9    H6      18.446561   18.156799   21.669241 H          1 MOL1         0.0948
      10    H7      19.677867   17.110690   20.996313 H          1 MOL1         0.0948
      11    C4      20.360953   18.194075   22.725968 C.3        1 MOL1        -0.1435
      12    H8      21.421536   18.047542   22.479396 H          1 MOL1         0.0948
      13    H9      20.083364   17.348741   23.366517 H          1 MOL1         0.0948
      14    C5      20.197146   19.522207   23.505748 C.3        1 MOL1        -0.1435
      15    H10     20.646283   20.326183   22.908330 H          1 MOL1         0.0948
      16    H11     19.133709   19.772232   23.610203 H          1 MOL1         0.0948
      17    C6      20.897471   19.512802   24.893242 C.3        1 MOL1        -0.1500
      18    H12     21.322173   20.509368   25.072157 H          1 MOL1         0.0948
      19    H13     21.758350   18.831540   24.872874 H          1 MOL1         0.0948
      20    C7      19.996288   19.168233   26.105024 C.3        1 MOL1         0.1162
      21    H14     20.631067   19.194628   26.996130 H          1 MOL1         0.0910
      22    C8      19.385104   17.760638   26.014740 C.3        1 MOL1        -0.2491
      23    H15     18.655208   17.690848   25.199319 H          1 MOL1         0.0959
      24    H16     20.165032   17.006876   25.850791 H          1 MOL1         0.0959
      25    H17     18.868740   17.506385   26.948462 H          1 MOL1         0.0959
      26    N1      18.926735   20.201648   26.330615 N.4        1 MOL1        -0.5987
      27    H18     19.327112   21.137002   26.446737 H          1 MOL1         0.3605
      28    H19     18.380166   19.996180   27.171844 H          1 MOL1         0.3605
      29    H20     18.275408   20.240726   25.542874 H          1 MOL1         0.3605
@<TRIPOS>BOND
    1     1     2    1
    2     1     3    1
    3     1     4    1
    4     1     5    1
    5     5     6    1
    6     5     7    1
    7     5     8    1
    8     8     9    1
    9     8    10    1
   10     8    11    1
   11    11    12    1
   12    11    13    1
   13    11    14    1
   14    14    15    1
   15    14    16    1
   16    14    17    1
   17    17    18    1
   18    17    19    1
   19    17    20    1
   20    20    21    1
   21    20    22    1
   22    22    23    1
   23    22    24    1
   24    22    25    1
   25    20    26    1
   26    26    27    1
   27    26    28    1
   28    26    29    1
@<TRIPOS>SUBSTRUCTURE
       1 MOL1            1 RESIDUE      1      MOL     
@<SCITEGIC>MOL_PROPERTY
VM2 Rank
SciTegic.value.IntegerValue
194

@<SCITEGIC>MOL_PROPERTY
Conf_Id
SciTegic.value.IntegerValue
223

@<SCITEGIC>MOL_PROPERTY
Probability
SciTegic.value.DoubleValue
0.00

@<SCITEGIC>MOL_PROPERTY
Sum Probability
SciTegic.value.DoubleValue
100.00

@<SCITEGIC>MOL_PROPERTY
Delta G
SciTegic.value.DoubleValue
6.758

@<SCITEGIC>MOL_PROPERTY
G
SciTegic.value.DoubleValue
40.460

@<SCITEGIC>MOL_PROPERTY
E
SciTegic.value.DoubleValue
2.312

@<SCITEGIC>MOL_PROPERTY
-TS
SciTegic.value.DoubleValue
38.148

@<SCITEGIC>MOL_PROPERTY
U+W
SciTegic.value.DoubleValue
-21.832

@<SCITEGIC>MOL_PROPERTY
U
SciTegic.value.DoubleValue
30.788

@<SCITEGIC>MOL_PROPERTY
W
SciTegic.value.DoubleValue
-52.621

@<SCITEGIC>MOL_PROPERTY
W(PB)
SciTegic.value.DoubleValue
-55.023

@<SCITEGIC>MOL_PROPERTY
W(SA)
SciTegic.value.DoubleValue
2.402

@<SCITEGIC>MOL_PROPERTY
Valence
SciTegic.value.DoubleValue
9.278

@<SCITEGIC>MOL_PROPERTY
Coulomb
SciTegic.value.DoubleValue
20.293

@<SCITEGIC>MOL_PROPERTY
VdW
SciTegic.value.DoubleValue
1.217

@<SCITEGIC>MOL_PROPERTY
VdW6
SciTegic.value.DoubleValue
-11.113

@<SCITEGIC>MOL_PROPERTY
VdW12
SciTegic.value.DoubleValue
12.330

@<SCITEGIC>MOL_PROPERTY
Bond
SciTegic.value.DoubleValue
0.365

@<SCITEGIC>MOL_PROPERTY
Angle
SciTegic.value.DoubleValue
2.560

@<SCITEGIC>MOL_PROPERTY
Pdih
SciTegic.value.DoubleValue
6.353

@<SCITEGIC>MOL_PROPERTY
Idih
SciTegic.value.DoubleValue
0.000

@<SCITEGIC>MOL_PROPERTY
Tether
SciTegic.value.DoubleValue
0.000

@<TRIPOS>MOLECULE
guest-s15_vm2.mol2 : vm2 ligand conformer 195
          29          28           1
SMALL
USER_CHARGES
 
@<TRIPOS>ATOM
       1    C1      20.627939   18.851073   19.948443 C.3        1 MOL1        -0.2426
       2    H1      21.360457   18.648340   20.737795 H          1 MOL1         0.0959
       3    H2      20.295548   17.886975   19.542097 H          1 MOL1         0.0959
       4    H3      21.144057   19.391243   19.144253 H          1 MOL1         0.0959
       5    C2      19.425655   19.673110   20.468410 C.3        1 MOL1        -0.1410
       6    H4      18.738435   19.838808   19.626904 H          1 MOL1         0.0948
       7    H5      19.754981   20.671038   20.789731 H          1 MOL1         0.0948
       8    C3      18.650820   18.966059   21.610131 C.3        1 MOL1        -0.1435
       9    H6      17.578013   19.150181   21.459871 H          1 MOL1         0.0948
      10    H7      18.776003   17.876912   21.537176 H          1 MOL1         0.0948
      11    C4      19.011220   19.447517   23.039382 C.3        1 MOL1        -0.1435
      12    H8      18.349093   18.919756   23.734576 H          1 MOL1         0.0948
      13    H9      18.780733   20.517709   23.132516 H          1 MOL1         0.0948
      14    C5      20.485652   19.198018   23.440843 C.3        1 MOL1        -0.1435
      15    H10     20.720974   18.129744   23.345224 H          1 MOL1         0.0948
      16    H11     21.137693   19.716711   22.727403 H          1 MOL1         0.0948
      17    C6      20.870800   19.707086   24.858906 C.3        1 MOL1        -0.1500
      18    H12     20.742048   20.796563   24.900538 H          1 MOL1         0.0948
      19    H13     21.947650   19.537364   24.989680 H          1 MOL1         0.0948
      20    C7      20.151122   19.067909   26.074160 C.3        1 MOL1         0.1162
      21    H14     20.720013   19.356920   26.963276 H          1 MOL1         0.0910
      22    C8      20.144690   17.530503   26.015179 C.3        1 MOL1        -0.2491
      23    H15     19.759948   17.111656   26.953060 H          1 MOL1         0.0959
      24    H16     19.514224   17.159322   25.198328 H          1 MOL1         0.0959
      25    H17     21.160740   17.143279   25.869432 H          1 MOL1         0.0959
      26    N1      18.768102   19.614724   26.298546 N.4        1 MOL1        -0.5987
      27    H18     18.344380   19.221982   27.144090 H          1 MOL1         0.3605
      28    H19     18.149714   19.397616   25.514546 H          1 MOL1         0.3605
      29    H20     18.781576   20.632781   26.408411 H          1 MOL1         0.3605
@<TRIPOS>BOND
    1     1     2    1
    2     1     3    1
    3     1     4    1
    4     1     5    1
    5     5     6    1
    6     5     7    1
    7     5     8    1
    8     8     9    1
    9     8    10    1
   10     8    11    1
   11    11    12    1
   12    11    13    1
   13    11    14    1
   14    14    15    1
   15    14    16    1
   16    14    17    1
   17    17    18    1
   18    17    19    1
   19    17    20    1
   20    20    21    1
   21    20    22    1
   22    22    23    1
   23    22    24    1
   24    22    25    1
   25    20    26    1
   26    26    27    1
   27    26    28    1
   28    26    29    1
@<TRIPOS>SUBSTRUCTURE
       1 MOL1            1 RESIDUE      1      MOL     
@<SCITEGIC>MOL_PROPERTY
VM2 Rank
SciTegic.value.IntegerValue
195

@<SCITEGIC>MOL_PROPERTY
Conf_Id
SciTegic.value.IntegerValue
104

@<SCITEGIC>MOL_PROPERTY
Probability
SciTegic.value.DoubleValue
0.00

@<SCITEGIC>MOL_PROPERTY
Sum Probability
SciTegic.value.DoubleValue
100.00

@<SCITEGIC>MOL_PROPERTY
Delta G
SciTegic.value.DoubleValue
6.813

@<SCITEGIC>MOL_PROPERTY
G
SciTegic.value.DoubleValue
40.515

@<SCITEGIC>MOL_PROPERTY
E
SciTegic.value.DoubleValue
2.306

@<SCITEGIC>MOL_PROPERTY
-TS
SciTegic.value.DoubleValue
38.209

@<SCITEGIC>MOL_PROPERTY
U+W
SciTegic.value.DoubleValue
-21.838

@<SCITEGIC>MOL_PROPERTY
U
SciTegic.value.DoubleValue
30.733

@<SCITEGIC>MOL_PROPERTY
W
SciTegic.value.DoubleValue
-52.571

@<SCITEGIC>MOL_PROPERTY
W(PB)
SciTegic.value.DoubleValue
-54.996

@<SCITEGIC>MOL_PROPERTY
W(SA)
SciTegic.value.DoubleValue
2.425

@<SCITEGIC>MOL_PROPERTY
Valence
SciTegic.value.DoubleValue
8.311

@<SCITEGIC>MOL_PROPERTY
Coulomb
SciTegic.value.DoubleValue
21.302

@<SCITEGIC>MOL_PROPERTY
VdW
SciTegic.value.DoubleValue
1.120

@<SCITEGIC>MOL_PROPERTY
VdW6
SciTegic.value.DoubleValue
-11.478

@<SCITEGIC>MOL_PROPERTY
VdW12
SciTegic.value.DoubleValue
12.598

@<SCITEGIC>MOL_PROPERTY
Bond
SciTegic.value.DoubleValue
0.388

@<SCITEGIC>MOL_PROPERTY
Angle
SciTegic.value.DoubleValue
3.090

@<SCITEGIC>MOL_PROPERTY
Pdih
SciTegic.value.DoubleValue
4.833

@<SCITEGIC>MOL_PROPERTY
Idih
SciTegic.value.DoubleValue
0.000

@<SCITEGIC>MOL_PROPERTY
Tether
SciTegic.value.DoubleValue
0.000

@<TRIPOS>MOLECULE
guest-s15_vm2.mol2 : vm2 ligand conformer 196
          29          28           1
SMALL
USER_CHARGES
 
@<TRIPOS>ATOM
       1    C1      19.472200   20.886234   21.439938 C.3        1 MOL1        -0.2426
       2    H1      19.786600   20.851531   22.488025 H          1 MOL1         0.0959
       3    H2      20.296108   21.315975   20.855626 H          1 MOL1         0.0959
       4    H3      18.620675   21.575378   21.370970 H          1 MOL1         0.0959
       5    C2      19.083262   19.490592   20.898750 C.3        1 MOL1        -0.1410
       6    H4      18.763715   19.614862   19.854580 H          1 MOL1         0.0948
       7    H5      18.208283   19.096141   21.432510 H          1 MOL1         0.0948
       8    C3      20.245394   18.465862   20.934518 C.3        1 MOL1        -0.1435
       9    H6      20.121501   17.791690   20.075728 H          1 MOL1         0.0948
      10    H7      21.204549   18.975516   20.769246 H          1 MOL1         0.0948
      11    C4      20.325745   17.577112   22.205593 C.3        1 MOL1        -0.1435
      12    H8      21.106474   16.824971   22.026173 H          1 MOL1         0.0948
      13    H9      19.394415   17.007094   22.327514 H          1 MOL1         0.0948
      14    C5      20.678363   18.319394   23.519576 C.3        1 MOL1        -0.1435
      15    H10     21.322793   17.661757   24.117875 H          1 MOL1         0.0948
      16    H11     21.279318   19.211616   23.298758 H          1 MOL1         0.0948
      17    C6      19.432114   18.688631   24.365915 C.3        1 MOL1        -0.1500
      18    H12     18.948335   17.770329   24.724241 H          1 MOL1         0.0948
      19    H13     18.694856   19.190911   23.730197 H          1 MOL1         0.0948
      20    C7      19.749012   19.609709   25.565743 C.3        1 MOL1         0.1162
      21    H14     20.261133   20.500084   25.188191 H          1 MOL1         0.0910
      22    C8      20.661870   18.924428   26.598169 C.3        1 MOL1        -0.2491
      23    H15     20.830111   19.580651   27.460953 H          1 MOL1         0.0959
      24    H16     20.216990   17.990202   26.962867 H          1 MOL1         0.0959
      25    H17     21.644303   18.693627   26.170167 H          1 MOL1         0.0959
      26    N1      18.488039   20.094040   26.225800 N.4        1 MOL1        -0.5987
      27    H18     17.884131   20.592754   25.565991 H          1 MOL1         0.3605
      28    H19     18.692737   20.736126   26.996864 H          1 MOL1         0.3605
      29    H20     17.946157   19.316274   26.612083 H          1 MOL1         0.3605
@<TRIPOS>BOND
    1     1     2    1
    2     1     3    1
    3     1     4    1
    4     1     5    1
    5     5     6    1
    6     5     7    1
    7     5     8    1
    8     8     9    1
    9     8    10    1
   10     8    11    1
   11    11    12    1
   12    11    13    1
   13    11    14    1
   14    14    15    1
   15    14    16    1
   16    14    17    1
   17    17    18    1
   18    17    19    1
   19    17    20    1
   20    20    21    1
   21    20    22    1
   22    22    23    1
   23    22    24    1
   24    22    25    1
   25    20    26    1
   26    26    27    1
   27    26    28    1
   28    26    29    1
@<TRIPOS>SUBSTRUCTURE
       1 MOL1            1 RESIDUE      1      MOL     
@<SCITEGIC>MOL_PROPERTY
VM2 Rank
SciTegic.value.IntegerValue
196

@<SCITEGIC>MOL_PROPERTY
Conf_Id
SciTegic.value.IntegerValue
146

@<SCITEGIC>MOL_PROPERTY
Probability
SciTegic.value.DoubleValue
0.00

@<SCITEGIC>MOL_PROPERTY
Sum Probability
SciTegic.value.DoubleValue
100.00

@<SCITEGIC>MOL_PROPERTY
Delta G
SciTegic.value.DoubleValue
6.814

@<SCITEGIC>MOL_PROPERTY
G
SciTegic.value.DoubleValue
40.517

@<SCITEGIC>MOL_PROPERTY
E
SciTegic.value.DoubleValue
2.189

@<SCITEGIC>MOL_PROPERTY
-TS
SciTegic.value.DoubleValue
38.328

@<SCITEGIC>MOL_PROPERTY
U+W
SciTegic.value.DoubleValue
-21.956

@<SCITEGIC>MOL_PROPERTY
U
SciTegic.value.DoubleValue
30.891

@<SCITEGIC>MOL_PROPERTY
W
SciTegic.value.DoubleValue
-52.847

@<SCITEGIC>MOL_PROPERTY
W(PB)
SciTegic.value.DoubleValue
-55.240

@<SCITEGIC>MOL_PROPERTY
W(SA)
SciTegic.value.DoubleValue
2.393

@<SCITEGIC>MOL_PROPERTY
Valence
SciTegic.value.DoubleValue
9.315

@<SCITEGIC>MOL_PROPERTY
Coulomb
SciTegic.value.DoubleValue
20.615

@<SCITEGIC>MOL_PROPERTY
VdW
SciTegic.value.DoubleValue
0.961

@<SCITEGIC>MOL_PROPERTY
VdW6
SciTegic.value.DoubleValue
-11.161

@<SCITEGIC>MOL_PROPERTY
VdW12
SciTegic.value.DoubleValue
12.122

@<SCITEGIC>MOL_PROPERTY
Bond
SciTegic.value.DoubleValue
0.342

@<SCITEGIC>MOL_PROPERTY
Angle
SciTegic.value.DoubleValue
2.654

@<SCITEGIC>MOL_PROPERTY
Pdih
SciTegic.value.DoubleValue
6.319

@<SCITEGIC>MOL_PROPERTY
Idih
SciTegic.value.DoubleValue
0.000

@<SCITEGIC>MOL_PROPERTY
Tether
SciTegic.value.DoubleValue
0.000

@<TRIPOS>MOLECULE
guest-s15_vm2.mol2 : vm2 ligand conformer 197
          29          28           1
SMALL
USER_CHARGES
 
@<TRIPOS>ATOM
       1    C1      18.036137   19.450278   21.558142 C.3        1 MOL1        -0.2426
       2    H1      18.199450   19.748572   22.598461 H          1 MOL1         0.0959
       3    H2      17.835287   20.359077   20.976121 H          1 MOL1         0.0959
       4    H3      17.132832   18.827550   21.525830 H          1 MOL1         0.0959
       5    C2      19.245373   18.681690   20.976663 C.3        1 MOL1        -0.1410
       6    H4      19.010684   18.427223   19.933591 H          1 MOL1         0.0948
       7    H5      19.382462   17.722388   21.493412 H          1 MOL1         0.0948
       8    C3      20.560735   19.500234   20.998630 C.3        1 MOL1        -0.1435
       9    H6      21.132833   19.238533   20.097750 H          1 MOL1         0.0948
      10    H7      20.341523   20.572605   20.903546 H          1 MOL1         0.0948
      11    C4      21.488381   19.252279   22.218953 C.3        1 MOL1        -0.1435
      12    H8      22.418074   19.809142   22.037344 H          1 MOL1         0.0948
      13    H9      21.784981   18.195156   22.257366 H          1 MOL1         0.0948
      14    C5      20.927877   19.704728   23.591618 C.3        1 MOL1        -0.1435
      15    H10     21.765381   20.071152   24.201483 H          1 MOL1         0.0948
      16    H11     20.258400   20.563099   23.453519 H          1 MOL1         0.0948
      17    C6      20.230700   18.563563   24.377546 C.3        1 MOL1        -0.1500
      18    H12     20.943785   17.737983   24.502906 H          1 MOL1         0.0948
      19    H13     19.388285   18.156750   23.807634 H          1 MOL1         0.0948
      20    C7      19.740845   19.007856   25.772544 C.3        1 MOL1         0.1162
      21    H14     20.593283   19.423091   26.318936 H          1 MOL1         0.0910
      22    C8      19.203835   17.801790   26.559455 C.3        1 MOL1        -0.2491
      23    H15     18.887511   18.104129   27.565401 H          1 MOL1         0.0959
      24    H16     18.343176   17.348006   26.052209 H          1 MOL1         0.0959
      25    H17     19.978623   17.033099   26.671531 H          1 MOL1         0.0959
      26    N1      18.702117   20.093582   25.700449 N.4        1 MOL1        -0.5987
      27    H18     19.058235   20.918901   25.210922 H          1 MOL1         0.3605
      28    H19     18.411601   20.393784   26.635487 H          1 MOL1         0.3605
      29    H20     17.864257   19.775560   25.206505 H          1 MOL1         0.3605
@<TRIPOS>BOND
    1     1     2    1
    2     1     3    1
    3     1     4    1
    4     1     5    1
    5     5     6    1
    6     5     7    1
    7     5     8    1
    8     8     9    1
    9     8    10    1
   10     8    11    1
   11    11    12    1
   12    11    13    1
   13    11    14    1
   14    14    15    1
   15    14    16    1
   16    14    17    1
   17    17    18    1
   18    17    19    1
   19    17    20    1
   20    20    21    1
   21    20    22    1
   22    22    23    1
   23    22    24    1
   24    22    25    1
   25    20    26    1
   26    26    27    1
   27    26    28    1
   28    26    29    1
@<TRIPOS>SUBSTRUCTURE
       1 MOL1            1 RESIDUE      1      MOL     
@<SCITEGIC>MOL_PROPERTY
VM2 Rank
SciTegic.value.IntegerValue
197

@<SCITEGIC>MOL_PROPERTY
Conf_Id
SciTegic.value.IntegerValue
313

@<SCITEGIC>MOL_PROPERTY
Probability
SciTegic.value.DoubleValue
0.00

@<SCITEGIC>MOL_PROPERTY
Sum Probability
SciTegic.value.DoubleValue
100.00

@<SCITEGIC>MOL_PROPERTY
Delta G
SciTegic.value.DoubleValue
6.821

@<SCITEGIC>MOL_PROPERTY
G
SciTegic.value.DoubleValue
40.524

@<SCITEGIC>MOL_PROPERTY
E
SciTegic.value.DoubleValue
2.174

@<SCITEGIC>MOL_PROPERTY
-TS
SciTegic.value.DoubleValue
38.350

@<SCITEGIC>MOL_PROPERTY
U+W
SciTegic.value.DoubleValue
-21.971

@<SCITEGIC>MOL_PROPERTY
U
SciTegic.value.DoubleValue
30.724

@<SCITEGIC>MOL_PROPERTY
W
SciTegic.value.DoubleValue
-52.695

@<SCITEGIC>MOL_PROPERTY
W(PB)
SciTegic.value.DoubleValue
-55.088

@<SCITEGIC>MOL_PROPERTY
W(SA)
SciTegic.value.DoubleValue
2.393

@<SCITEGIC>MOL_PROPERTY
Valence
SciTegic.value.DoubleValue
8.746

@<SCITEGIC>MOL_PROPERTY
Coulomb
SciTegic.value.DoubleValue
21.257

@<SCITEGIC>MOL_PROPERTY
VdW
SciTegic.value.DoubleValue
0.720

@<SCITEGIC>MOL_PROPERTY
VdW6
SciTegic.value.DoubleValue
-11.140

@<SCITEGIC>MOL_PROPERTY
VdW12
SciTegic.value.DoubleValue
11.861

@<SCITEGIC>MOL_PROPERTY
Bond
SciTegic.value.DoubleValue
0.332

@<SCITEGIC>MOL_PROPERTY
Angle
SciTegic.value.DoubleValue
2.430

@<SCITEGIC>MOL_PROPERTY
Pdih
SciTegic.value.DoubleValue
5.984

@<SCITEGIC>MOL_PROPERTY
Idih
SciTegic.value.DoubleValue
0.000

@<SCITEGIC>MOL_PROPERTY
Tether
SciTegic.value.DoubleValue
0.000

@<TRIPOS>MOLECULE
guest-s15_vm2.mol2 : vm2 ligand conformer 198
          29          28           1
SMALL
USER_CHARGES
 
@<TRIPOS>ATOM
       1    C1      18.141882   19.063163   21.110869 C.3        1 MOL1        -0.2426
       2    H1      18.073121   18.234164   20.394666 H          1 MOL1         0.0959
       3    H2      18.016861   18.651316   22.119179 H          1 MOL1         0.0959
       4    H3      17.298940   19.740151   20.921341 H          1 MOL1         0.0959
       5    C2      19.484533   19.814283   20.958122 C.3        1 MOL1        -0.1410
       6    H4      19.528540   20.662155   21.653793 H          1 MOL1         0.0948
       7    H5      19.525561   20.252144   19.951065 H          1 MOL1         0.0948
       8    C3      20.719764   18.899920   21.146367 C.3        1 MOL1        -0.1435
       9    H6      20.657955   18.073690   20.424820 H          1 MOL1         0.0948
      10    H7      21.622834   19.463477   20.874489 H          1 MOL1         0.0948
      11    C4      20.907652   18.306203   22.568406 C.3        1 MOL1        -0.1435
      12    H8      21.749568   17.602092   22.518954 H          1 MOL1         0.0948
      13    H9      20.037063   17.700417   22.845231 H          1 MOL1         0.0948
      14    C5      21.233159   19.358057   23.664689 C.3        1 MOL1        -0.1435
      15    H10     21.943287   18.925758   24.383192 H          1 MOL1         0.0948
      16    H11     21.768555   20.198661   23.202363 H          1 MOL1         0.0948
      17    C6      20.002899   19.901437   24.441868 C.3        1 MOL1        -0.1500
      18    H12     19.110212   19.906245   23.807277 H          1 MOL1         0.0948
      19    H13     20.201728   20.953023   24.686921 H          1 MOL1         0.0948
      20    C7      19.700375   19.162286   25.767339 C.3        1 MOL1         0.1162
      21    H14     20.599197   19.199857   26.390437 H          1 MOL1         0.0910
      22    C8      19.325303   17.686100   25.553692 C.3        1 MOL1        -0.2491
      23    H15     18.468936   17.587709   24.875123 H          1 MOL1         0.0959
      24    H16     20.167467   17.122300   25.135886 H          1 MOL1         0.0959
      25    H17     19.060449   17.212537   26.507028 H          1 MOL1         0.0959
      26    N1      18.620434   19.864551   26.542648 N.4        1 MOL1        -0.5987
      27    H18     17.735254   19.871324   26.028848 H          1 MOL1         0.3605
      28    H19     18.870034   20.838032   26.739796 H          1 MOL1         0.3605
      29    H20     18.448318   19.406328   27.442133 H          1 MOL1         0.3605
@<TRIPOS>BOND
    1     1     2    1
    2     1     3    1
    3     1     4    1
    4     1     5    1
    5     5     6    1
    6     5     7    1
    7     5     8    1
    8     8     9    1
    9     8    10    1
   10     8    11    1
   11    11    12    1
   12    11    13    1
   13    11    14    1
   14    14    15    1
   15    14    16    1
   16    14    17    1
   17    17    18    1
   18    17    19    1
   19    17    20    1
   20    20    21    1
   21    20    22    1
   22    22    23    1
   23    22    24    1
   24    22    25    1
   25    20    26    1
   26    26    27    1
   27    26    28    1
   28    26    29    1
@<TRIPOS>SUBSTRUCTURE
       1 MOL1            1 RESIDUE      1      MOL     
@<SCITEGIC>MOL_PROPERTY
VM2 Rank
SciTegic.value.IntegerValue
198

@<SCITEGIC>MOL_PROPERTY
Conf_Id
SciTegic.value.IntegerValue
336

@<SCITEGIC>MOL_PROPERTY
Probability
SciTegic.value.DoubleValue
0.00

@<SCITEGIC>MOL_PROPERTY
Sum Probability
SciTegic.value.DoubleValue
100.00

@<SCITEGIC>MOL_PROPERTY
Delta G
SciTegic.value.DoubleValue
7.033

@<SCITEGIC>MOL_PROPERTY
G
SciTegic.value.DoubleValue
40.735

@<SCITEGIC>MOL_PROPERTY
E
SciTegic.value.DoubleValue
2.113

@<SCITEGIC>MOL_PROPERTY
-TS
SciTegic.value.DoubleValue
38.622

@<SCITEGIC>MOL_PROPERTY
U+W
SciTegic.value.DoubleValue
-22.032

@<SCITEGIC>MOL_PROPERTY
U
SciTegic.value.DoubleValue
30.876

@<SCITEGIC>MOL_PROPERTY
W
SciTegic.value.DoubleValue
-52.907

@<SCITEGIC>MOL_PROPERTY
W(PB)
SciTegic.value.DoubleValue
-55.247

@<SCITEGIC>MOL_PROPERTY
W(SA)
SciTegic.value.DoubleValue
2.340

@<SCITEGIC>MOL_PROPERTY
Valence
SciTegic.value.DoubleValue
9.525

@<SCITEGIC>MOL_PROPERTY
Coulomb
SciTegic.value.DoubleValue
20.452

@<SCITEGIC>MOL_PROPERTY
VdW
SciTegic.value.DoubleValue
0.899

@<SCITEGIC>MOL_PROPERTY
VdW6
SciTegic.value.DoubleValue
-11.877

@<SCITEGIC>MOL_PROPERTY
VdW12
SciTegic.value.DoubleValue
12.776

@<SCITEGIC>MOL_PROPERTY
Bond
SciTegic.value.DoubleValue
0.385

@<SCITEGIC>MOL_PROPERTY
Angle
SciTegic.value.DoubleValue
2.747

@<SCITEGIC>MOL_PROPERTY
Pdih
SciTegic.value.DoubleValue
6.393

@<SCITEGIC>MOL_PROPERTY
Idih
SciTegic.value.DoubleValue
0.000

@<SCITEGIC>MOL_PROPERTY
Tether
SciTegic.value.DoubleValue
0.000

@<TRIPOS>MOLECULE
guest-s15_vm2.mol2 : vm2 ligand conformer 199
          29          28           1
SMALL
USER_CHARGES
 
@<TRIPOS>ATOM
       1    C1      19.835279   20.908497   21.155027 C.3        1 MOL1        -0.2426
       2    H1      19.499062   21.836893   20.675494 H          1 MOL1         0.0959
       3    H2      19.646230   21.009066   22.230186 H          1 MOL1         0.0959
       4    H3      20.918002   20.822212   20.996332 H          1 MOL1         0.0959
       5    C2      19.087457   19.694544   20.561886 C.3        1 MOL1        -0.1410
       6    H4      19.169457   19.732978   19.466649 H          1 MOL1         0.0948
       7    H5      18.015586   19.779329   20.788895 H          1 MOL1         0.0948
       8    C3      19.614731   18.319021   21.044579 C.3        1 MOL1        -0.1435
       9    H6      19.049011   17.543069   20.510488 H          1 MOL1         0.0948
      10    H7      20.661313   18.186259   20.737740 H          1 MOL1         0.0948
      11    C4      19.462022   18.065248   22.566493 C.3        1 MOL1        -0.1435
      12    H8      19.256310   16.996654   22.718854 H          1 MOL1         0.0948
      13    H9      18.577549   18.593697   22.937977 H          1 MOL1         0.0948
      14    C5      20.733667   18.425802   23.378968 C.3        1 MOL1        -0.1435
      15    H10     21.553654   17.789372   23.018489 H          1 MOL1         0.0948
      16    H11     21.053641   19.456629   23.186293 H          1 MOL1         0.0948
      17    C6      20.584814   18.202472   24.906706 C.3        1 MOL1        -0.1500
      18    H12     21.578593   17.962064   25.307573 H          1 MOL1         0.0948
      19    H13     19.958593   17.322648   25.105569 H          1 MOL1         0.0948
      20    C7      20.050914   19.431603   25.678902 C.3        1 MOL1         0.1162
      21    H14     20.702676   20.281842   25.455609 H          1 MOL1         0.0910
      22    C8      20.103528   19.172128   27.193023 C.3        1 MOL1        -0.2491
      23    H15     19.765762   20.054516   27.750455 H          1 MOL1         0.0959
      24    H16     19.464137   18.325491   27.472888 H          1 MOL1         0.0959
      25    H17     21.127958   18.947761   27.515415 H          1 MOL1         0.0959
      26    N1      18.663588   19.836686   25.268415 N.4        1 MOL1        -0.5987
      27    H18     17.988854   19.090009   25.455060 H          1 MOL1         0.3605
      28    H19     18.624206   20.050908   24.268388 H          1 MOL1         0.3605
      29    H20     18.351057   20.668806   25.777171 H          1 MOL1         0.3605
@<TRIPOS>BOND
    1     1     2    1
    2     1     3    1
    3     1     4    1
    4     1     5    1
    5     5     6    1
    6     5     7    1
    7     5     8    1
    8     8     9    1
    9     8    10    1
   10     8    11    1
   11    11    12    1
   12    11    13    1
   13    11    14    1
   14    14    15    1
   15    14    16    1
   16    14    17    1
   17    17    18    1
   18    17    19    1
   19    17    20    1
   20    20    21    1
   21    20    22    1
   22    22    23    1
   23    22    24    1
   24    22    25    1
   25    20    26    1
   26    26    27    1
   27    26    28    1
   28    26    29    1
@<TRIPOS>SUBSTRUCTURE
       1 MOL1            1 RESIDUE      1      MOL     
@<SCITEGIC>MOL_PROPERTY
VM2 Rank
SciTegic.value.IntegerValue
199

@<SCITEGIC>MOL_PROPERTY
Conf_Id
SciTegic.value.IntegerValue
264

@<SCITEGIC>MOL_PROPERTY
Probability
SciTegic.value.DoubleValue
0.00

@<SCITEGIC>MOL_PROPERTY
Sum Probability
SciTegic.value.DoubleValue
100.00

@<SCITEGIC>MOL_PROPERTY
Delta G
SciTegic.value.DoubleValue
7.046

@<SCITEGIC>MOL_PROPERTY
G
SciTegic.value.DoubleValue
40.749

@<SCITEGIC>MOL_PROPERTY
E
SciTegic.value.DoubleValue
2.867

@<SCITEGIC>MOL_PROPERTY
-TS
SciTegic.value.DoubleValue
37.882

@<SCITEGIC>MOL_PROPERTY
U+W
SciTegic.value.DoubleValue
-21.278

@<SCITEGIC>MOL_PROPERTY
U
SciTegic.value.DoubleValue
30.586

@<SCITEGIC>MOL_PROPERTY
W
SciTegic.value.DoubleValue
-51.864

@<SCITEGIC>MOL_PROPERTY
W(PB)
SciTegic.value.DoubleValue
-54.285

@<SCITEGIC>MOL_PROPERTY
W(SA)
SciTegic.value.DoubleValue
2.421

@<SCITEGIC>MOL_PROPERTY
Valence
SciTegic.value.DoubleValue
8.132

@<SCITEGIC>MOL_PROPERTY
Coulomb
SciTegic.value.DoubleValue
21.534

@<SCITEGIC>MOL_PROPERTY
VdW
SciTegic.value.DoubleValue
0.920

@<SCITEGIC>MOL_PROPERTY
VdW6
SciTegic.value.DoubleValue
-10.749

@<SCITEGIC>MOL_PROPERTY
VdW12
SciTegic.value.DoubleValue
11.668

@<SCITEGIC>MOL_PROPERTY
Bond
SciTegic.value.DoubleValue
0.338

@<SCITEGIC>MOL_PROPERTY
Angle
SciTegic.value.DoubleValue
2.204

@<SCITEGIC>MOL_PROPERTY
Pdih
SciTegic.value.DoubleValue
5.590

@<SCITEGIC>MOL_PROPERTY
Idih
SciTegic.value.DoubleValue
0.000

@<SCITEGIC>MOL_PROPERTY
Tether
SciTegic.value.DoubleValue
0.000

@<TRIPOS>MOLECULE
guest-s15_vm2.mol2 : vm2 ligand conformer 200
          29          28           1
SMALL
USER_CHARGES
 
@<TRIPOS>ATOM
       1    C1      19.334864   20.957960   20.189093 C.3        1 MOL1        -0.2426
       2    H1      18.558399   21.201482   19.452300 H          1 MOL1         0.0959
       3    H2      19.366920   21.771053   20.926025 H          1 MOL1         0.0959
       4    H3      20.299641   20.932603   19.665794 H          1 MOL1         0.0959
       5    C2      19.036505   19.604489   20.867622 C.3        1 MOL1        -0.1410
       6    H4      18.976513   18.818093   20.102079 H          1 MOL1         0.0948
       7    H5      18.050956   19.650155   21.351403 H          1 MOL1         0.0948
       8    C3      20.117733   19.236748   21.907287 C.3        1 MOL1        -0.1435
       9    H6      21.095634   19.181618   21.408923 H          1 MOL1         0.0948
      10    H7      20.203060   20.039548   22.648881 H          1 MOL1         0.0948
      11    C4      19.822374   17.878365   22.590158 C.3        1 MOL1        -0.1435
      12    H8      19.915884   17.091755   21.828374 H          1 MOL1         0.0948
      13    H9      18.783303   17.825028   22.941019 H          1 MOL1         0.0948
      14    C5      20.797921   17.556861   23.750926 C.3        1 MOL1        -0.1435
      15    H10     21.008340   16.478608   23.726524 H          1 MOL1         0.0948
      16    H11     21.766067   18.047289   23.578575 H          1 MOL1         0.0948
      17    C6      20.280535   17.894264   25.176332 C.3        1 MOL1        -0.1500
      18    H12     21.041801   17.542812   25.885589 H          1 MOL1         0.0948
      19    H13     19.377755   17.308964   25.395647 H          1 MOL1         0.0948
      20    C7      20.008713   19.392458   25.447199 C.3        1 MOL1         0.1162
      21    H14     20.800658   19.979121   24.971766 H          1 MOL1         0.0910
      22    C8      20.037213   19.678881   26.957465 C.3        1 MOL1        -0.2491
      23    H15     21.014032   19.421656   27.385758 H          1 MOL1         0.0959
      24    H16     19.859608   20.743336   27.154610 H          1 MOL1         0.0959
      25    H17     19.268970   19.100185   27.485612 H          1 MOL1         0.0959
      26    N1      18.700142   19.855974   24.867917 N.4        1 MOL1        -0.5987
      27    H18     17.910114   19.368738   25.299623 H          1 MOL1         0.3605
      28    H19     18.663936   19.677635   23.859737 H          1 MOL1         0.3605
      29    H20     18.559909   20.859842   25.015190 H          1 MOL1         0.3605
@<TRIPOS>BOND
    1     1     2    1
    2     1     3    1
    3     1     4    1
    4     1     5    1
    5     5     6    1
    6     5     7    1
    7     5     8    1
    8     8     9    1
    9     8    10    1
   10     8    11    1
   11    11    12    1
   12    11    13    1
   13    11    14    1
   14    14    15    1
   15    14    16    1
   16    14    17    1
   17    17    18    1
   18    17    19    1
   19    17    20    1
   20    20    21    1
   21    20    22    1
   22    22    23    1
   23    22    24    1
   24    22    25    1
   25    20    26    1
   26    26    27    1
   27    26    28    1
   28    26    29    1
@<TRIPOS>SUBSTRUCTURE
       1 MOL1            1 RESIDUE      1      MOL     
@<SCITEGIC>MOL_PROPERTY
VM2 Rank
SciTegic.value.IntegerValue
200

@<SCITEGIC>MOL_PROPERTY
Conf_Id
SciTegic.value.IntegerValue
459

@<SCITEGIC>MOL_PROPERTY
Probability
SciTegic.value.DoubleValue
0.00

@<SCITEGIC>MOL_PROPERTY
Sum Probability
SciTegic.value.DoubleValue
100.00

@<SCITEGIC>MOL_PROPERTY
Delta G
SciTegic.value.DoubleValue
7.119

@<SCITEGIC>MOL_PROPERTY
G
SciTegic.value.DoubleValue
40.821

@<SCITEGIC>MOL_PROPERTY
E
SciTegic.value.DoubleValue
2.728

@<SCITEGIC>MOL_PROPERTY
-TS
SciTegic.value.DoubleValue
38.093

@<SCITEGIC>MOL_PROPERTY
U+W
SciTegic.value.DoubleValue
-21.417

@<SCITEGIC>MOL_PROPERTY
U
SciTegic.value.DoubleValue
29.728

@<SCITEGIC>MOL_PROPERTY
W
SciTegic.value.DoubleValue
-51.144

@<SCITEGIC>MOL_PROPERTY
W(PB)
SciTegic.value.DoubleValue
-53.597

@<SCITEGIC>MOL_PROPERTY
W(SA)
SciTegic.value.DoubleValue
2.453

@<SCITEGIC>MOL_PROPERTY
Valence
SciTegic.value.DoubleValue
7.448

@<SCITEGIC>MOL_PROPERTY
Coulomb
SciTegic.value.DoubleValue
21.445

@<SCITEGIC>MOL_PROPERTY
VdW
SciTegic.value.DoubleValue
0.835

@<SCITEGIC>MOL_PROPERTY
VdW6
SciTegic.value.DoubleValue
-10.815

@<SCITEGIC>MOL_PROPERTY
VdW12
SciTegic.value.DoubleValue
11.649

@<SCITEGIC>MOL_PROPERTY
Bond
SciTegic.value.DoubleValue
0.282

@<SCITEGIC>MOL_PROPERTY
Angle
SciTegic.value.DoubleValue
2.108

@<SCITEGIC>MOL_PROPERTY
Pdih
SciTegic.value.DoubleValue
5.057

@<SCITEGIC>MOL_PROPERTY
Idih
SciTegic.value.DoubleValue
0.000

@<SCITEGIC>MOL_PROPERTY
Tether
SciTegic.value.DoubleValue
0.000

@<TRIPOS>MOLECULE
guest-s15_vm2.mol2 : vm2 ligand conformer 201
          29          28           1
SMALL
USER_CHARGES
 
@<TRIPOS>ATOM
       1    C1      20.185304   20.744077   20.072761 C.3        1 MOL1        -0.2426
       2    H1      19.227602   21.194679   19.781232 H          1 MOL1         0.0959
       3    H2      20.703815   21.444468   20.740465 H          1 MOL1         0.0959
       4    H3      20.793635   20.629905   19.166158 H          1 MOL1         0.0959
       5    C2      19.970274   19.378950   20.759871 C.3        1 MOL1        -0.1410
       6    H4      20.947742   18.940683   21.000323 H          1 MOL1         0.0948
       7    H5      19.481068   18.691675   20.055579 H          1 MOL1         0.0948
       8    C3      19.110781   19.514411   22.039125 C.3        1 MOL1        -0.1435
       9    H6      19.601071   20.212024   22.728660 H          1 MOL1         0.0948
      10    H7      18.147322   19.967416   21.766984 H          1 MOL1         0.0948
      11    C4      18.840948   18.153530   22.733349 C.3        1 MOL1        -0.1435
      12    H8      18.528181   17.432538   21.965257 H          1 MOL1         0.0948
      13    H9      17.981939   18.234963   23.412265 H          1 MOL1         0.0948
      14    C5      20.061011   17.572298   23.496922 C.3        1 MOL1        -0.1435
      15    H10     20.055902   16.482233   23.358792 H          1 MOL1         0.0948
      16    H11     21.000710   17.917878   23.047489 H          1 MOL1         0.0948
      17    C6      20.087151   17.843597   25.025845 C.3        1 MOL1        -0.1500
      18    H12     20.949739   17.299523   25.433301 H          1 MOL1         0.0948
      19    H13     19.203522   17.398986   25.502485 H          1 MOL1         0.0948
      20    C7      20.207020   19.331456   25.429662 C.3        1 MOL1         0.1162
      21    H14     20.896034   19.823394   24.736317 H          1 MOL1         0.0910
      22    C8      20.780041   19.458632   26.850686 C.3        1 MOL1        -0.2491
      23    H15     20.131845   18.964760   27.585508 H          1 MOL1         0.0959
      24    H16     21.776345   19.003300   26.912585 H          1 MOL1         0.0959
      25    H17     20.879979   20.513043   27.136529 H          1 MOL1         0.0959
      26    N1      18.893471   20.059050   25.345778 N.4        1 MOL1        -0.5987
      27    H18     18.212507   19.672115   26.004857 H          1 MOL1         0.3605
      28    H19     18.493476   19.984897   24.406243 H          1 MOL1         0.3605
      29    H20     19.001265   21.053868   25.564184 H          1 MOL1         0.3605
@<TRIPOS>BOND
    1     1     2    1
    2     1     3    1
    3     1     4    1
    4     1     5    1
    5     5     6    1
    6     5     7    1
    7     5     8    1
    8     8     9    1
    9     8    10    1
   10     8    11    1
   11    11    12    1
   12    11    13    1
   13    11    14    1
   14    14    15    1
   15    14    16    1
   16    14    17    1
   17    17    18    1
   18    17    19    1
   19    17    20    1
   20    20    21    1
   21    20    22    1
   22    22    23    1
   23    22    24    1
   24    22    25    1
   25    20    26    1
   26    26    27    1
   27    26    28    1
   28    26    29    1
@<TRIPOS>SUBSTRUCTURE
       1 MOL1            1 RESIDUE      1      MOL     
@<SCITEGIC>MOL_PROPERTY
VM2 Rank
SciTegic.value.IntegerValue
201

@<SCITEGIC>MOL_PROPERTY
Conf_Id
SciTegic.value.IntegerValue
1039

@<SCITEGIC>MOL_PROPERTY
Probability
SciTegic.value.DoubleValue
0.00

@<SCITEGIC>MOL_PROPERTY
Sum Probability
SciTegic.value.DoubleValue
100.00

@<SCITEGIC>MOL_PROPERTY
Delta G
SciTegic.value.DoubleValue
7.138

@<SCITEGIC>MOL_PROPERTY
G
SciTegic.value.DoubleValue
40.840

@<SCITEGIC>MOL_PROPERTY
E
SciTegic.value.DoubleValue
2.742

@<SCITEGIC>MOL_PROPERTY
-TS
SciTegic.value.DoubleValue
38.098

@<SCITEGIC>MOL_PROPERTY
U+W
SciTegic.value.DoubleValue
-21.402

@<SCITEGIC>MOL_PROPERTY
U
SciTegic.value.DoubleValue
30.663

@<SCITEGIC>MOL_PROPERTY
W
SciTegic.value.DoubleValue
-52.065

@<SCITEGIC>MOL_PROPERTY
W(PB)
SciTegic.value.DoubleValue
-54.501

@<SCITEGIC>MOL_PROPERTY
W(SA)
SciTegic.value.DoubleValue
2.436

@<SCITEGIC>MOL_PROPERTY
Valence
SciTegic.value.DoubleValue
8.199

@<SCITEGIC>MOL_PROPERTY
Coulomb
SciTegic.value.DoubleValue
21.430

@<SCITEGIC>MOL_PROPERTY
VdW
SciTegic.value.DoubleValue
1.034

@<SCITEGIC>MOL_PROPERTY
VdW6
SciTegic.value.DoubleValue
-11.039

@<SCITEGIC>MOL_PROPERTY
VdW12
SciTegic.value.DoubleValue
12.073

@<SCITEGIC>MOL_PROPERTY
Bond
SciTegic.value.DoubleValue
0.331

@<SCITEGIC>MOL_PROPERTY
Angle
SciTegic.value.DoubleValue
2.224

@<SCITEGIC>MOL_PROPERTY
Pdih
SciTegic.value.DoubleValue
5.645

@<SCITEGIC>MOL_PROPERTY
Idih
SciTegic.value.DoubleValue
0.000

@<SCITEGIC>MOL_PROPERTY
Tether
SciTegic.value.DoubleValue
0.000

@<TRIPOS>MOLECULE
guest-s15_vm2.mol2 : vm2 ligand conformer 202
          29          28           1
SMALL
USER_CHARGES
 
@<TRIPOS>ATOM
       1    C1      18.986706   20.197580   20.381579 C.3        1 MOL1        -0.2426
       2    H1      19.705465   20.224072   19.552316 H          1 MOL1         0.0959
       3    H2      18.398929   19.275764   20.293840 H          1 MOL1         0.0959
       4    H3      18.298430   21.043183   20.254568 H          1 MOL1         0.0959
       5    C2      19.709143   20.288046   21.745121 C.3        1 MOL1        -0.1410
       6    H4      18.964535   20.283051   22.550370 H          1 MOL1         0.0948
       7    H5      20.224181   21.256951   21.804821 H          1 MOL1         0.0948
       8    C3      20.748248   19.156974   21.954417 C.3        1 MOL1        -0.1435
       9    H6      21.376227   19.096274   21.054831 H          1 MOL1         0.0948
      10    H7      21.436529   19.421966   22.767847 H          1 MOL1         0.0948
      11    C4      20.126373   17.761894   22.227485 C.3        1 MOL1        -0.1435
      12    H8      20.728543   17.015153   21.691728 H          1 MOL1         0.0948
      13    H9      19.121808   17.691095   21.791575 H          1 MOL1         0.0948
      14    C5      20.079425   17.333660   23.718811 C.3        1 MOL1        -0.1435
      15    H10     19.714744   16.297547   23.745793 H          1 MOL1         0.0948
      16    H11     21.096362   17.289117   24.126978 H          1 MOL1         0.0948
      17    C6      19.148292   18.179556   24.629930 C.3        1 MOL1        -0.1500
      18    H12     18.855626   17.568932   25.494410 H          1 MOL1         0.0948
      19    H13     18.218440   18.386654   24.084368 H          1 MOL1         0.0948
      20    C7      19.747211   19.506641   25.155767 C.3        1 MOL1         0.1162
      21    H14     20.130901   20.080805   24.309797 H          1 MOL1         0.0910
      22    C8      20.903269   19.272028   26.144734 C.3        1 MOL1        -0.2491
      23    H15     21.752422   18.777208   25.660525 H          1 MOL1         0.0959
      24    H16     21.269943   20.226330   26.542471 H          1 MOL1         0.0959
      25    H17     20.581992   18.652839   26.991519 H          1 MOL1         0.0959
      26    N1      18.687334   20.359620   25.796157 N.4        1 MOL1        -0.5987
      27    H18     19.069040   21.255530   26.112986 H          1 MOL1         0.3605
      28    H19     18.279666   19.896508   26.612985 H          1 MOL1         0.3605
      29    H20     17.923233   20.565482   25.146338 H          1 MOL1         0.3605
@<TRIPOS>BOND
    1     1     2    1
    2     1     3    1
    3     1     4    1
    4     1     5    1
    5     5     6    1
    6     5     7    1
    7     5     8    1
    8     8     9    1
    9     8    10    1
   10     8    11    1
   11    11    12    1
   12    11    13    1
   13    11    14    1
   14    14    15    1
   15    14    16    1
   16    14    17    1
   17    17    18    1
   18    17    19    1
   19    17    20    1
   20    20    21    1
   21    20    22    1
   22    22    23    1
   23    22    24    1
   24    22    25    1
   25    20    26    1
   26    26    27    1
   27    26    28    1
   28    26    29    1
@<TRIPOS>SUBSTRUCTURE
       1 MOL1            1 RESIDUE      1      MOL     
@<SCITEGIC>MOL_PROPERTY
VM2 Rank
SciTegic.value.IntegerValue
202

@<SCITEGIC>MOL_PROPERTY
Conf_Id
SciTegic.value.IntegerValue
679

@<SCITEGIC>MOL_PROPERTY
Probability
SciTegic.value.DoubleValue
0.00

@<SCITEGIC>MOL_PROPERTY
Sum Probability
SciTegic.value.DoubleValue
100.00

@<SCITEGIC>MOL_PROPERTY
Delta G
SciTegic.value.DoubleValue
7.276

@<SCITEGIC>MOL_PROPERTY
G
SciTegic.value.DoubleValue
40.979

@<SCITEGIC>MOL_PROPERTY
E
SciTegic.value.DoubleValue
2.695

@<SCITEGIC>MOL_PROPERTY
-TS
SciTegic.value.DoubleValue
38.284

@<SCITEGIC>MOL_PROPERTY
U+W
SciTegic.value.DoubleValue
-21.450

@<SCITEGIC>MOL_PROPERTY
U
SciTegic.value.DoubleValue
31.628

@<SCITEGIC>MOL_PROPERTY
W
SciTegic.value.DoubleValue
-53.078

@<SCITEGIC>MOL_PROPERTY
W(PB)
SciTegic.value.DoubleValue
-55.478

@<SCITEGIC>MOL_PROPERTY
W(SA)
SciTegic.value.DoubleValue
2.400

@<SCITEGIC>MOL_PROPERTY
Valence
SciTegic.value.DoubleValue
9.584

@<SCITEGIC>MOL_PROPERTY
Coulomb
SciTegic.value.DoubleValue
21.283

@<SCITEGIC>MOL_PROPERTY
VdW
SciTegic.value.DoubleValue
0.761

@<SCITEGIC>MOL_PROPERTY
VdW6
SciTegic.value.DoubleValue
-12.099

@<SCITEGIC>MOL_PROPERTY
VdW12
SciTegic.value.DoubleValue
12.860

@<SCITEGIC>MOL_PROPERTY
Bond
SciTegic.value.DoubleValue
0.374

@<SCITEGIC>MOL_PROPERTY
Angle
SciTegic.value.DoubleValue
2.941

@<SCITEGIC>MOL_PROPERTY
Pdih
SciTegic.value.DoubleValue
6.270

@<SCITEGIC>MOL_PROPERTY
Idih
SciTegic.value.DoubleValue
0.000

@<SCITEGIC>MOL_PROPERTY
Tether
SciTegic.value.DoubleValue
0.000

@<TRIPOS>MOLECULE
guest-s15_vm2.mol2 : vm2 ligand conformer 203
          29          28           1
SMALL
USER_CHARGES
 
@<TRIPOS>ATOM
       1    C1      18.282401   18.463020   21.150349 C.3        1 MOL1        -0.2426
       2    H1      17.697082   19.181539   20.562085 H          1 MOL1         0.0959
       3    H2      17.965468   17.453698   20.857740 H          1 MOL1         0.0959
       4    H3      18.023841   18.598676   22.206885 H          1 MOL1         0.0959
       5    C2      19.796660   18.648605   20.900387 C.3        1 MOL1        -0.1410
       6    H4      20.003140   18.437509   19.841911 H          1 MOL1         0.0948
       7    H5      20.370460   17.906215   21.470004 H          1 MOL1         0.0948
       8    C3      20.298006   20.077698   21.222539 C.3        1 MOL1        -0.1435
       9    H6      21.338697   20.173033   20.883474 H          1 MOL1         0.0948
      10    H7      19.723555   20.795573   20.621050 H          1 MOL1         0.0948
      11    C4      20.215415   20.498670   22.714284 C.3        1 MOL1        -0.1435
      12    H8      19.175478   20.465112   23.056789 H          1 MOL1         0.0948
      13    H9      20.508907   21.556009   22.770548 H          1 MOL1         0.0948
      14    C5      21.152379   19.694034   23.657537 C.3        1 MOL1        -0.1435
      15    H10     22.021983   19.347082   23.082668 H          1 MOL1         0.0948
      16    H11     21.564328   20.367636   24.421787 H          1 MOL1         0.0948
      17    C6      20.494022   18.479145   24.366331 C.3        1 MOL1        -0.1500
      18    H12     21.278954   17.734474   24.553788 H          1 MOL1         0.0948
      19    H13     19.766481   17.989167   23.710142 H          1 MOL1         0.0948
      20    C7      19.837493   18.822995   25.723495 C.3        1 MOL1         0.1162
      21    H14     20.600848   19.276326   26.363286 H          1 MOL1         0.0910
      22    C8      19.333377   17.543794   26.410465 C.3        1 MOL1        -0.2491
      23    H15     20.155238   16.833276   26.563554 H          1 MOL1         0.0959
      24    H16     18.905476   17.773883   27.394017 H          1 MOL1         0.0959
      25    H17     18.560988   17.048285   25.808949 H          1 MOL1         0.0959
      26    N1      18.726247   19.828039   25.608613 N.4        1 MOL1        -0.5987
      27    H18     17.957136   19.468356   25.037633 H          1 MOL1         0.3605
      28    H19     19.058560   20.694455   25.176020 H          1 MOL1         0.3605
      29    H20     18.342702   20.068089   26.527361 H          1 MOL1         0.3605
@<TRIPOS>BOND
    1     1     2    1
    2     1     3    1
    3     1     4    1
    4     1     5    1
    5     5     6    1
    6     5     7    1
    7     5     8    1
    8     8     9    1
    9     8    10    1
   10     8    11    1
   11    11    12    1
   12    11    13    1
   13    11    14    1
   14    14    15    1
   15    14    16    1
   16    14    17    1
   17    17    18    1
   18    17    19    1
   19    17    20    1
   20    20    21    1
   21    20    22    1
   22    22    23    1
   23    22    24    1
   24    22    25    1
   25    20    26    1
   26    26    27    1
   27    26    28    1
   28    26    29    1
@<TRIPOS>SUBSTRUCTURE
       1 MOL1            1 RESIDUE      1      MOL     
@<SCITEGIC>MOL_PROPERTY
VM2 Rank
SciTegic.value.IntegerValue
203

@<SCITEGIC>MOL_PROPERTY
Conf_Id
SciTegic.value.IntegerValue
1054

@<SCITEGIC>MOL_PROPERTY
Probability
SciTegic.value.DoubleValue
0.00

@<SCITEGIC>MOL_PROPERTY
Sum Probability
SciTegic.value.DoubleValue
100.00

@<SCITEGIC>MOL_PROPERTY
Delta G
SciTegic.value.DoubleValue
7.277

@<SCITEGIC>MOL_PROPERTY
G
SciTegic.value.DoubleValue
40.979

@<SCITEGIC>MOL_PROPERTY
E
SciTegic.value.DoubleValue
2.588

@<SCITEGIC>MOL_PROPERTY
-TS
SciTegic.value.DoubleValue
38.391

@<SCITEGIC>MOL_PROPERTY
U+W
SciTegic.value.DoubleValue
-21.556

@<SCITEGIC>MOL_PROPERTY
U
SciTegic.value.DoubleValue
30.824

@<SCITEGIC>MOL_PROPERTY
W
SciTegic.value.DoubleValue
-52.381

@<SCITEGIC>MOL_PROPERTY
W(PB)
SciTegic.value.DoubleValue
-54.757

@<SCITEGIC>MOL_PROPERTY
W(SA)
SciTegic.value.DoubleValue
2.376

@<SCITEGIC>MOL_PROPERTY
Valence
SciTegic.value.DoubleValue
8.689

@<SCITEGIC>MOL_PROPERTY
Coulomb
SciTegic.value.DoubleValue
21.289

@<SCITEGIC>MOL_PROPERTY
VdW
SciTegic.value.DoubleValue
0.847

@<SCITEGIC>MOL_PROPERTY
VdW6
SciTegic.value.DoubleValue
-11.611

@<SCITEGIC>MOL_PROPERTY
VdW12
SciTegic.value.DoubleValue
12.458

@<SCITEGIC>MOL_PROPERTY
Bond
SciTegic.value.DoubleValue
0.383

@<SCITEGIC>MOL_PROPERTY
Angle
SciTegic.value.DoubleValue
2.406

@<SCITEGIC>MOL_PROPERTY
Pdih
SciTegic.value.DoubleValue
5.899

@<SCITEGIC>MOL_PROPERTY
Idih
SciTegic.value.DoubleValue
0.000

@<SCITEGIC>MOL_PROPERTY
Tether
SciTegic.value.DoubleValue
0.000

@<TRIPOS>MOLECULE
guest-s15_vm2.mol2 : vm2 ligand conformer 204
          29          28           1
SMALL
USER_CHARGES
 
@<TRIPOS>ATOM
       1    C1      18.247475   19.382092   20.062622 C.3        1 MOL1        -0.2426
       2    H1      18.454137   20.414045   19.750207 H          1 MOL1         0.0959
       3    H2      18.006368   18.799823   19.163812 H          1 MOL1         0.0959
       4    H3      17.358535   19.391083   20.706759 H          1 MOL1         0.0959
       5    C2      19.459444   18.771995   20.797842 C.3        1 MOL1        -0.1410
       6    H4      20.322471   18.743747   20.117930 H          1 MOL1         0.0948
       7    H5      19.234731   17.730806   21.068536 H          1 MOL1         0.0948
       8    C3      19.821013   19.574399   22.066791 C.3        1 MOL1        -0.1435
       9    H6      20.048257   20.612700   21.787823 H          1 MOL1         0.0948
      10    H7      18.949295   19.612140   22.729488 H          1 MOL1         0.0948
      11    C4      21.037171   18.963968   22.804609 C.3        1 MOL1        -0.1435
      12    H8      21.900714   19.004359   22.126159 H          1 MOL1         0.0948
      13    H9      20.874938   17.897929   23.011187 H          1 MOL1         0.0948
      14    C5      21.403023   19.718023   24.108609 C.3        1 MOL1        -0.1435
      15    H10     22.493650   19.852241   24.114237 H          1 MOL1         0.0948
      16    H11     20.995500   20.737573   24.095866 H          1 MOL1         0.0948
      17    C6      21.030971   18.992116   25.434422 C.3        1 MOL1        -0.1500
      18    H12     21.506023   19.549495   26.252333 H          1 MOL1         0.0948
      19    H13     21.499276   17.999233   25.455701 H          1 MOL1         0.0948
      20    C7      19.528370   18.863648   25.792242 C.3        1 MOL1         0.1162
      21    H14     19.481189   18.680804   26.870226 H          1 MOL1         0.0910
      22    C8      18.850676   17.655134   25.121659 C.3        1 MOL1        -0.2491
      23    H15     18.773094   17.766855   24.036897 H          1 MOL1         0.0959
      24    H16     19.407080   16.733015   25.329946 H          1 MOL1         0.0959
      25    H17     17.835276   17.521904   25.514421 H          1 MOL1         0.0959
      26    N1      18.757856   20.134625   25.565204 N.4        1 MOL1        -0.5987
      27    H18     19.158916   20.912923   26.096524 H          1 MOL1         0.3605
      28    H19     17.780236   20.037047   25.854199 H          1 MOL1         0.3605
      29    H20     18.767865   20.397941   24.577293 H          1 MOL1         0.3605
@<TRIPOS>BOND
    1     1     2    1
    2     1     3    1
    3     1     4    1
    4     1     5    1
    5     5     6    1
    6     5     7    1
    7     5     8    1
    8     8     9    1
    9     8    10    1
   10     8    11    1
   11    11    12    1
   12    11    13    1
   13    11    14    1
   14    14    15    1
   15    14    16    1
   16    14    17    1
   17    17    18    1
   18    17    19    1
   19    17    20    1
   20    20    21    1
   21    20    22    1
   22    22    23    1
   23    22    24    1
   24    22    25    1
   25    20    26    1
   26    26    27    1
   27    26    28    1
   28    26    29    1
@<TRIPOS>SUBSTRUCTURE
       1 MOL1            1 RESIDUE      1      MOL     
@<SCITEGIC>MOL_PROPERTY
VM2 Rank
SciTegic.value.IntegerValue
204

@<SCITEGIC>MOL_PROPERTY
Conf_Id
SciTegic.value.IntegerValue
110

@<SCITEGIC>MOL_PROPERTY
Probability
SciTegic.value.DoubleValue
0.00

@<SCITEGIC>MOL_PROPERTY
Sum Probability
SciTegic.value.DoubleValue
100.00

@<SCITEGIC>MOL_PROPERTY
Delta G
SciTegic.value.DoubleValue
7.406

@<SCITEGIC>MOL_PROPERTY
G
SciTegic.value.DoubleValue
41.108

@<SCITEGIC>MOL_PROPERTY
E
SciTegic.value.DoubleValue
2.873

@<SCITEGIC>MOL_PROPERTY
-TS
SciTegic.value.DoubleValue
38.235

@<SCITEGIC>MOL_PROPERTY
U+W
SciTegic.value.DoubleValue
-21.271

@<SCITEGIC>MOL_PROPERTY
U
SciTegic.value.DoubleValue
31.279

@<SCITEGIC>MOL_PROPERTY
W
SciTegic.value.DoubleValue
-52.551

@<SCITEGIC>MOL_PROPERTY
W(PB)
SciTegic.value.DoubleValue
-54.968

@<SCITEGIC>MOL_PROPERTY
W(SA)
SciTegic.value.DoubleValue
2.418

@<SCITEGIC>MOL_PROPERTY
Valence
SciTegic.value.DoubleValue
9.217

@<SCITEGIC>MOL_PROPERTY
Coulomb
SciTegic.value.DoubleValue
21.424

@<SCITEGIC>MOL_PROPERTY
VdW
SciTegic.value.DoubleValue
0.639

@<SCITEGIC>MOL_PROPERTY
VdW6
SciTegic.value.DoubleValue
-11.253

@<SCITEGIC>MOL_PROPERTY
VdW12
SciTegic.value.DoubleValue
11.892

@<SCITEGIC>MOL_PROPERTY
Bond
SciTegic.value.DoubleValue
0.349

@<SCITEGIC>MOL_PROPERTY
Angle
SciTegic.value.DoubleValue
3.016

@<SCITEGIC>MOL_PROPERTY
Pdih
SciTegic.value.DoubleValue
5.852

@<SCITEGIC>MOL_PROPERTY
Idih
SciTegic.value.DoubleValue
0.000

@<SCITEGIC>MOL_PROPERTY
Tether
SciTegic.value.DoubleValue
0.000

@<TRIPOS>MOLECULE
guest-s15_vm2.mol2 : vm2 ligand conformer 205
          29          28           1
SMALL
USER_CHARGES
 
@<TRIPOS>ATOM
       1    C1      18.915134   19.705096   20.200091 C.3        1 MOL1        -0.2426
       2    H1      19.353821   20.670575   20.479413 H          1 MOL1         0.0959
       3    H2      18.636985   19.767724   19.140117 H          1 MOL1         0.0959
       4    H3      17.995986   19.555232   20.781139 H          1 MOL1         0.0959
       5    C2      19.913921   18.550065   20.427789 C.3        1 MOL1        -0.1410
       6    H4      20.856577   18.775021   19.909685 H          1 MOL1         0.0948
       7    H5      19.515175   17.642875   19.952699 H          1 MOL1         0.0948
       8    C3      20.199728   18.235737   21.918299 C.3        1 MOL1        -0.1435
       9    H6      19.277513   17.906425   22.411818 H          1 MOL1         0.0948
      10    H7      20.871708   17.366944   21.945070 H          1 MOL1         0.0948
      11    C4      20.877158   19.387356   22.711120 C.3        1 MOL1        -0.1435
      12    H8      21.505709   19.973987   22.027248 H          1 MOL1         0.0948
      13    H9      21.576674   18.957867   23.439657 H          1 MOL1         0.0948
      14    C5      19.907179   20.343235   23.457369 C.3        1 MOL1        -0.1435
      15    H10     20.497727   21.163738   23.887749 H          1 MOL1         0.0948
      16    H11     19.228009   20.818321   22.740392 H          1 MOL1         0.0948
      17    C6      19.059229   19.706558   24.591623 C.3        1 MOL1        -0.1500
      18    H12     18.362462   18.961061   24.188938 H          1 MOL1         0.0948
      19    H13     18.421912   20.502598   24.998772 H          1 MOL1         0.0948
      20    C7      19.899214   19.101479   25.742765 C.3        1 MOL1         0.1162
      21    H14     20.898868   19.545135   25.706651 H          1 MOL1         0.0910
      22    C8      20.030503   17.573120   25.613412 C.3        1 MOL1        -0.2491
      23    H15     20.489143   17.287382   24.661127 H          1 MOL1         0.0959
      24    H16     20.660758   17.170716   26.415965 H          1 MOL1         0.0959
      25    H17     19.049711   17.085400   25.676029 H          1 MOL1         0.0959
      26    N1      19.333933   19.453355   27.091531 N.4        1 MOL1        -0.5987
      27    H18     19.280188   20.467512   27.224177 H          1 MOL1         0.3605
      28    H19     19.911969   19.077347   27.848639 H          1 MOL1         0.3605
      29    H20     18.389988   19.075915   27.211332 H          1 MOL1         0.3605
@<TRIPOS>BOND
    1     1     2    1
    2     1     3    1
    3     1     4    1
    4     1     5    1
    5     5     6    1
    6     5     7    1
    7     5     8    1
    8     8     9    1
    9     8    10    1
   10     8    11    1
   11    11    12    1
   12    11    13    1
   13    11    14    1
   14    14    15    1
   15    14    16    1
   16    14    17    1
   17    17    18    1
   18    17    19    1
   19    17    20    1
   20    20    21    1
   21    20    22    1
   22    22    23    1
   23    22    24    1
   24    22    25    1
   25    20    26    1
   26    26    27    1
   27    26    28    1
   28    26    29    1
@<TRIPOS>SUBSTRUCTURE
       1 MOL1            1 RESIDUE      1      MOL     
@<SCITEGIC>MOL_PROPERTY
VM2 Rank
SciTegic.value.IntegerValue
205

@<SCITEGIC>MOL_PROPERTY
Conf_Id
SciTegic.value.IntegerValue
278

@<SCITEGIC>MOL_PROPERTY
Probability
SciTegic.value.DoubleValue
0.00

@<SCITEGIC>MOL_PROPERTY
Sum Probability
SciTegic.value.DoubleValue
100.00

@<SCITEGIC>MOL_PROPERTY
Delta G
SciTegic.value.DoubleValue
7.423

@<SCITEGIC>MOL_PROPERTY
G
SciTegic.value.DoubleValue
41.125

@<SCITEGIC>MOL_PROPERTY
E
SciTegic.value.DoubleValue
2.911

@<SCITEGIC>MOL_PROPERTY
-TS
SciTegic.value.DoubleValue
38.214

@<SCITEGIC>MOL_PROPERTY
U+W
SciTegic.value.DoubleValue
-21.233

@<SCITEGIC>MOL_PROPERTY
U
SciTegic.value.DoubleValue
31.323

@<SCITEGIC>MOL_PROPERTY
W
SciTegic.value.DoubleValue
-52.557

@<SCITEGIC>MOL_PROPERTY
W(PB)
SciTegic.value.DoubleValue
-54.930

@<SCITEGIC>MOL_PROPERTY
W(SA)
SciTegic.value.DoubleValue
2.373

@<SCITEGIC>MOL_PROPERTY
Valence
SciTegic.value.DoubleValue
10.065

@<SCITEGIC>MOL_PROPERTY
Coulomb
SciTegic.value.DoubleValue
20.200

@<SCITEGIC>MOL_PROPERTY
VdW
SciTegic.value.DoubleValue
1.059

@<SCITEGIC>MOL_PROPERTY
VdW6
SciTegic.value.DoubleValue
-11.695

@<SCITEGIC>MOL_PROPERTY
VdW12
SciTegic.value.DoubleValue
12.753

@<SCITEGIC>MOL_PROPERTY
Bond
SciTegic.value.DoubleValue
0.384

@<SCITEGIC>MOL_PROPERTY
Angle
SciTegic.value.DoubleValue
2.930

@<SCITEGIC>MOL_PROPERTY
Pdih
SciTegic.value.DoubleValue
6.751

@<SCITEGIC>MOL_PROPERTY
Idih
SciTegic.value.DoubleValue
0.000

@<SCITEGIC>MOL_PROPERTY
Tether
SciTegic.value.DoubleValue
0.000

@<TRIPOS>MOLECULE
guest-s15_vm2.mol2 : vm2 ligand conformer 206
          29          28           1
SMALL
USER_CHARGES
 
@<TRIPOS>ATOM
       1    C1      18.394944   19.736890   20.812053 C.3        1 MOL1        -0.2426
       2    H1      17.983249   18.981066   21.490148 H          1 MOL1         0.0959
       3    H2      17.716131   20.599432   20.815555 H          1 MOL1         0.0959
       4    H3      18.391146   19.313629   19.799186 H          1 MOL1         0.0959
       5    C2      19.822949   20.166799   21.220829 C.3        1 MOL1        -0.1410
       6    H4      19.809216   20.711150   22.174415 H          1 MOL1         0.0948
       7    H5      20.185947   20.885849   20.473152 H          1 MOL1         0.0948
       8    C3      20.815178   18.979433   21.289177 C.3        1 MOL1        -0.1435
       9    H6      20.485550   18.170224   20.623073 H          1 MOL1         0.0948
      10    H7      21.776452   19.319906   20.880030 H          1 MOL1         0.0948
      11    C4      21.091863   18.417563   22.709541 C.3        1 MOL1        -0.1435
      12    H8      21.537630   19.197719   23.338679 H          1 MOL1         0.0948
      13    H9      21.874644   17.653705   22.604373 H          1 MOL1         0.0948
      14    C5      19.882183   17.750624   23.419656 C.3        1 MOL1        -0.1435
      15    H10     19.243258   17.261600   22.672250 H          1 MOL1         0.0948
      16    H11     20.256370   16.932569   24.049054 H          1 MOL1         0.0948
      17    C6      19.020687   18.695480   24.304075 C.3        1 MOL1        -0.1500
      18    H12     18.210984   18.107397   24.755838 H          1 MOL1         0.0948
      19    H13     18.527199   19.439765   23.671147 H          1 MOL1         0.0948
      20    C7      19.785461   19.438687   25.425451 C.3        1 MOL1         0.1162
      21    H14     20.572290   20.044262   24.967115 H          1 MOL1         0.0910
      22    C8      20.438742   18.469025   26.426088 C.3        1 MOL1        -0.2491
      23    H15     21.211618   17.860398   25.942389 H          1 MOL1         0.0959
      24    H16     20.923799   19.021917   27.239905 H          1 MOL1         0.0959
      25    H17     19.695059   17.794525   26.868364 H          1 MOL1         0.0959
      26    N1      18.883993   20.401499   26.147130 N.4        1 MOL1        -0.5987
      27    H18     19.394207   20.925704   26.863775 H          1 MOL1         0.3605
      28    H19     18.115243   19.914020   26.615232 H          1 MOL1         0.3605
      29    H20     18.470657   21.084637   25.505884 H          1 MOL1         0.3605
@<TRIPOS>BOND
    1     1     2    1
    2     1     3    1
    3     1     4    1
    4     1     5    1
    5     5     6    1
    6     5     7    1
    7     5     8    1
    8     8     9    1
    9     8    10    1
   10     8    11    1
   11    11    12    1
   12    11    13    1
   13    11    14    1
   14    14    15    1
   15    14    16    1
   16    14    17    1
   17    17    18    1
   18    17    19    1
   19    17    20    1
   20    20    21    1
   21    20    22    1
   22    22    23    1
   23    22    24    1
   24    22    25    1
   25    20    26    1
   26    26    27    1
   27    26    28    1
   28    26    29    1
@<TRIPOS>SUBSTRUCTURE
       1 MOL1            1 RESIDUE      1      MOL     
@<SCITEGIC>MOL_PROPERTY
VM2 Rank
SciTegic.value.IntegerValue
206

@<SCITEGIC>MOL_PROPERTY
Conf_Id
SciTegic.value.IntegerValue
1027

@<SCITEGIC>MOL_PROPERTY
Probability
SciTegic.value.DoubleValue
0.00

@<SCITEGIC>MOL_PROPERTY
Sum Probability
SciTegic.value.DoubleValue
100.00

@<SCITEGIC>MOL_PROPERTY
Delta G
SciTegic.value.DoubleValue
7.442

@<SCITEGIC>MOL_PROPERTY
G
SciTegic.value.DoubleValue
41.144

@<SCITEGIC>MOL_PROPERTY
E
SciTegic.value.DoubleValue
2.801

@<SCITEGIC>MOL_PROPERTY
-TS
SciTegic.value.DoubleValue
38.343

@<SCITEGIC>MOL_PROPERTY
U+W
SciTegic.value.DoubleValue
-21.344

@<SCITEGIC>MOL_PROPERTY
U
SciTegic.value.DoubleValue
31.596

@<SCITEGIC>MOL_PROPERTY
W
SciTegic.value.DoubleValue
-52.940

@<SCITEGIC>MOL_PROPERTY
W(PB)
SciTegic.value.DoubleValue
-55.316

@<SCITEGIC>MOL_PROPERTY
W(SA)
SciTegic.value.DoubleValue
2.376

@<SCITEGIC>MOL_PROPERTY
Valence
SciTegic.value.DoubleValue
9.790

@<SCITEGIC>MOL_PROPERTY
Coulomb
SciTegic.value.DoubleValue
20.847

@<SCITEGIC>MOL_PROPERTY
VdW
SciTegic.value.DoubleValue
0.959

@<SCITEGIC>MOL_PROPERTY
VdW6
SciTegic.value.DoubleValue
-11.919

@<SCITEGIC>MOL_PROPERTY
VdW12
SciTegic.value.DoubleValue
12.878

@<SCITEGIC>MOL_PROPERTY
Bond
SciTegic.value.DoubleValue
0.397

@<SCITEGIC>MOL_PROPERTY
Angle
SciTegic.value.DoubleValue
3.178

@<SCITEGIC>MOL_PROPERTY
Pdih
SciTegic.value.DoubleValue
6.214

@<SCITEGIC>MOL_PROPERTY
Idih
SciTegic.value.DoubleValue
0.000

@<SCITEGIC>MOL_PROPERTY
Tether
SciTegic.value.DoubleValue
0.000

@<TRIPOS>MOLECULE
guest-s15_vm2.mol2 : vm2 ligand conformer 207
          29          28           1
SMALL
USER_CHARGES
 
@<TRIPOS>ATOM
       1    C1      19.225729   17.956294   20.765750 C.3        1 MOL1        -0.2426
       2    H1      20.019246   17.497831   21.364585 H          1 MOL1         0.0959
       3    H2      18.259938   17.683231   21.210116 H          1 MOL1         0.0959
       4    H3      19.270148   17.507232   19.765149 H          1 MOL1         0.0959
       5    C2      19.379417   19.491815   20.672682 C.3        1 MOL1        -0.1410
       6    H4      18.612976   19.862875   19.977897 H          1 MOL1         0.0948
       7    H5      20.346721   19.750245   20.220051 H          1 MOL1         0.0948
       8    C3      19.204158   20.227453   22.026654 C.3        1 MOL1        -0.1435
       9    H6      18.789488   21.221797   21.810475 H          1 MOL1         0.0948
      10    H7      18.444601   19.723408   22.636933 H          1 MOL1         0.0948
      11    C4      20.516642   20.446241   22.828016 C.3        1 MOL1        -0.1435
      12    H8      20.324979   21.142081   23.653513 H          1 MOL1         0.0948
      13    H9      21.234609   20.971299   22.182978 H          1 MOL1         0.0948
      14    C5      21.204266   19.172036   23.382998 C.3        1 MOL1        -0.1435
      15    H10     21.590596   18.585087   22.540455 H          1 MOL1         0.0948
      16    H11     22.095246   19.477313   23.948802 H          1 MOL1         0.0948
      17    C6      20.338201   18.250237   24.285766 C.3        1 MOL1        -0.1500
      18    H12     20.935124   17.351145   24.488548 H          1 MOL1         0.0948
      19    H13     19.449391   17.897817   23.748601 H          1 MOL1         0.0948
      20    C7      19.926360   18.876091   25.638927 C.3        1 MOL1         0.1162
      21    H14     20.784754   19.424072   26.039325 H          1 MOL1         0.0910
      22    C8      19.544977   17.776762   26.643881 C.3        1 MOL1        -0.2491
      23    H15     18.695292   17.184931   26.280901 H          1 MOL1         0.0959
      24    H16     20.387468   17.095460   26.816451 H          1 MOL1         0.0959
      25    H17     19.269236   18.213604   27.611667 H          1 MOL1         0.0959
      26    N1      18.796251   19.859071   25.509326 N.4        1 MOL1        -0.5987
      27    H18     19.017895   20.588714   24.827619 H          1 MOL1         0.3605
      28    H19     18.593894   20.316713   26.402884 H          1 MOL1         0.3605
      29    H20     17.937501   19.396768   25.199611 H          1 MOL1         0.3605
@<TRIPOS>BOND
    1     1     2    1
    2     1     3    1
    3     1     4    1
    4     1     5    1
    5     5     6    1
    6     5     7    1
    7     5     8    1
    8     8     9    1
    9     8    10    1
   10     8    11    1
   11    11    12    1
   12    11    13    1
   13    11    14    1
   14    14    15    1
   15    14    16    1
   16    14    17    1
   17    17    18    1
   18    17    19    1
   19    17    20    1
   20    20    21    1
   21    20    22    1
   22    22    23    1
   23    22    24    1
   24    22    25    1
   25    20    26    1
   26    26    27    1
   27    26    28    1
   28    26    29    1
@<TRIPOS>SUBSTRUCTURE
       1 MOL1            1 RESIDUE      1      MOL     
@<SCITEGIC>MOL_PROPERTY
VM2 Rank
SciTegic.value.IntegerValue
207

@<SCITEGIC>MOL_PROPERTY
Conf_Id
SciTegic.value.IntegerValue
1319

@<SCITEGIC>MOL_PROPERTY
Probability
SciTegic.value.DoubleValue
0.00

@<SCITEGIC>MOL_PROPERTY
Sum Probability
SciTegic.value.DoubleValue
100.00

@<SCITEGIC>MOL_PROPERTY
Delta G
SciTegic.value.DoubleValue
7.494

@<SCITEGIC>MOL_PROPERTY
G
SciTegic.value.DoubleValue
41.196

@<SCITEGIC>MOL_PROPERTY
E
SciTegic.value.DoubleValue
2.598

@<SCITEGIC>MOL_PROPERTY
-TS
SciTegic.value.DoubleValue
38.598

@<SCITEGIC>MOL_PROPERTY
U+W
SciTegic.value.DoubleValue
-21.546

@<SCITEGIC>MOL_PROPERTY
U
SciTegic.value.DoubleValue
30.768

@<SCITEGIC>MOL_PROPERTY
W
SciTegic.value.DoubleValue
-52.314

@<SCITEGIC>MOL_PROPERTY
W(PB)
SciTegic.value.DoubleValue
-54.682

@<SCITEGIC>MOL_PROPERTY
W(SA)
SciTegic.value.DoubleValue
2.368

@<SCITEGIC>MOL_PROPERTY
Valence
SciTegic.value.DoubleValue
8.454

@<SCITEGIC>MOL_PROPERTY
Coulomb
SciTegic.value.DoubleValue
21.750

@<SCITEGIC>MOL_PROPERTY
VdW
SciTegic.value.DoubleValue
0.564

@<SCITEGIC>MOL_PROPERTY
VdW6
SciTegic.value.DoubleValue
-12.327

@<SCITEGIC>MOL_PROPERTY
VdW12
SciTegic.value.DoubleValue
12.891

@<SCITEGIC>MOL_PROPERTY
Bond
SciTegic.value.DoubleValue
0.393

@<SCITEGIC>MOL_PROPERTY
Angle
SciTegic.value.DoubleValue
3.308

@<SCITEGIC>MOL_PROPERTY
Pdih
SciTegic.value.DoubleValue
4.754

@<SCITEGIC>MOL_PROPERTY
Idih
SciTegic.value.DoubleValue
0.000

@<SCITEGIC>MOL_PROPERTY
Tether
SciTegic.value.DoubleValue
0.000

@<TRIPOS>MOLECULE
guest-s15_vm2.mol2 : vm2 ligand conformer 208
          29          28           1
SMALL
USER_CHARGES
 
@<TRIPOS>ATOM
       1    C1      19.040656   19.660788   19.781149 C.3        1 MOL1        -0.2426
       2    H1      20.002445   19.594597   19.256140 H          1 MOL1         0.0959
       3    H2      18.650657   18.643892   19.914116 H          1 MOL1         0.0959
       4    H3      18.339989   20.201289   19.131645 H          1 MOL1         0.0959
       5    C2      19.195957   20.389587   21.134836 C.3        1 MOL1        -0.1410
       6    H4      18.224390   20.423312   21.646739 H          1 MOL1         0.0948
       7    H5      19.479880   21.434175   20.944643 H          1 MOL1         0.0948
       8    C3      20.257858   19.745134   22.057826 C.3        1 MOL1        -0.1435
       9    H6      21.231794   19.751824   21.548952 H          1 MOL1         0.0948
      10    H7      20.386687   20.378110   22.943808 H          1 MOL1         0.0948
      11    C4      19.911738   18.291308   22.472146 C.3        1 MOL1        -0.1435
      12    H8      20.033316   17.647563   21.590400 H          1 MOL1         0.0948
      13    H9      18.856681   18.199031   22.761605 H          1 MOL1         0.0948
      14    C5      20.827994   17.746260   23.597423 C.3        1 MOL1        -0.1435
      15    H10     21.025677   16.685823   23.387890 H          1 MOL1         0.0948
      16    H11     21.809316   18.239249   23.558622 H          1 MOL1         0.0948
      17    C6      20.248644   17.831946   25.036308 C.3        1 MOL1        -0.1500
      18    H12     20.968707   17.338288   25.702560 H          1 MOL1         0.0948
      19    H13     19.326359   17.240000   25.104718 H          1 MOL1         0.0948
      20    C7      19.990161   19.262339   25.564079 C.3        1 MOL1         0.1162
      21    H14     20.819703   19.902340   25.248445 H          1 MOL1         0.0910
      22    C8      19.935655   19.266324   27.100528 C.3        1 MOL1        -0.2491
      23    H15     19.767558   20.281504   27.480824 H          1 MOL1         0.0959
      24    H16     19.126651   18.623948   27.470510 H          1 MOL1         0.0959
      25    H17     20.880480   18.905827   27.526108 H          1 MOL1         0.0959
      26    N1      18.727338   19.862315   25.009705 N.4        1 MOL1        -0.5987
      27    H18     17.903718   19.330916   25.304995 H          1 MOL1         0.3605
      28    H19     18.745905   19.865931   23.985368 H          1 MOL1         0.3605
      29    H20     18.600461   20.828012   25.326666 H          1 MOL1         0.3605
@<TRIPOS>BOND
    1     1     2    1
    2     1     3    1
    3     1     4    1
    4     1     5    1
    5     5     6    1
    6     5     7    1
    7     5     8    1
    8     8     9    1
    9     8    10    1
   10     8    11    1
   11    11    12    1
   12    11    13    1
   13    11    14    1
   14    14    15    1
   15    14    16    1
   16    14    17    1
   17    17    18    1
   18    17    19    1
   19    17    20    1
   20    20    21    1
   21    20    22    1
   22    22    23    1
   23    22    24    1
   24    22    25    1
   25    20    26    1
   26    26    27    1
   27    26    28    1
   28    26    29    1
@<TRIPOS>SUBSTRUCTURE
       1 MOL1            1 RESIDUE      1      MOL     
@<SCITEGIC>MOL_PROPERTY
VM2 Rank
SciTegic.value.IntegerValue
208

@<SCITEGIC>MOL_PROPERTY
Conf_Id
SciTegic.value.IntegerValue
1206

@<SCITEGIC>MOL_PROPERTY
Probability
SciTegic.value.DoubleValue
0.00

@<SCITEGIC>MOL_PROPERTY
Sum Probability
SciTegic.value.DoubleValue
100.00

@<SCITEGIC>MOL_PROPERTY
Delta G
SciTegic.value.DoubleValue
7.694

@<SCITEGIC>MOL_PROPERTY
G
SciTegic.value.DoubleValue
41.396

@<SCITEGIC>MOL_PROPERTY
E
SciTegic.value.DoubleValue
3.124

@<SCITEGIC>MOL_PROPERTY
-TS
SciTegic.value.DoubleValue
38.272

@<SCITEGIC>MOL_PROPERTY
U+W
SciTegic.value.DoubleValue
-21.020

@<SCITEGIC>MOL_PROPERTY
U
SciTegic.value.DoubleValue
30.361

@<SCITEGIC>MOL_PROPERTY
W
SciTegic.value.DoubleValue
-51.382

@<SCITEGIC>MOL_PROPERTY
W(PB)
SciTegic.value.DoubleValue
-53.822

@<SCITEGIC>MOL_PROPERTY
W(SA)
SciTegic.value.DoubleValue
2.441

@<SCITEGIC>MOL_PROPERTY
Valence
SciTegic.value.DoubleValue
7.956

@<SCITEGIC>MOL_PROPERTY
Coulomb
SciTegic.value.DoubleValue
21.427

@<SCITEGIC>MOL_PROPERTY
VdW
SciTegic.value.DoubleValue
0.978

@<SCITEGIC>MOL_PROPERTY
VdW6
SciTegic.value.DoubleValue
-11.470

@<SCITEGIC>MOL_PROPERTY
VdW12
SciTegic.value.DoubleValue
12.448

@<SCITEGIC>MOL_PROPERTY
Bond
SciTegic.value.DoubleValue
0.321

@<SCITEGIC>MOL_PROPERTY
Angle
SciTegic.value.DoubleValue
2.290

@<SCITEGIC>MOL_PROPERTY
Pdih
SciTegic.value.DoubleValue
5.345

@<SCITEGIC>MOL_PROPERTY
Idih
SciTegic.value.DoubleValue
0.000

@<SCITEGIC>MOL_PROPERTY
Tether
SciTegic.value.DoubleValue
0.000

@<TRIPOS>MOLECULE
guest-s15_vm2.mol2 : vm2 ligand conformer 209
          29          28           1
SMALL
USER_CHARGES
 
@<TRIPOS>ATOM
       1    C1      19.234085   20.856908   21.492499 C.3        1 MOL1        -0.2426
       2    H1      18.260219   20.889038   20.986965 H          1 MOL1         0.0959
       3    H2      19.051873   20.708230   22.560934 H          1 MOL1         0.0959
       4    H3      19.707842   21.838957   21.366236 H          1 MOL1         0.0959
       5    C2      20.126178   19.743968   20.896210 C.3        1 MOL1        -0.1410
       6    H4      21.133932   19.777578   21.331387 H          1 MOL1         0.0948
       7    H5      20.256572   19.956454   19.825846 H          1 MOL1         0.0948
       8    C3      19.520371   18.325746   21.045033 C.3        1 MOL1        -0.1435
       9    H6      18.423157   18.377410   21.022542 H          1 MOL1         0.0948
      10    H7      19.803391   17.746956   20.154940 H          1 MOL1         0.0948
      11    C4      19.991178   17.518130   22.284917 C.3        1 MOL1        -0.1435
      12    H8      21.082779   17.396003   22.262633 H          1 MOL1         0.0948
      13    H9      19.582953   16.503022   22.183172 H          1 MOL1         0.0948
      14    C5      19.539332   18.071920   23.660679 C.3        1 MOL1        -0.1435
      15    H10     18.585340   18.603282   23.553515 H          1 MOL1         0.0948
      16    H11     19.335469   17.214487   24.315303 H          1 MOL1         0.0948
      17    C6      20.611491   18.966649   24.342278 C.3        1 MOL1        -0.1500
      18    H12     20.899231   19.784873   23.673413 H          1 MOL1         0.0948
      19    H13     21.524528   18.376628   24.496398 H          1 MOL1         0.0948
      20    C7      20.185347   19.575110   25.699482 C.3        1 MOL1         0.1162
      21    H14     21.018148   20.189342   26.055714 H          1 MOL1         0.0910
      22    C8      19.918937   18.494268   26.761615 C.3        1 MOL1        -0.2491
      23    H15     19.029971   17.899218   26.520975 H          1 MOL1         0.0959
      24    H16     20.775351   17.814271   26.849487 H          1 MOL1         0.0959
      25    H17     19.757567   18.954205   27.744264 H          1 MOL1         0.0959
      26    N1      19.009082   20.503300   25.571288 N.4        1 MOL1        -0.5987
      27    H18     18.178247   20.004905   25.242742 H          1 MOL1         0.3605
      28    H19     19.199843   21.262012   24.910917 H          1 MOL1         0.3605
      29    H20     18.773988   20.932404   26.470985 H          1 MOL1         0.3605
@<TRIPOS>BOND
    1     1     2    1
    2     1     3    1
    3     1     4    1
    4     1     5    1
    5     5     6    1
    6     5     7    1
    7     5     8    1
    8     8     9    1
    9     8    10    1
   10     8    11    1
   11    11    12    1
   12    11    13    1
   13    11    14    1
   14    14    15    1
   15    14    16    1
   16    14    17    1
   17    17    18    1
   18    17    19    1
   19    17    20    1
   20    20    21    1
   21    20    22    1
   22    22    23    1
   23    22    24    1
   24    22    25    1
   25    20    26    1
   26    26    27    1
   27    26    28    1
   28    26    29    1
@<TRIPOS>SUBSTRUCTURE
       1 MOL1            1 RESIDUE      1      MOL     
@<SCITEGIC>MOL_PROPERTY
VM2 Rank
SciTegic.value.IntegerValue
209

@<SCITEGIC>MOL_PROPERTY
Conf_Id
SciTegic.value.IntegerValue
126

@<SCITEGIC>MOL_PROPERTY
Probability
SciTegic.value.DoubleValue
0.00

@<SCITEGIC>MOL_PROPERTY
Sum Probability
SciTegic.value.DoubleValue
100.00

@<SCITEGIC>MOL_PROPERTY
Delta G
SciTegic.value.DoubleValue
7.697

@<SCITEGIC>MOL_PROPERTY
G
SciTegic.value.DoubleValue
41.400

@<SCITEGIC>MOL_PROPERTY
E
SciTegic.value.DoubleValue
2.836

@<SCITEGIC>MOL_PROPERTY
-TS
SciTegic.value.DoubleValue
38.564

@<SCITEGIC>MOL_PROPERTY
U+W
SciTegic.value.DoubleValue
-21.309

@<SCITEGIC>MOL_PROPERTY
U
SciTegic.value.DoubleValue
31.481

@<SCITEGIC>MOL_PROPERTY
W
SciTegic.value.DoubleValue
-52.790

@<SCITEGIC>MOL_PROPERTY
W(PB)
SciTegic.value.DoubleValue
-55.141

@<SCITEGIC>MOL_PROPERTY
W(SA)
SciTegic.value.DoubleValue
2.351

@<SCITEGIC>MOL_PROPERTY
Valence
SciTegic.value.DoubleValue
9.331

@<SCITEGIC>MOL_PROPERTY
Coulomb
SciTegic.value.DoubleValue
21.339

@<SCITEGIC>MOL_PROPERTY
VdW
SciTegic.value.DoubleValue
0.810

@<SCITEGIC>MOL_PROPERTY
VdW6
SciTegic.value.DoubleValue
-11.777

@<SCITEGIC>MOL_PROPERTY
VdW12
SciTegic.value.DoubleValue
12.587

@<SCITEGIC>MOL_PROPERTY
Bond
SciTegic.value.DoubleValue
0.375

@<SCITEGIC>MOL_PROPERTY
Angle
SciTegic.value.DoubleValue
2.763

@<SCITEGIC>MOL_PROPERTY
Pdih
SciTegic.value.DoubleValue
6.194

@<SCITEGIC>MOL_PROPERTY
Idih
SciTegic.value.DoubleValue
0.000

@<SCITEGIC>MOL_PROPERTY
Tether
SciTegic.value.DoubleValue
0.000

@<TRIPOS>MOLECULE
guest-s15_vm2.mol2 : vm2 ligand conformer 210
          29          28           1
SMALL
USER_CHARGES
 
@<TRIPOS>ATOM
       1    C1      18.174169   19.327262   20.125080 C.3        1 MOL1        -0.2426
       2    H1      18.368797   18.349250   19.665850 H          1 MOL1         0.0959
       3    H2      17.305016   19.226804   20.788163 H          1 MOL1         0.0959
       4    H3      17.907193   20.028409   19.323719 H          1 MOL1         0.0959
       5    C2      19.409546   19.831352   20.900453 C.3        1 MOL1        -0.1410
       6    H4      19.196046   20.825018   21.318447 H          1 MOL1         0.0948
       7    H5      20.251263   19.955247   20.204607 H          1 MOL1         0.0948
       8    C3      19.808558   18.859602   22.032422 C.3        1 MOL1        -0.1435
       9    H6      18.955349   18.714965   22.703906 H          1 MOL1         0.0948
      10    H7      20.030625   17.872984   21.602344 H          1 MOL1         0.0948
      11    C4      21.047381   19.363439   22.812418 C.3        1 MOL1        -0.1435
      12    H8      20.911221   20.403243   23.137719 H          1 MOL1         0.0948
      13    H9      21.898114   19.383886   22.116965 H          1 MOL1         0.0948
      14    C5      21.422816   18.463341   24.018900 C.3        1 MOL1        -0.1435
      15    H10     21.013407   17.452349   23.892664 H          1 MOL1         0.0948
      16    H11     22.513448   18.330227   24.004306 H          1 MOL1         0.0948
      17    C6      21.054950   19.038366   25.417632 C.3        1 MOL1        -0.1500
      18    H12     21.523344   20.024093   25.537044 H          1 MOL1         0.0948
      19    H13     21.526497   18.400851   26.177136 H          1 MOL1         0.0948
      20    C7      19.551979   19.151579   25.774112 C.3        1 MOL1         0.1162
      21    H14     19.497188   19.470090   26.819689 H          1 MOL1         0.0910
      22    C8      18.825877   17.798255   25.676878 C.3        1 MOL1        -0.2491
      23    H15     19.336896   17.040991   26.284241 H          1 MOL1         0.0959
      24    H16     17.798759   17.885879   26.051617 H          1 MOL1         0.0959
      25    H17     18.776644   17.430745   24.646214 H          1 MOL1         0.0959
      26    N1      18.840724   20.222804   24.996106 N.4        1 MOL1        -0.5987
      27    H18     18.904055   20.044958   23.990381 H          1 MOL1         0.3605
      28    H19     19.250452   21.144695   25.172653 H          1 MOL1         0.3605
      29    H20     17.849399   20.274161   25.248251 H          1 MOL1         0.3605
@<TRIPOS>BOND
    1     1     2    1
    2     1     3    1
    3     1     4    1
    4     1     5    1
    5     5     6    1
    6     5     7    1
    7     5     8    1
    8     8     9    1
    9     8    10    1
   10     8    11    1
   11    11    12    1
   12    11    13    1
   13    11    14    1
   14    14    15    1
   15    14    16    1
   16    14    17    1
   17    17    18    1
   18    17    19    1
   19    17    20    1
   20    20    21    1
   21    20    22    1
   22    22    23    1
   23    22    24    1
   24    22    25    1
   25    20    26    1
   26    26    27    1
   27    26    28    1
   28    26    29    1
@<TRIPOS>SUBSTRUCTURE
       1 MOL1            1 RESIDUE      1      MOL     
@<SCITEGIC>MOL_PROPERTY
VM2 Rank
SciTegic.value.IntegerValue
210

@<SCITEGIC>MOL_PROPERTY
Conf_Id
SciTegic.value.IntegerValue
880

@<SCITEGIC>MOL_PROPERTY
Probability
SciTegic.value.DoubleValue
0.00

@<SCITEGIC>MOL_PROPERTY
Sum Probability
SciTegic.value.DoubleValue
100.00

@<SCITEGIC>MOL_PROPERTY
Delta G
SciTegic.value.DoubleValue
7.848

@<SCITEGIC>MOL_PROPERTY
G
SciTegic.value.DoubleValue
41.550

@<SCITEGIC>MOL_PROPERTY
E
SciTegic.value.DoubleValue
3.004

@<SCITEGIC>MOL_PROPERTY
-TS
SciTegic.value.DoubleValue
38.546

@<SCITEGIC>MOL_PROPERTY
U+W
SciTegic.value.DoubleValue
-21.140

@<SCITEGIC>MOL_PROPERTY
U
SciTegic.value.DoubleValue
30.268

@<SCITEGIC>MOL_PROPERTY
W
SciTegic.value.DoubleValue
-51.409

@<SCITEGIC>MOL_PROPERTY
W(PB)
SciTegic.value.DoubleValue
-53.818

@<SCITEGIC>MOL_PROPERTY
W(SA)
SciTegic.value.DoubleValue
2.410

@<SCITEGIC>MOL_PROPERTY
Valence
SciTegic.value.DoubleValue
8.045

@<SCITEGIC>MOL_PROPERTY
Coulomb
SciTegic.value.DoubleValue
21.611

@<SCITEGIC>MOL_PROPERTY
VdW
SciTegic.value.DoubleValue
0.612

@<SCITEGIC>MOL_PROPERTY
VdW6
SciTegic.value.DoubleValue
-11.609

@<SCITEGIC>MOL_PROPERTY
VdW12
SciTegic.value.DoubleValue
12.221

@<SCITEGIC>MOL_PROPERTY
Bond
SciTegic.value.DoubleValue
0.344

@<SCITEGIC>MOL_PROPERTY
Angle
SciTegic.value.DoubleValue
2.670

@<SCITEGIC>MOL_PROPERTY
Pdih
SciTegic.value.DoubleValue
5.031

@<SCITEGIC>MOL_PROPERTY
Idih
SciTegic.value.DoubleValue
0.000

@<SCITEGIC>MOL_PROPERTY
Tether
SciTegic.value.DoubleValue
0.000

@<TRIPOS>MOLECULE
guest-s15_vm2.mol2 : vm2 ligand conformer 211
          29          28           1
SMALL
USER_CHARGES
 
@<TRIPOS>ATOM
       1    C1      19.953761   20.323706   20.030720 C.3        1 MOL1        -0.2426
       2    H1      18.998044   20.761847   19.714928 H          1 MOL1         0.0959
       3    H2      20.336330   20.919426   20.867109 H          1 MOL1         0.0959
       4    H3      20.659404   20.427200   19.196310 H          1 MOL1         0.0959
       5    C2      19.778000   18.834825   20.410084 C.3        1 MOL1        -0.1410
       6    H4      20.752434   18.380391   20.637088 H          1 MOL1         0.0948
       7    H5      19.395295   18.302632   19.527944 H          1 MOL1         0.0948
       8    C3      18.792738   18.617249   21.587252 C.3        1 MOL1        -0.1435
       9    H6      18.071067   19.444225   21.637019 H          1 MOL1         0.0948
      10    H7      18.197310   17.719030   21.372590 H          1 MOL1         0.0948
      11    C4      19.463380   18.412573   22.970359 C.3        1 MOL1        -0.1435
      12    H8      20.101319   17.518661   22.938427 H          1 MOL1         0.0948
      13    H9      18.664159   18.202235   23.689552 H          1 MOL1         0.0948
      14    C5      20.293568   19.623619   23.460114 C.3        1 MOL1        -0.1435
      15    H10     21.073460   19.838224   22.719219 H          1 MOL1         0.0948
      16    H11     19.657864   20.518221   23.497499 H          1 MOL1         0.0948
      17    C6      21.012085   19.420012   24.824668 C.3        1 MOL1        -0.1500
      18    H12     21.601637   20.325573   25.018702 H          1 MOL1         0.0948
      19    H13     21.749715   18.611658   24.734572 H          1 MOL1         0.0948
      20    C7      20.125334   19.177703   26.073824 C.3        1 MOL1         0.1162
      21    H14     20.689091   19.550456   26.934611 H          1 MOL1         0.0910
      22    C8      19.873655   17.681617   26.339092 C.3        1 MOL1        -0.2491
      23    H15     19.285458   17.207263   25.548148 H          1 MOL1         0.0959
      24    H16     20.823142   17.139039   26.425789 H          1 MOL1         0.0959
      25    H17     19.332373   17.547155   27.283602 H          1 MOL1         0.0959
      26    N1      18.843481   19.964696   26.057887 N.4        1 MOL1        -0.5987
      27    H18     19.024343   20.969205   25.975010 H          1 MOL1         0.3605
      28    H19     18.302832   19.819288   26.915321 H          1 MOL1         0.3605
      29    H20     18.254425   19.691484   25.267369 H          1 MOL1         0.3605
@<TRIPOS>BOND
    1     1     2    1
    2     1     3    1
    3     1     4    1
    4     1     5    1
    5     5     6    1
    6     5     7    1
    7     5     8    1
    8     8     9    1
    9     8    10    1
   10     8    11    1
   11    11    12    1
   12    11    13    1
   13    11    14    1
   14    14    15    1
   15    14    16    1
   16    14    17    1
   17    17    18    1
   18    17    19    1
   19    17    20    1
   20    20    21    1
   21    20    22    1
   22    22    23    1
   23    22    24    1
   24    22    25    1
   25    20    26    1
   26    26    27    1
   27    26    28    1
   28    26    29    1
@<TRIPOS>SUBSTRUCTURE
       1 MOL1            1 RESIDUE      1      MOL     
@<SCITEGIC>MOL_PROPERTY
VM2 Rank
SciTegic.value.IntegerValue
211

@<SCITEGIC>MOL_PROPERTY
Conf_Id
SciTegic.value.IntegerValue
191

@<SCITEGIC>MOL_PROPERTY
Probability
SciTegic.value.DoubleValue
0.00

@<SCITEGIC>MOL_PROPERTY
Sum Probability
SciTegic.value.DoubleValue
100.00

@<SCITEGIC>MOL_PROPERTY
Delta G
SciTegic.value.DoubleValue
7.857

@<SCITEGIC>MOL_PROPERTY
G
SciTegic.value.DoubleValue
41.560

@<SCITEGIC>MOL_PROPERTY
E
SciTegic.value.DoubleValue
3.396

@<SCITEGIC>MOL_PROPERTY
-TS
SciTegic.value.DoubleValue
38.163

@<SCITEGIC>MOL_PROPERTY
U+W
SciTegic.value.DoubleValue
-20.748

@<SCITEGIC>MOL_PROPERTY
U
SciTegic.value.DoubleValue
31.583

@<SCITEGIC>MOL_PROPERTY
W
SciTegic.value.DoubleValue
-52.331

@<SCITEGIC>MOL_PROPERTY
W(PB)
SciTegic.value.DoubleValue
-54.756

@<SCITEGIC>MOL_PROPERTY
W(SA)
SciTegic.value.DoubleValue
2.425

@<SCITEGIC>MOL_PROPERTY
Valence
SciTegic.value.DoubleValue
9.577

@<SCITEGIC>MOL_PROPERTY
Coulomb
SciTegic.value.DoubleValue
20.656

@<SCITEGIC>MOL_PROPERTY
VdW
SciTegic.value.DoubleValue
1.349

@<SCITEGIC>MOL_PROPERTY
VdW6
SciTegic.value.DoubleValue
-11.328

@<SCITEGIC>MOL_PROPERTY
VdW12
SciTegic.value.DoubleValue
12.677

@<SCITEGIC>MOL_PROPERTY
Bond
SciTegic.value.DoubleValue
0.393

@<SCITEGIC>MOL_PROPERTY
Angle
SciTegic.value.DoubleValue
3.220

@<SCITEGIC>MOL_PROPERTY
Pdih
SciTegic.value.DoubleValue
5.965

@<SCITEGIC>MOL_PROPERTY
Idih
SciTegic.value.DoubleValue
0.000

@<SCITEGIC>MOL_PROPERTY
Tether
SciTegic.value.DoubleValue
0.000

@<TRIPOS>MOLECULE
guest-s15_vm2.mol2 : vm2 ligand conformer 212
          29          28           1
SMALL
USER_CHARGES
 
@<TRIPOS>ATOM
       1    C1      19.459064   20.884697   21.731286 C.3        1 MOL1        -0.2426
       2    H1      20.026993   21.167657   22.625529 H          1 MOL1         0.0959
       3    H2      19.350547   21.783578   21.110674 H          1 MOL1         0.0959
       4    H3      18.450967   20.578953   22.028262 H          1 MOL1         0.0959
       5    C2      20.179475   19.774396   20.936479 C.3        1 MOL1        -0.1410
       6    H4      21.085151   20.208986   20.490735 H          1 MOL1         0.0948
       7    H5      19.551099   19.458565   20.092173 H          1 MOL1         0.0948
       8    C3      20.602122   18.535766   21.768743 C.3        1 MOL1        -0.1435
       9    H6      21.266580   17.940075   21.127650 H          1 MOL1         0.0948
      10    H7      21.227834   18.831357   22.617648 H          1 MOL1         0.0948
      11    C4      19.447198   17.597452   22.214082 C.3        1 MOL1        -0.1435
      12    H8      19.869812   16.594814   22.367289 H          1 MOL1         0.0948
      13    H9      18.734863   17.486725   21.385136 H          1 MOL1         0.0948
      14    C5      18.669786   17.977243   23.504214 C.3        1 MOL1        -0.1435
      15    H10     18.098782   18.899573   23.365129 H          1 MOL1         0.0948
      16    H11     17.909415   17.198936   23.657050 H          1 MOL1         0.0948
      17    C6      19.534914   18.042677   24.792469 C.3        1 MOL1        -0.1500
      18    H12     20.352181   17.313215   24.716596 H          1 MOL1         0.0948
      19    H13     18.923953   17.719183   25.645717 H          1 MOL1         0.0948
      20    C7      20.106708   19.442788   25.110969 C.3        1 MOL1         0.1162
      21    H14     20.635429   19.817377   24.232026 H          1 MOL1         0.0910
      22    C8      21.109592   19.357863   26.272169 C.3        1 MOL1        -0.2491
      23    H15     20.627996   18.989791   27.186793 H          1 MOL1         0.0959
      24    H16     21.935911   18.679944   26.024443 H          1 MOL1         0.0959
      25    H17     21.541071   20.343564   26.485728 H          1 MOL1         0.0959
      26    N1      19.027141   20.443117   25.423589 N.4        1 MOL1        -0.5987
      27    H18     19.419508   21.369155   25.616283 H          1 MOL1         0.3605
      28    H19     18.487849   20.162119   26.246938 H          1 MOL1         0.3605
      29    H20     18.371751   20.541224   24.643878 H          1 MOL1         0.3605
@<TRIPOS>BOND
    1     1     2    1
    2     1     3    1
    3     1     4    1
    4     1     5    1
    5     5     6    1
    6     5     7    1
    7     5     8    1
    8     8     9    1
    9     8    10    1
   10     8    11    1
   11    11    12    1
   12    11    13    1
   13    11    14    1
   14    14    15    1
   15    14    16    1
   16    14    17    1
   17    17    18    1
   18    17    19    1
   19    17    20    1
   20    20    21    1
   21    20    22    1
   22    22    23    1
   23    22    24    1
   24    22    25    1
   25    20    26    1
   26    26    27    1
   27    26    28    1
   28    26    29    1
@<TRIPOS>SUBSTRUCTURE
       1 MOL1            1 RESIDUE      1      MOL     
@<SCITEGIC>MOL_PROPERTY
VM2 Rank
SciTegic.value.IntegerValue
212

@<SCITEGIC>MOL_PROPERTY
Conf_Id
SciTegic.value.IntegerValue
1625

@<SCITEGIC>MOL_PROPERTY
Probability
SciTegic.value.DoubleValue
0.00

@<SCITEGIC>MOL_PROPERTY
Sum Probability
SciTegic.value.DoubleValue
100.00

@<SCITEGIC>MOL_PROPERTY
Delta G
SciTegic.value.DoubleValue
7.983

@<SCITEGIC>MOL_PROPERTY
G
SciTegic.value.DoubleValue
41.685

@<SCITEGIC>MOL_PROPERTY
E
SciTegic.value.DoubleValue
3.119

@<SCITEGIC>MOL_PROPERTY
-TS
SciTegic.value.DoubleValue
38.566

@<SCITEGIC>MOL_PROPERTY
U+W
SciTegic.value.DoubleValue
-21.026

@<SCITEGIC>MOL_PROPERTY
U
SciTegic.value.DoubleValue
31.493

@<SCITEGIC>MOL_PROPERTY
W
SciTegic.value.DoubleValue
-52.520

@<SCITEGIC>MOL_PROPERTY
W(PB)
SciTegic.value.DoubleValue
-54.860

@<SCITEGIC>MOL_PROPERTY
W(SA)
SciTegic.value.DoubleValue
2.341

@<SCITEGIC>MOL_PROPERTY
Valence
SciTegic.value.DoubleValue
9.477

@<SCITEGIC>MOL_PROPERTY
Coulomb
SciTegic.value.DoubleValue
21.744

@<SCITEGIC>MOL_PROPERTY
VdW
SciTegic.value.DoubleValue
0.271

@<SCITEGIC>MOL_PROPERTY
VdW6
SciTegic.value.DoubleValue
-12.153

@<SCITEGIC>MOL_PROPERTY
VdW12
SciTegic.value.DoubleValue
12.425

@<SCITEGIC>MOL_PROPERTY
Bond
SciTegic.value.DoubleValue
0.389

@<SCITEGIC>MOL_PROPERTY
Angle
SciTegic.value.DoubleValue
3.717

@<SCITEGIC>MOL_PROPERTY
Pdih
SciTegic.value.DoubleValue
5.371

@<SCITEGIC>MOL_PROPERTY
Idih
SciTegic.value.DoubleValue
0.000

@<SCITEGIC>MOL_PROPERTY
Tether
SciTegic.value.DoubleValue
0.000

@<TRIPOS>MOLECULE
guest-s15_vm2.mol2 : vm2 ligand conformer 213
          29          28           1
SMALL
USER_CHARGES
 
@<TRIPOS>ATOM
       1    C1      20.527614   19.726620   20.291179 C.3        1 MOL1        -0.2426
       2    H1      21.097603   18.806595   20.466284 H          1 MOL1         0.0959
       3    H2      20.645805   19.984935   19.230936 H          1 MOL1         0.0959
       4    H3      20.971534   20.535015   20.886434 H          1 MOL1         0.0959
       5    C2      19.035065   19.533635   20.635055 C.3        1 MOL1        -0.1410
       6    H4      18.651635   18.645385   20.113906 H          1 MOL1         0.0948
       7    H5      18.471123   20.387497   20.234295 H          1 MOL1         0.0948
       8    C3      18.734675   19.421278   22.151363 C.3        1 MOL1        -0.1435
       9    H6      19.022360   20.351745   22.654302 H          1 MOL1         0.0948
      10    H7      17.643318   19.355710   22.259777 H          1 MOL1         0.0948
      11    C4      19.358343   18.183896   22.854957 C.3        1 MOL1        -0.1435
      12    H8      19.395709   17.348367   22.142558 H          1 MOL1         0.0948
      13    H9      18.680909   17.842137   23.646429 H          1 MOL1         0.0948
      14    C5      20.773171   18.389376   23.464953 C.3        1 MOL1        -0.1435
      15    H10     21.100647   17.437794   23.904474 H          1 MOL1         0.0948
      16    H11     21.491006   18.586612   22.661177 H          1 MOL1         0.0948
      17    C6      20.925313   19.515703   24.529990 C.3        1 MOL1        -0.1500
      18    H12     20.780733   20.496657   24.061289 H          1 MOL1         0.0948
      19    H13     21.972048   19.514695   24.861285 H          1 MOL1         0.0948
      20    C7      20.039979   19.422460   25.798595 C.3        1 MOL1         0.1162
      21    H14     20.424756   20.160464   26.509182 H          1 MOL1         0.0910
      22    C8      20.130647   18.044593   26.477336 C.3        1 MOL1        -0.2491
      23    H15     19.679839   17.257785   25.861129 H          1 MOL1         0.0959
      24    H16     21.176493   17.774424   26.668963 H          1 MOL1         0.0959
      25    H17     19.608049   18.056405   27.441606 H          1 MOL1         0.0959
      26    N1      18.611192   19.818439   25.550572 N.4        1 MOL1        -0.5987
      27    H18     18.178732   19.210874   24.851084 H          1 MOL1         0.3605
      28    H19     18.545182   20.780594   25.206765 H          1 MOL1         0.3605
      29    H20     18.052425   19.759363   26.406739 H          1 MOL1         0.3605
@<TRIPOS>BOND
    1     1     2    1
    2     1     3    1
    3     1     4    1
    4     1     5    1
    5     5     6    1
    6     5     7    1
    7     5     8    1
    8     8     9    1
    9     8    10    1
   10     8    11    1
   11    11    12    1
   12    11    13    1
   13    11    14    1
   14    14    15    1
   15    14    16    1
   16    14    17    1
   17    17    18    1
   18    17    19    1
   19    17    20    1
   20    20    21    1
   21    20    22    1
   22    22    23    1
   23    22    24    1
   24    22    25    1
   25    20    26    1
   26    26    27    1
   27    26    28    1
   28    26    29    1
@<TRIPOS>SUBSTRUCTURE
       1 MOL1            1 RESIDUE      1      MOL     
@<SCITEGIC>MOL_PROPERTY
VM2 Rank
SciTegic.value.IntegerValue
213

@<SCITEGIC>MOL_PROPERTY
Conf_Id
SciTegic.value.IntegerValue
701

@<SCITEGIC>MOL_PROPERTY
Probability
SciTegic.value.DoubleValue
0.00

@<SCITEGIC>MOL_PROPERTY
Sum Probability
SciTegic.value.DoubleValue
100.00

@<SCITEGIC>MOL_PROPERTY
Delta G
SciTegic.value.DoubleValue
8.030

@<SCITEGIC>MOL_PROPERTY
G
SciTegic.value.DoubleValue
41.733

@<SCITEGIC>MOL_PROPERTY
E
SciTegic.value.DoubleValue
3.077

@<SCITEGIC>MOL_PROPERTY
-TS
SciTegic.value.DoubleValue
38.656

@<SCITEGIC>MOL_PROPERTY
U+W
SciTegic.value.DoubleValue
-21.068

@<SCITEGIC>MOL_PROPERTY
U
SciTegic.value.DoubleValue
31.482

@<SCITEGIC>MOL_PROPERTY
W
SciTegic.value.DoubleValue
-52.550

@<SCITEGIC>MOL_PROPERTY
W(PB)
SciTegic.value.DoubleValue
-54.905

@<SCITEGIC>MOL_PROPERTY
W(SA)
SciTegic.value.DoubleValue
2.356

@<SCITEGIC>MOL_PROPERTY
Valence
SciTegic.value.DoubleValue
8.795

@<SCITEGIC>MOL_PROPERTY
Coulomb
SciTegic.value.DoubleValue
21.891

@<SCITEGIC>MOL_PROPERTY
VdW
SciTegic.value.DoubleValue
0.796

@<SCITEGIC>MOL_PROPERTY
VdW6
SciTegic.value.DoubleValue
-12.959

@<SCITEGIC>MOL_PROPERTY
VdW12
SciTegic.value.DoubleValue
13.755

@<SCITEGIC>MOL_PROPERTY
Bond
SciTegic.value.DoubleValue
0.475

@<SCITEGIC>MOL_PROPERTY
Angle
SciTegic.value.DoubleValue
3.847

@<SCITEGIC>MOL_PROPERTY
Pdih
SciTegic.value.DoubleValue
4.473

@<SCITEGIC>MOL_PROPERTY
Idih
SciTegic.value.DoubleValue
0.000

@<SCITEGIC>MOL_PROPERTY
Tether
SciTegic.value.DoubleValue
0.000

@<TRIPOS>MOLECULE
guest-s15_vm2.mol2 : vm2 ligand conformer 214
          29          28           1
SMALL
USER_CHARGES
 
@<TRIPOS>ATOM
       1    C1      19.630232   18.941267   19.719726 C.3        1 MOL1        -0.2426
       2    H1      19.620279   19.994999   19.412220 H          1 MOL1         0.0959
       3    H2      20.673183   18.636777   19.871870 H          1 MOL1         0.0959
       4    H3      19.230229   18.345220   18.889292 H          1 MOL1         0.0959
       5    C2      18.785019   18.726896   20.995589 C.3        1 MOL1        -0.1410
       6    H4      18.835158   17.671660   21.298259 H          1 MOL1         0.0948
       7    H5      17.730833   18.929695   20.760431 H          1 MOL1         0.0948
       8    C3      19.213717   19.630604   22.176383 C.3        1 MOL1        -0.1435
       9    H6      19.134622   20.684638   21.876190 H          1 MOL1         0.0948
      10    H7      18.496911   19.492965   22.993869 H          1 MOL1         0.0948
      11    C4      20.651073   19.343232   22.679702 C.3        1 MOL1        -0.1435
      12    H8      21.358457   19.627851   21.889470 H          1 MOL1         0.0948
      13    H9      20.801286   18.267341   22.837959 H          1 MOL1         0.0948
      14    C5      21.016117   20.135661   23.961082 C.3        1 MOL1        -0.1435
      15    H10     22.011227   20.574127   23.802880 H          1 MOL1         0.0948
      16    H11     20.347934   20.997428   24.089746 H          1 MOL1         0.0948
      17    C6      21.094416   19.297635   25.270415 C.3        1 MOL1        -0.1500
      18    H12     21.545588   19.938965   26.038828 H          1 MOL1         0.0948
      19    H13     21.803091   18.469649   25.137055 H          1 MOL1         0.0948
      20    C7      19.768534   18.753971   25.861118 C.3        1 MOL1         0.1162
      21    H14     19.972626   18.511977   26.908728 H          1 MOL1         0.0910
      22    C8      19.304624   17.444232   25.199145 C.3        1 MOL1        -0.2491
      23    H15     20.108924   16.698370   25.206787 H          1 MOL1         0.0959
      24    H16     18.456786   17.019239   25.750139 H          1 MOL1         0.0959
      25    H17     18.985237   17.589841   24.163720 H          1 MOL1         0.0959
      26    N1      18.672267   19.782502   25.890841 N.4        1 MOL1        -0.5987
      27    H18     18.955993   20.614140   26.416902 H          1 MOL1         0.3605
      28    H19     17.824813   19.414254   26.332394 H          1 MOL1         0.3605
      29    H20     18.426434   20.084426   24.945498 H          1 MOL1         0.3605
@<TRIPOS>BOND
    1     1     2    1
    2     1     3    1
    3     1     4    1
    4     1     5    1
    5     5     6    1
    6     5     7    1
    7     5     8    1
    8     8     9    1
    9     8    10    1
   10     8    11    1
   11    11    12    1
   12    11    13    1
   13    11    14    1
   14    14    15    1
   15    14    16    1
   16    14    17    1
   17    17    18    1
   18    17    19    1
   19    17    20    1
   20    20    21    1
   21    20    22    1
   22    22    23    1
   23    22    24    1
   24    22    25    1
   25    20    26    1
   26    26    27    1
   27    26    28    1
   28    26    29    1
@<TRIPOS>SUBSTRUCTURE
       1 MOL1            1 RESIDUE      1      MOL     
@<SCITEGIC>MOL_PROPERTY
VM2 Rank
SciTegic.value.IntegerValue
214

@<SCITEGIC>MOL_PROPERTY
Conf_Id
SciTegic.value.IntegerValue
682

@<SCITEGIC>MOL_PROPERTY
Probability
SciTegic.value.DoubleValue
0.00

@<SCITEGIC>MOL_PROPERTY
Sum Probability
SciTegic.value.DoubleValue
100.00

@<SCITEGIC>MOL_PROPERTY
Delta G
SciTegic.value.DoubleValue
8.053

@<SCITEGIC>MOL_PROPERTY
G
SciTegic.value.DoubleValue
41.755

@<SCITEGIC>MOL_PROPERTY
E
SciTegic.value.DoubleValue
3.417

@<SCITEGIC>MOL_PROPERTY
-TS
SciTegic.value.DoubleValue
38.338

@<SCITEGIC>MOL_PROPERTY
U+W
SciTegic.value.DoubleValue
-20.727

@<SCITEGIC>MOL_PROPERTY
U
SciTegic.value.DoubleValue
31.882

@<SCITEGIC>MOL_PROPERTY
W
SciTegic.value.DoubleValue
-52.609

@<SCITEGIC>MOL_PROPERTY
W(PB)
SciTegic.value.DoubleValue
-54.981

@<SCITEGIC>MOL_PROPERTY
W(SA)
SciTegic.value.DoubleValue
2.372

@<SCITEGIC>MOL_PROPERTY
Valence
SciTegic.value.DoubleValue
9.739

@<SCITEGIC>MOL_PROPERTY
Coulomb
SciTegic.value.DoubleValue
21.343

@<SCITEGIC>MOL_PROPERTY
VdW
SciTegic.value.DoubleValue
0.800

@<SCITEGIC>MOL_PROPERTY
VdW6
SciTegic.value.DoubleValue
-11.812

@<SCITEGIC>MOL_PROPERTY
VdW12
SciTegic.value.DoubleValue
12.612

@<SCITEGIC>MOL_PROPERTY
Bond
SciTegic.value.DoubleValue
0.385

@<SCITEGIC>MOL_PROPERTY
Angle
SciTegic.value.DoubleValue
3.191

@<SCITEGIC>MOL_PROPERTY
Pdih
SciTegic.value.DoubleValue
6.164

@<SCITEGIC>MOL_PROPERTY
Idih
SciTegic.value.DoubleValue
0.000

@<SCITEGIC>MOL_PROPERTY
Tether
SciTegic.value.DoubleValue
0.000

@<TRIPOS>MOLECULE
guest-s15_vm2.mol2 : vm2 ligand conformer 215
          29          28           1
SMALL
USER_CHARGES
 
@<TRIPOS>ATOM
       1    C1      18.763305   18.047213   20.676176 C.3        1 MOL1        -0.2426
       2    H1      17.927462   17.877944   21.367095 H          1 MOL1         0.0959
       3    H2      18.426229   17.768961   19.669271 H          1 MOL1         0.0959
       4    H3      19.579817   17.367720   20.949469 H          1 MOL1         0.0959
       5    C2      19.217397   19.524276   20.703942 C.3        1 MOL1        -0.1410
       6    H4      18.398546   20.151973   20.325486 H          1 MOL1         0.0948
       7    H5      20.058567   19.666385   20.011159 H          1 MOL1         0.0948
       8    C3      19.611681   20.020124   22.115792 C.3        1 MOL1        -0.1435
       9    H6      19.779833   21.104821   22.065420 H          1 MOL1         0.0948
      10    H7      18.767178   19.873341   22.798290 H          1 MOL1         0.0948
      11    C4      20.891305   19.341998   22.669400 C.3        1 MOL1        -0.1435
      12    H8      21.705876   19.523370   21.954603 H          1 MOL1         0.0948
      13    H9      20.778316   18.252101   22.716293 H          1 MOL1         0.0948
      14    C5      21.325268   19.892184   24.052494 C.3        1 MOL1        -0.1435
      15    H10     22.410286   20.061157   24.011447 H          1 MOL1         0.0948
      16    H11     20.894170   20.886414   24.229255 H          1 MOL1         0.0948
      17    C6      21.061242   18.954194   25.266443 C.3        1 MOL1        -0.1500
      18    H12     21.572335   19.394999   26.132345 H          1 MOL1         0.0948
      19    H13     21.558189   17.988945   25.102386 H          1 MOL1         0.0948
      20    C7      19.589367   18.714269   25.688305 C.3        1 MOL1         0.1162
      21    H14     19.615752   18.374985   26.728445 H          1 MOL1         0.0910
      22    C8      18.910536   17.589599   24.886395 C.3        1 MOL1        -0.2491
      23    H15     17.923645   17.363020   25.307981 H          1 MOL1         0.0959
      24    H16     18.768698   17.853403   23.835340 H          1 MOL1         0.0959
      25    H17     19.505400   16.668945   24.928692 H          1 MOL1         0.0959
      26    N1      18.765900   19.972143   25.695053 N.4        1 MOL1        -0.5987
      27    H18     17.811464   19.793895   26.020683 H          1 MOL1         0.3605
      28    H19     18.707396   20.376142   24.757589 H          1 MOL1         0.3605
      29    H20     19.173792   20.680588   26.311985 H          1 MOL1         0.3605
@<TRIPOS>BOND
    1     1     2    1
    2     1     3    1
    3     1     4    1
    4     1     5    1
    5     5     6    1
    6     5     7    1
    7     5     8    1
    8     8     9    1
    9     8    10    1
   10     8    11    1
   11    11    12    1
   12    11    13    1
   13    11    14    1
   14    14    15    1
   15    14    16    1
   16    14    17    1
   17    17    18    1
   18    17    19    1
   19    17    20    1
   20    20    21    1
   21    20    22    1
   22    22    23    1
   23    22    24    1
   24    22    25    1
   25    20    26    1
   26    26    27    1
   27    26    28    1
   28    26    29    1
@<TRIPOS>SUBSTRUCTURE
       1 MOL1            1 RESIDUE      1      MOL     
@<SCITEGIC>MOL_PROPERTY
VM2 Rank
SciTegic.value.IntegerValue
215

@<SCITEGIC>MOL_PROPERTY
Conf_Id
SciTegic.value.IntegerValue
1692

@<SCITEGIC>MOL_PROPERTY
Probability
SciTegic.value.DoubleValue
0.00

@<SCITEGIC>MOL_PROPERTY
Sum Probability
SciTegic.value.DoubleValue
100.00

@<SCITEGIC>MOL_PROPERTY
Delta G
SciTegic.value.DoubleValue
8.141

@<SCITEGIC>MOL_PROPERTY
G
SciTegic.value.DoubleValue
41.843

@<SCITEGIC>MOL_PROPERTY
E
SciTegic.value.DoubleValue
3.366

@<SCITEGIC>MOL_PROPERTY
-TS
SciTegic.value.DoubleValue
38.477

@<SCITEGIC>MOL_PROPERTY
U+W
SciTegic.value.DoubleValue
-20.778

@<SCITEGIC>MOL_PROPERTY
U
SciTegic.value.DoubleValue
31.790

@<SCITEGIC>MOL_PROPERTY
W
SciTegic.value.DoubleValue
-52.568

@<SCITEGIC>MOL_PROPERTY
W(PB)
SciTegic.value.DoubleValue
-54.941

@<SCITEGIC>MOL_PROPERTY
W(SA)
SciTegic.value.DoubleValue
2.373

@<SCITEGIC>MOL_PROPERTY
Valence
SciTegic.value.DoubleValue
9.764

@<SCITEGIC>MOL_PROPERTY
Coulomb
SciTegic.value.DoubleValue
21.415

@<SCITEGIC>MOL_PROPERTY
VdW
SciTegic.value.DoubleValue
0.611

@<SCITEGIC>MOL_PROPERTY
VdW6
SciTegic.value.DoubleValue
-12.189

@<SCITEGIC>MOL_PROPERTY
VdW12
SciTegic.value.DoubleValue
12.800

@<SCITEGIC>MOL_PROPERTY
Bond
SciTegic.value.DoubleValue
0.394

@<SCITEGIC>MOL_PROPERTY
Angle
SciTegic.value.DoubleValue
3.286

@<SCITEGIC>MOL_PROPERTY
Pdih
SciTegic.value.DoubleValue
6.084

@<SCITEGIC>MOL_PROPERTY
Idih
SciTegic.value.DoubleValue
0.000

@<SCITEGIC>MOL_PROPERTY
Tether
SciTegic.value.DoubleValue
0.000

@<TRIPOS>MOLECULE
guest-s15_vm2.mol2 : vm2 ligand conformer 216
          29          28           1
SMALL
USER_CHARGES
 
@<TRIPOS>ATOM
       1    C1      20.503673   18.091904   20.710886 C.3        1 MOL1        -0.2426
       2    H1      21.018374   18.623888   19.900350 H          1 MOL1         0.0959
       3    H2      21.142478   18.131020   21.598889 H          1 MOL1         0.0959
       4    H3      20.413949   17.039085   20.413728 H          1 MOL1         0.0959
       5    C2      19.106183   18.700570   20.969934 C.3        1 MOL1        -0.1410
       6    H4      18.572634   18.129209   21.741358 H          1 MOL1         0.0948
       7    H5      18.515831   18.584266   20.050266 H          1 MOL1         0.0948
       8    C3      19.140801   20.205600   21.339133 C.3        1 MOL1        -0.1435
       9    H6      19.958054   20.709411   20.805005 H          1 MOL1         0.0948
      10    H7      18.217255   20.662548   20.957482 H          1 MOL1         0.0948
      11    C4      19.214984   20.523788   22.856950 C.3        1 MOL1        -0.1435
      12    H8      18.361841   20.060896   23.366927 H          1 MOL1         0.0948
      13    H9      19.073946   21.607697   22.969399 H          1 MOL1         0.0948
      14    C5      20.552499   20.146543   23.548413 C.3        1 MOL1        -0.1435
      15    H10     21.359925   20.174625   22.804487 H          1 MOL1         0.0948
      16    H11     20.814295   20.922013   24.281631 H          1 MOL1         0.0948
      17    C6      20.547250   18.767001   24.261689 C.3        1 MOL1        -0.1500
      18    H12     21.569841   18.368006   24.232339 H          1 MOL1         0.0948
      19    H13     19.925618   18.049053   23.713240 H          1 MOL1         0.0948
      20    C7      20.106447   18.828013   25.742535 C.3        1 MOL1         0.1162
      21    H14     20.766336   19.528566   26.263422 H          1 MOL1         0.0910
      22    C8      20.256966   17.447191   26.400600 C.3        1 MOL1        -0.2491
      23    H15     21.293868   17.094673   26.335094 H          1 MOL1         0.0959
      24    H16     19.987565   17.491820   27.463069 H          1 MOL1         0.0959
      25    H17     19.612107   16.703881   25.915247 H          1 MOL1         0.0959
      26    N1      18.707197   19.345390   25.923860 N.4        1 MOL1        -0.5987
      27    H18     18.022385   18.728762   25.478966 H          1 MOL1         0.3605
      28    H19     18.603542   20.276406   25.510706 H          1 MOL1         0.3605
      29    H20     18.459938   19.416994   26.915057 H          1 MOL1         0.3605
@<TRIPOS>BOND
    1     1     2    1
    2     1     3    1
    3     1     4    1
    4     1     5    1
    5     5     6    1
    6     5     7    1
    7     5     8    1
    8     8     9    1
    9     8    10    1
   10     8    11    1
   11    11    12    1
   12    11    13    1
   13    11    14    1
   14    14    15    1
   15    14    16    1
   16    14    17    1
   17    17    18    1
   18    17    19    1
   19    17    20    1
   20    20    21    1
   21    20    22    1
   22    22    23    1
   23    22    24    1
   24    22    25    1
   25    20    26    1
   26    26    27    1
   27    26    28    1
   28    26    29    1
@<TRIPOS>SUBSTRUCTURE
       1 MOL1            1 RESIDUE      1      MOL     
@<SCITEGIC>MOL_PROPERTY
VM2 Rank
SciTegic.value.IntegerValue
216

@<SCITEGIC>MOL_PROPERTY
Conf_Id
SciTegic.value.IntegerValue
1221

@<SCITEGIC>MOL_PROPERTY
Probability
SciTegic.value.DoubleValue
0.00

@<SCITEGIC>MOL_PROPERTY
Sum Probability
SciTegic.value.DoubleValue
100.00

@<SCITEGIC>MOL_PROPERTY
Delta G
SciTegic.value.DoubleValue
8.934

@<SCITEGIC>MOL_PROPERTY
G
SciTegic.value.DoubleValue
42.637

@<SCITEGIC>MOL_PROPERTY
E
SciTegic.value.DoubleValue
4.269

@<SCITEGIC>MOL_PROPERTY
-TS
SciTegic.value.DoubleValue
38.368

@<SCITEGIC>MOL_PROPERTY
U+W
SciTegic.value.DoubleValue
-19.876

@<SCITEGIC>MOL_PROPERTY
U
SciTegic.value.DoubleValue
32.569

@<SCITEGIC>MOL_PROPERTY
W
SciTegic.value.DoubleValue
-52.445

@<SCITEGIC>MOL_PROPERTY
W(PB)
SciTegic.value.DoubleValue
-54.827

@<SCITEGIC>MOL_PROPERTY
W(SA)
SciTegic.value.DoubleValue
2.382

@<SCITEGIC>MOL_PROPERTY
Valence
SciTegic.value.DoubleValue
10.555

@<SCITEGIC>MOL_PROPERTY
Coulomb
SciTegic.value.DoubleValue
21.093

@<SCITEGIC>MOL_PROPERTY
VdW
SciTegic.value.DoubleValue
0.921

@<SCITEGIC>MOL_PROPERTY
VdW6
SciTegic.value.DoubleValue
-11.682

@<SCITEGIC>MOL_PROPERTY
VdW12
SciTegic.value.DoubleValue
12.604

@<SCITEGIC>MOL_PROPERTY
Bond
SciTegic.value.DoubleValue
0.382

@<SCITEGIC>MOL_PROPERTY
Angle
SciTegic.value.DoubleValue
2.638

@<SCITEGIC>MOL_PROPERTY
Pdih
SciTegic.value.DoubleValue
7.535

@<SCITEGIC>MOL_PROPERTY
Idih
SciTegic.value.DoubleValue
0.000

@<SCITEGIC>MOL_PROPERTY
Tether
SciTegic.value.DoubleValue
0.000

@<TRIPOS>MOLECULE
guest-s15_vm2.mol2 : vm2 ligand conformer 217
          29          28           1
SMALL
USER_CHARGES
 
@<TRIPOS>ATOM
       1    C1      19.150945   20.250169   20.509763 C.3        1 MOL1        -0.2426
       2    H1      18.324018   19.540956   20.639486 H          1 MOL1         0.0959
       3    H2      19.039549   21.055018   21.247723 H          1 MOL1         0.0959
       4    H3      19.050151   20.694242   19.511028 H          1 MOL1         0.0959
       5    C2      20.519629   19.549391   20.653386 C.3        1 MOL1        -0.1410
       6    H4      21.310882   20.263309   20.385190 H          1 MOL1         0.0948
       7    H5      20.588852   18.730380   19.923926 H          1 MOL1         0.0948
       8    C3      20.807423   19.004861   22.075597 C.3        1 MOL1        -0.1435
       9    H6      21.825549   18.591985   22.072035 H          1 MOL1         0.0948
      10    H7      20.825155   19.835490   22.791267 H          1 MOL1         0.0948
      11    C4      19.834515   17.888925   22.544919 C.3        1 MOL1        -0.1435
      12    H8      20.382661   17.144533   23.137769 H          1 MOL1         0.0948
      13    H9      19.474489   17.341622   21.662889 H          1 MOL1         0.0948
      14    C5      18.615595   18.390476   23.364286 C.3        1 MOL1        -0.1435
      15    H10     18.290463   19.377533   23.012955 H          1 MOL1         0.0948
      16    H11     17.774759   17.713277   23.160376 H          1 MOL1         0.0948
      17    C6      18.817125   18.427386   24.903378 C.3        1 MOL1        -0.1500
      18    H12     19.095103   17.431758   25.274005 H          1 MOL1         0.0948
      19    H13     17.835438   18.639898   25.347085 H          1 MOL1         0.0948
      20    C7      19.824190   19.490711   25.403704 C.3        1 MOL1         0.1162
      21    H14     19.895805   20.278294   24.648138 H          1 MOL1         0.0910
      22    C8      21.222459   18.890721   25.638389 C.3        1 MOL1        -0.2491
      23    H15     21.619425   18.423150   24.731787 H          1 MOL1         0.0959
      24    H16     21.930614   19.670631   25.944128 H          1 MOL1         0.0959
      25    H17     21.197461   18.128112   26.426776 H          1 MOL1         0.0959
      26    N1      19.344118   20.163362   26.660577 N.4        1 MOL1        -0.5987
      27    H18     19.999208   20.886629   26.971192 H          1 MOL1         0.3605
      28    H19     19.242944   19.493157   27.427714 H          1 MOL1         0.3605
      29    H20     18.434935   20.614419   26.522978 H          1 MOL1         0.3605
@<TRIPOS>BOND
    1     1     2    1
    2     1     3    1
    3     1     4    1
    4     1     5    1
    5     5     6    1
    6     5     7    1
    7     5     8    1
    8     8     9    1
    9     8    10    1
   10     8    11    1
   11    11    12    1
   12    11    13    1
   13    11    14    1
   14    14    15    1
   15    14    16    1
   16    14    17    1
   17    17    18    1
   18    17    19    1
   19    17    20    1
   20    20    21    1
   21    20    22    1
   22    22    23    1
   23    22    24    1
   24    22    25    1
   25    20    26    1
   26    26    27    1
   27    26    28    1
   28    26    29    1
@<TRIPOS>SUBSTRUCTURE
       1 MOL1            1 RESIDUE      1      MOL     
@<SCITEGIC>MOL_PROPERTY
VM2 Rank
SciTegic.value.IntegerValue
217

@<SCITEGIC>MOL_PROPERTY
Conf_Id
SciTegic.value.IntegerValue
337

@<SCITEGIC>MOL_PROPERTY
Probability
SciTegic.value.DoubleValue
0.00

@<SCITEGIC>MOL_PROPERTY
Sum Probability
SciTegic.value.DoubleValue
100.00

@<SCITEGIC>MOL_PROPERTY
Delta G
SciTegic.value.DoubleValue
8.987

@<SCITEGIC>MOL_PROPERTY
G
SciTegic.value.DoubleValue
42.689

@<SCITEGIC>MOL_PROPERTY
E
SciTegic.value.DoubleValue
4.158

@<SCITEGIC>MOL_PROPERTY
-TS
SciTegic.value.DoubleValue
38.531

@<SCITEGIC>MOL_PROPERTY
U+W
SciTegic.value.DoubleValue
-19.986

@<SCITEGIC>MOL_PROPERTY
U
SciTegic.value.DoubleValue
32.755

@<SCITEGIC>MOL_PROPERTY
W
SciTegic.value.DoubleValue
-52.741

@<SCITEGIC>MOL_PROPERTY
W(PB)
SciTegic.value.DoubleValue
-55.136

@<SCITEGIC>MOL_PROPERTY
W(SA)
SciTegic.value.DoubleValue
2.395

@<SCITEGIC>MOL_PROPERTY
Valence
SciTegic.value.DoubleValue
11.326

@<SCITEGIC>MOL_PROPERTY
Coulomb
SciTegic.value.DoubleValue
20.462

@<SCITEGIC>MOL_PROPERTY
VdW
SciTegic.value.DoubleValue
0.967

@<SCITEGIC>MOL_PROPERTY
VdW6
SciTegic.value.DoubleValue
-11.967

@<SCITEGIC>MOL_PROPERTY
VdW12
SciTegic.value.DoubleValue
12.934

@<SCITEGIC>MOL_PROPERTY
Bond
SciTegic.value.DoubleValue
0.369

@<SCITEGIC>MOL_PROPERTY
Angle
SciTegic.value.DoubleValue
2.748

@<SCITEGIC>MOL_PROPERTY
Pdih
SciTegic.value.DoubleValue
8.208

@<SCITEGIC>MOL_PROPERTY
Idih
SciTegic.value.DoubleValue
0.000

@<SCITEGIC>MOL_PROPERTY
Tether
SciTegic.value.DoubleValue
0.000

@<TRIPOS>MOLECULE
guest-s15_vm2.mol2 : vm2 ligand conformer 218
          29          28           1
SMALL
USER_CHARGES
 
@<TRIPOS>ATOM
       1    C1      18.095929   19.864205   21.114861 C.3        1 MOL1        -0.2426
       2    H1      17.038516   19.571856   21.077049 H          1 MOL1         0.0959
       3    H2      18.189520   20.669524   21.852116 H          1 MOL1         0.0959
       4    H3      18.363526   20.271888   20.131360 H          1 MOL1         0.0959
       5    C2      18.980939   18.646003   21.466194 C.3        1 MOL1        -0.1410
       6    H4      18.776959   17.850550   20.735851 H          1 MOL1         0.0948
       7    H5      18.684627   18.238285   22.438125 H          1 MOL1         0.0948
       8    C3      20.499601   18.956854   21.433791 C.3        1 MOL1        -0.1435
       9    H6      21.066491   18.017430   21.488950 H          1 MOL1         0.0948
      10    H7      20.735600   19.381557   20.448254 H          1 MOL1         0.0948
      11    C4      21.011393   19.934780   22.527353 C.3        1 MOL1        -0.1435
      12    H8      20.249209   20.671980   22.793909 H          1 MOL1         0.0948
      13    H9      21.820890   20.528059   22.079908 H          1 MOL1         0.0948
      14    C5      21.607871   19.252679   23.789718 C.3        1 MOL1        -0.1435
      15    H10     22.466780   18.647778   23.467622 H          1 MOL1         0.0948
      16    H11     22.027942   20.025542   24.448147 H          1 MOL1         0.0948
      17    C6      20.667627   18.340200   24.623255 C.3        1 MOL1        -0.1500
      18    H12     21.309739   17.733841   25.275906 H          1 MOL1         0.0948
      19    H13     20.150828   17.618656   23.981387 H          1 MOL1         0.0948
      20    C7      19.664315   19.090304   25.531580 C.3        1 MOL1         0.1162
      21    H14     20.224292   19.816987   26.128087 H          1 MOL1         0.0910
      22    C8      18.982320   18.104426   26.493944 C.3        1 MOL1        -0.2491
      23    H15     19.724614   17.586798   27.114248 H          1 MOL1         0.0959
      24    H16     18.296432   18.631448   27.168670 H          1 MOL1         0.0959
      25    H17     18.407966   17.347442   25.945290 H          1 MOL1         0.0959
      26    N1      18.626006   19.866550   24.773303 N.4        1 MOL1        -0.5987
      27    H18     18.049605   19.250131   24.194946 H          1 MOL1         0.3605
      28    H19     19.063371   20.553782   24.155390 H          1 MOL1         0.3605
      29    H20     18.000949   20.372242   25.407822 H          1 MOL1         0.3605
@<TRIPOS>BOND
    1     1     2    1
    2     1     3    1
    3     1     4    1
    4     1     5    1
    5     5     6    1
    6     5     7    1
    7     5     8    1
    8     8     9    1
    9     8    10    1
   10     8    11    1
   11    11    12    1
   12    11    13    1
   13    11    14    1
   14    14    15    1
   15    14    16    1
   16    14    17    1
   17    17    18    1
   18    17    19    1
   19    17    20    1
   20    20    21    1
   21    20    22    1
   22    22    23    1
   23    22    24    1
   24    22    25    1
   25    20    26    1
   26    26    27    1
   27    26    28    1
   28    26    29    1
@<TRIPOS>SUBSTRUCTURE
       1 MOL1            1 RESIDUE      1      MOL     
@<SCITEGIC>MOL_PROPERTY
VM2 Rank
SciTegic.value.IntegerValue
218

@<SCITEGIC>MOL_PROPERTY
Conf_Id
SciTegic.value.IntegerValue
619

@<SCITEGIC>MOL_PROPERTY
Probability
SciTegic.value.DoubleValue
0.00

@<SCITEGIC>MOL_PROPERTY
Sum Probability
SciTegic.value.DoubleValue
100.00

@<SCITEGIC>MOL_PROPERTY
Delta G
SciTegic.value.DoubleValue
9.175

@<SCITEGIC>MOL_PROPERTY
G
SciTegic.value.DoubleValue
42.877

@<SCITEGIC>MOL_PROPERTY
E
SciTegic.value.DoubleValue
4.511

@<SCITEGIC>MOL_PROPERTY
-TS
SciTegic.value.DoubleValue
38.366

@<SCITEGIC>MOL_PROPERTY
U+W
SciTegic.value.DoubleValue
-19.634

@<SCITEGIC>MOL_PROPERTY
U
SciTegic.value.DoubleValue
31.754

@<SCITEGIC>MOL_PROPERTY
W
SciTegic.value.DoubleValue
-51.388

@<SCITEGIC>MOL_PROPERTY
W(PB)
SciTegic.value.DoubleValue
-53.729

@<SCITEGIC>MOL_PROPERTY
W(SA)
SciTegic.value.DoubleValue
2.341

@<SCITEGIC>MOL_PROPERTY
Valence
SciTegic.value.DoubleValue
9.082

@<SCITEGIC>MOL_PROPERTY
Coulomb
SciTegic.value.DoubleValue
22.209

@<SCITEGIC>MOL_PROPERTY
VdW
SciTegic.value.DoubleValue
0.463

@<SCITEGIC>MOL_PROPERTY
VdW6
SciTegic.value.DoubleValue
-12.280

@<SCITEGIC>MOL_PROPERTY
VdW12
SciTegic.value.DoubleValue
12.743

@<SCITEGIC>MOL_PROPERTY
Bond
SciTegic.value.DoubleValue
0.435

@<SCITEGIC>MOL_PROPERTY
Angle
SciTegic.value.DoubleValue
3.629

@<SCITEGIC>MOL_PROPERTY
Pdih
SciTegic.value.DoubleValue
5.018

@<SCITEGIC>MOL_PROPERTY
Idih
SciTegic.value.DoubleValue
0.000

@<SCITEGIC>MOL_PROPERTY
Tether
SciTegic.value.DoubleValue
0.000

@<TRIPOS>MOLECULE
guest-s15_vm2.mol2 : vm2 ligand conformer 219
          29          28           1
SMALL
USER_CHARGES
 
@<TRIPOS>ATOM
       1    C1      20.752819   19.664232   20.366188 C.3        1 MOL1        -0.2426
       2    H1      21.465159   20.179114   21.023632 H          1 MOL1         0.0959
       3    H2      20.905780   18.582473   20.466706 H          1 MOL1         0.0959
       4    H3      20.994693   19.936682   19.330767 H          1 MOL1         0.0959
       5    C2      19.298544   20.060514   20.703351 C.3        1 MOL1        -0.1410
       6    H4      18.608849   19.515577   20.043722 H          1 MOL1         0.0948
       7    H5      19.161234   21.126352   20.473402 H          1 MOL1         0.0948
       8    C3      18.904619   19.818546   22.182473 C.3        1 MOL1        -0.1435
       9    H6      19.547845   20.425548   22.832737 H          1 MOL1         0.0948
      10    H7      17.883103   20.199815   22.318377 H          1 MOL1         0.0948
      11    C4      18.933275   18.325790   22.612011 C.3        1 MOL1        -0.1435
      12    H8      18.737701   17.701514   21.729128 H          1 MOL1         0.0948
      13    H9      18.101203   18.113108   23.296380 H          1 MOL1         0.0948
      14    C5      20.266729   17.874364   23.266262 C.3        1 MOL1        -0.1435
      15    H10     20.462569   16.840262   22.950824 H          1 MOL1         0.0948
      16    H11     21.107146   18.463479   22.877747 H          1 MOL1         0.0948
      17    C6      20.292599   17.897879   24.818944 C.3        1 MOL1        -0.1500
      18    H12     21.242990   17.444966   25.131501 H          1 MOL1         0.0948
      19    H13     19.505830   17.244846   25.219185 H          1 MOL1         0.0948
      20    C7      20.185201   19.301715   25.458029 C.3        1 MOL1         0.1162
      21    H14     20.797882   19.994780   24.873486 H          1 MOL1         0.0910
      22    C8      20.722963   19.279112   26.898134 C.3        1 MOL1        -0.2491
      23    H15     20.149852   18.584196   27.524749 H          1 MOL1         0.0959
      24    H16     21.775197   18.968981   26.917638 H          1 MOL1         0.0959
      25    H17     20.663553   20.276599   27.350859 H          1 MOL1         0.0959
      26    N1      18.779251   19.833849   25.448608 N.4        1 MOL1        -0.5987
      27    H18     18.736221   20.787543   25.819586 H          1 MOL1         0.3605
      28    H19     18.159243   19.253180   26.019764 H          1 MOL1         0.3605
      29    H20     18.402803   19.848013   24.496574 H          1 MOL1         0.3605
@<TRIPOS>BOND
    1     1     2    1
    2     1     3    1
    3     1     4    1
    4     1     5    1
    5     5     6    1
    6     5     7    1
    7     5     8    1
    8     8     9    1
    9     8    10    1
   10     8    11    1
   11    11    12    1
   12    11    13    1
   13    11    14    1
   14    14    15    1
   15    14    16    1
   16    14    17    1
   17    17    18    1
   18    17    19    1
   19    17    20    1
   20    20    21    1
   21    20    22    1
   22    22    23    1
   23    22    24    1
   24    22    25    1
   25    20    26    1
   26    26    27    1
   27    26    28    1
   28    26    29    1
@<TRIPOS>SUBSTRUCTURE
       1 MOL1            1 RESIDUE      1      MOL     
@<SCITEGIC>MOL_PROPERTY
VM2 Rank
SciTegic.value.IntegerValue
219

@<SCITEGIC>MOL_PROPERTY
Conf_Id
SciTegic.value.IntegerValue
1034

@<SCITEGIC>MOL_PROPERTY
Probability
SciTegic.value.DoubleValue
0.00

@<SCITEGIC>MOL_PROPERTY
Sum Probability
SciTegic.value.DoubleValue
100.00

@<SCITEGIC>MOL_PROPERTY
Delta G
SciTegic.value.DoubleValue
9.374

@<SCITEGIC>MOL_PROPERTY
G
SciTegic.value.DoubleValue
43.076

@<SCITEGIC>MOL_PROPERTY
E
SciTegic.value.DoubleValue
4.610

@<SCITEGIC>MOL_PROPERTY
-TS
SciTegic.value.DoubleValue
38.466

@<SCITEGIC>MOL_PROPERTY
U+W
SciTegic.value.DoubleValue
-19.535

@<SCITEGIC>MOL_PROPERTY
U
SciTegic.value.DoubleValue
32.302

@<SCITEGIC>MOL_PROPERTY
W
SciTegic.value.DoubleValue
-51.837

@<SCITEGIC>MOL_PROPERTY
W(PB)
SciTegic.value.DoubleValue
-54.234

@<SCITEGIC>MOL_PROPERTY
W(SA)
SciTegic.value.DoubleValue
2.398

@<SCITEGIC>MOL_PROPERTY
Valence
SciTegic.value.DoubleValue
9.852

@<SCITEGIC>MOL_PROPERTY
Coulomb
SciTegic.value.DoubleValue
21.476

@<SCITEGIC>MOL_PROPERTY
VdW
SciTegic.value.DoubleValue
0.974

@<SCITEGIC>MOL_PROPERTY
VdW6
SciTegic.value.DoubleValue
-12.184

@<SCITEGIC>MOL_PROPERTY
VdW12
SciTegic.value.DoubleValue
13.158

@<SCITEGIC>MOL_PROPERTY
Bond
SciTegic.value.DoubleValue
0.376

@<SCITEGIC>MOL_PROPERTY
Angle
SciTegic.value.DoubleValue
2.508

@<SCITEGIC>MOL_PROPERTY
Pdih
SciTegic.value.DoubleValue
6.968

@<SCITEGIC>MOL_PROPERTY
Idih
SciTegic.value.DoubleValue
0.000

@<SCITEGIC>MOL_PROPERTY
Tether
SciTegic.value.DoubleValue
0.000

@<TRIPOS>MOLECULE
guest-s15_vm2.mol2 : vm2 ligand conformer 220
          29          28           1
SMALL
USER_CHARGES
 
@<TRIPOS>ATOM
       1    C1      21.066001   20.287308   21.247739 C.3        1 MOL1        -0.2426
       2    H1      20.914610   21.325081   21.572153 H          1 MOL1         0.0959
       3    H2      21.563329   19.748857   22.062487 H          1 MOL1         0.0959
       4    H3      21.751276   20.303174   20.390403 H          1 MOL1         0.0959
       5    C2      19.722000   19.630870   20.854728 C.3        1 MOL1        -0.1410
       6    H4      19.894876   18.625693   20.445756 H          1 MOL1         0.0948
       7    H5      19.282258   20.217006   20.035595 H          1 MOL1         0.0948
       8    C3      18.709667   19.575123   22.027876 C.3        1 MOL1        -0.1435
       9    H6      18.970498   20.331217   22.775194 H          1 MOL1         0.0948
      10    H7      17.727207   19.879562   21.641046 H          1 MOL1         0.0948
      11    C4      18.539399   18.167944   22.667541 C.3        1 MOL1        -0.1435
      12    H8      18.188225   17.489871   21.877275 H          1 MOL1         0.0948
      13    H9      17.729001   18.185868   23.408242 H          1 MOL1         0.0948
      14    C5      19.811338   17.541832   23.300356 C.3        1 MOL1        -0.1435
      15    H10     19.711938   16.449799   23.230559 H          1 MOL1         0.0948
      16    H11     20.696986   17.779699   22.700906 H          1 MOL1         0.0948
      17    C6      20.077319   17.874576   24.793698 C.3        1 MOL1        -0.1500
      18    H12     21.008521   17.364154   25.073737 H          1 MOL1         0.0948
      19    H13     19.296014   17.424974   25.420632 H          1 MOL1         0.0948
      20    C7      20.207948   19.377556   25.128369 C.3        1 MOL1         0.1162
      21    H14     20.650067   19.888050   24.267440 H          1 MOL1         0.0910
      22    C8      21.131389   19.586431   26.339711 C.3        1 MOL1        -0.2491
      23    H15     21.230743   20.653717   26.573146 H          1 MOL1         0.0959
      24    H16     20.740657   19.076301   27.229178 H          1 MOL1         0.0959
      25    H17     22.136859   19.197491   26.135773 H          1 MOL1         0.0959
      26    N1      18.870938   20.014361   25.393981 N.4        1 MOL1        -0.5987
      27    H18     18.237850   19.882796   24.600328 H          1 MOL1         0.3605
      28    H19     18.961201   21.020780   25.560987 H          1 MOL1         0.3605
      29    H20     18.422885   19.605738   26.218682 H          1 MOL1         0.3605
@<TRIPOS>BOND
    1     1     2    1
    2     1     3    1
    3     1     4    1
    4     1     5    1
    5     5     6    1
    6     5     7    1
    7     5     8    1
    8     8     9    1
    9     8    10    1
   10     8    11    1
   11    11    12    1
   12    11    13    1
   13    11    14    1
   14    14    15    1
   15    14    16    1
   16    14    17    1
   17    17    18    1
   18    17    19    1
   19    17    20    1
   20    20    21    1
   21    20    22    1
   22    22    23    1
   23    22    24    1
   24    22    25    1
   25    20    26    1
   26    26    27    1
   27    26    28    1
   28    26    29    1
@<TRIPOS>SUBSTRUCTURE
       1 MOL1            1 RESIDUE      1      MOL     
@<SCITEGIC>MOL_PROPERTY
VM2 Rank
SciTegic.value.IntegerValue
220

@<SCITEGIC>MOL_PROPERTY
Conf_Id
SciTegic.value.IntegerValue
349

@<SCITEGIC>MOL_PROPERTY
Probability
SciTegic.value.DoubleValue
0.00

@<SCITEGIC>MOL_PROPERTY
Sum Probability
SciTegic.value.DoubleValue
100.00

@<SCITEGIC>MOL_PROPERTY
Delta G
SciTegic.value.DoubleValue
9.974

@<SCITEGIC>MOL_PROPERTY
G
SciTegic.value.DoubleValue
43.676

@<SCITEGIC>MOL_PROPERTY
E
SciTegic.value.DoubleValue
5.441

@<SCITEGIC>MOL_PROPERTY
-TS
SciTegic.value.DoubleValue
38.235

@<SCITEGIC>MOL_PROPERTY
U+W
SciTegic.value.DoubleValue
-18.703

@<SCITEGIC>MOL_PROPERTY
U
SciTegic.value.DoubleValue
33.704

@<SCITEGIC>MOL_PROPERTY
W
SciTegic.value.DoubleValue
-52.407

@<SCITEGIC>MOL_PROPERTY
W(PB)
SciTegic.value.DoubleValue
-54.808

@<SCITEGIC>MOL_PROPERTY
W(SA)
SciTegic.value.DoubleValue
2.401

@<SCITEGIC>MOL_PROPERTY
Valence
SciTegic.value.DoubleValue
11.194

@<SCITEGIC>MOL_PROPERTY
Coulomb
SciTegic.value.DoubleValue
21.655

@<SCITEGIC>MOL_PROPERTY
VdW
SciTegic.value.DoubleValue
0.855

@<SCITEGIC>MOL_PROPERTY
VdW6
SciTegic.value.DoubleValue
-12.373

@<SCITEGIC>MOL_PROPERTY
VdW12
SciTegic.value.DoubleValue
13.228

@<SCITEGIC>MOL_PROPERTY
Bond
SciTegic.value.DoubleValue
0.401

@<SCITEGIC>MOL_PROPERTY
Angle
SciTegic.value.DoubleValue
3.378

@<SCITEGIC>MOL_PROPERTY
Pdih
SciTegic.value.DoubleValue
7.414

@<SCITEGIC>MOL_PROPERTY
Idih
SciTegic.value.DoubleValue
0.000

@<SCITEGIC>MOL_PROPERTY
Tether
SciTegic.value.DoubleValue
0.000

