VeraChem MOL file


 29 28  0  0  0  0  0  0  0  0999 V2000     
   19.5303   19.9313   18.7440 C   0  0  0  0  0  0  0  0  0  0  0  0
   18.5900   20.4919   18.8259 H   0  0  0  0  0  0  0  0  0  0  0  0
   20.3579   20.6524   18.7241 H   0  0  0  0  0  0  0  0  0  0  0  0
   19.5233   19.3998   17.7835 H   0  0  0  0  0  0  0  0  0  0  0  0
   19.6880   18.9385   19.9150 C   0  0  0  0  0  0  0  0  0  0  0  0
   20.6196   18.3695   19.7877 H   0  0  0  0  0  0  0  0  0  0  0  0
   18.8653   18.2102   19.8888 H   0  0  0  0  0  0  0  0  0  0  0  0
   19.7010   19.6615   21.2799 C   0  0  0  0  0  0  0  0  0  0  0  0
   20.5234   20.3899   21.3006 H   0  0  0  0  0  0  0  0  0  0  0  0
   18.7690   20.2308   21.4016 H   0  0  0  0  0  0  0  0  0  0  0  0
   19.8586   18.6705   22.4551 C   0  0  0  0  0  0  0  0  0  0  0  0
   20.7902   18.1010   22.3314 H   0  0  0  0  0  0  0  0  0  0  0  0
   19.0357   17.9426   22.4338 H   0  0  0  0  0  0  0  0  0  0  0  0
   19.8724   19.3942   23.8204 C   0  0  0  0  0  0  0  0  0  0  0  0
   20.6979   20.1193   23.8422 H   0  0  0  0  0  0  0  0  0  0  0  0
   18.9416   19.9659   23.9336 H   0  0  0  0  0  0  0  0  0  0  0  0
   20.0290   18.3990   24.9958 C   0  0  0  0  0  0  0  0  0  0  0  0
   20.9356   17.8004   24.8354 H   0  0  0  0  0  0  0  0  0  0  0  0
   19.1857   17.6956   25.0018 H   0  0  0  0  0  0  0  0  0  0  0  0
   20.1314   19.0989   26.3682 C   0  0  2  0  0  0  0  0  0  0  0  0
   20.9619   19.8105   26.3293 H   0  0  0  0  0  0  0  0  0  0  0  0
   20.4279   18.0709   27.4716 C   0  0  0  0  0  0  0  0  0  0  0  0
   19.6207   17.3322   27.5534 H   0  0  0  0  0  0  0  0  0  0  0  0
   21.3621   17.5344   27.2637 H   0  0  0  0  0  0  0  0  0  0  0  0
   20.5382   18.5660   28.4442 H   0  0  0  0  0  0  0  0  0  0  0  0
   18.8975   19.8912   26.7040 N   0  3  0  0  0  0  0  0  0  0  0  0
   18.0710   19.2898   26.7564 H   0  0  0  0  0  0  0  0  0  0  0  0
   18.7120   20.6104   25.9997 H   0  0  0  0  0  0  0  0  0  0  0  0
   18.9908   20.3639   27.6076 H   0  0  0  0  0  0  0  0  0  0  0  0
  1  2  1  0  0  0  0
  1  3  1  0  0  0  0
  1  4  1  0  0  0  0
  1  5  1  0  0  0  0
  5  6  1  0  0  0  0
  5  7  1  0  0  0  0
  5  8  1  0  0  0  0
  8  9  1  0  0  0  0
  8 10  1  0  0  0  0
  8 11  1  0  0  0  0
 11 12  1  0  0  0  0
 11 13  1  0  0  0  0
 11 14  1  0  0  0  0
 14 15  1  0  0  0  0
 14 16  1  0  0  0  0
 14 17  1  0  0  0  0
 17 18  1  0  0  0  0
 17 19  1  0  0  0  0
 17 20  1  0  0  0  0
 20 21  1  0  0  0  0
 20 22  1  0  0  0  0
 22 23  1  0  0  0  0
 22 24  1  0  0  0  0
 22 25  1  0  0  0  0
 20 26  1  0  0  0  0
 26 27  1  0  0  0  0
 26 28  1  0  0  0  0
 26 29  1  0  0  0  0
M  END
> <VM2 Rank>
1

> <Conf_Id>
718

> <Probability>
10.36

> <Sum Probability>
10.36

> <Delta G>
0.000

> <G>
33.702

> <E>
-3.682

> <-TS>
37.384

> <U+W>
-27.827

> <U>
23.963

> <W>
-51.787

> <W(PB)>
-54.343

> <W(SA)>
2.556

> <Valence>
3.166

> <Coulomb>
19.734

> <VdW>
1.063

> <VdW6>
-7.939

> <VdW12>
9.001

> <Bond>
0.188

> <Angle>
0.880

> <Pdih>
2.098

> <Idih>
0.000

> <Tether>
0.000

$$$$
VeraChem MOL file


 29 28  0  0  0  0  0  0  0  0999 V2000     
   19.0307   19.3523   18.8498 C   0  0  0  0  0  0  0  0  0  0  0  0
   18.5002   18.3915   18.8267 H   0  0  0  0  0  0  0  0  0  0  0  0
   18.2858   20.1518   18.9554 H   0  0  0  0  0  0  0  0  0  0  0  0
   19.5318   19.4841   17.8820 H   0  0  0  0  0  0  0  0  0  0  0  0
   20.0549   19.3927   20.0036 C   0  0  0  0  0  0  0  0  0  0  0  0
   20.5927   20.3509   19.9804 H   0  0  0  0  0  0  0  0  0  0  0  0
   20.8054   18.6041   19.8528 H   0  0  0  0  0  0  0  0  0  0  0  0
   19.3751   19.2095   21.3785 C   0  0  0  0  0  0  0  0  0  0  0  0
   18.6244   19.9987   21.5238 H   0  0  0  0  0  0  0  0  0  0  0  0
   18.8369   18.2517   21.3960 H   0  0  0  0  0  0  0  0  0  0  0  0
   20.3977   19.2492   22.5364 C   0  0  0  0  0  0  0  0  0  0  0  0
   20.9356   20.2071   22.5173 H   0  0  0  0  0  0  0  0  0  0  0  0
   21.1481   18.4599   22.3898 H   0  0  0  0  0  0  0  0  0  0  0  0
   19.7173   19.0656   23.9118 C   0  0  0  0  0  0  0  0  0  0  0  0
   18.9681   19.8560   24.0512 H   0  0  0  0  0  0  0  0  0  0  0  0
   19.1790   18.1088   23.9191 H   0  0  0  0  0  0  0  0  0  0  0  0
   20.7490   19.1030   25.0692 C   0  0  0  0  0  0  0  0  0  0  0  0
   21.3132   20.0436   25.0189 H   0  0  0  0  0  0  0  0  0  0  0  0
   21.4853   18.3013   24.9249 H   0  0  0  0  0  0  0  0  0  0  0  0
   20.1434   18.9722   26.4866 C   0  0  2  0  0  0  0  0  0  0  0  0
   20.9693   19.0446   27.2010 H   0  0  0  0  0  0  0  0  0  0  0  0
   19.4612   17.6099   26.7012 C   0  0  0  0  0  0  0  0  0  0  0  0
   20.1452   16.7882   26.4551 H   0  0  0  0  0  0  0  0  0  0  0  0
   19.1631   17.4915   27.7502 H   0  0  0  0  0  0  0  0  0  0  0  0
   18.5611   17.5050   26.0839 H   0  0  0  0  0  0  0  0  0  0  0  0
   19.2067   20.1015   26.8169 N   0  3  0  0  0  0  0  0  0  0  0  0
   19.6666   21.0113   26.7196 H   0  0  0  0  0  0  0  0  0  0  0  0
   18.8633   20.0333   27.7792 H   0  0  0  0  0  0  0  0  0  0  0  0
   18.3914   20.1001   26.1990 H   0  0  0  0  0  0  0  0  0  0  0  0
  1  2  1  0  0  0  0
  1  3  1  0  0  0  0
  1  4  1  0  0  0  0
  1  5  1  0  0  0  0
  5  6  1  0  0  0  0
  5  7  1  0  0  0  0
  5  8  1  0  0  0  0
  8  9  1  0  0  0  0
  8 10  1  0  0  0  0
  8 11  1  0  0  0  0
 11 12  1  0  0  0  0
 11 13  1  0  0  0  0
 11 14  1  0  0  0  0
 14 15  1  0  0  0  0
 14 16  1  0  0  0  0
 14 17  1  0  0  0  0
 17 18  1  0  0  0  0
 17 19  1  0  0  0  0
 17 20  1  0  0  0  0
 20 21  1  0  0  0  0
 20 22  1  0  0  0  0
 22 23  1  0  0  0  0
 22 24  1  0  0  0  0
 22 25  1  0  0  0  0
 20 26  1  0  0  0  0
 26 27  1  0  0  0  0
 26 28  1  0  0  0  0
 26 29  1  0  0  0  0
M  END
> <VM2 Rank>
2

> <Conf_Id>
441

> <Probability>
5.08

> <Sum Probability>
15.44

> <Delta G>
0.425

> <G>
34.127

> <E>
-3.403

> <-TS>
37.530

> <U+W>
-27.548

> <U>
24.513

> <W>
-52.061

> <W(PB)>
-54.558

> <W(SA)>
2.497

> <Valence>
3.677

> <Coulomb>
19.662

> <VdW>
1.174

> <VdW6>
-8.569

> <VdW12>
9.743

> <Bond>
0.224

> <Angle>
1.211

> <Pdih>
2.243

> <Idih>
0.000

> <Tether>
0.000

$$$$
VeraChem MOL file


 29 28  0  0  0  0  0  0  0  0999 V2000     
   20.2031   19.4674   18.6904 C   0  0  0  0  0  0  0  0  0  0  0  0
   20.5985   20.4914   18.7045 H   0  0  0  0  0  0  0  0  0  0  0  0
   21.0525   18.7734   18.6438 H   0  0  0  0  0  0  0  0  0  0  0  0
   19.6169   19.3449   17.7704 H   0  0  0  0  0  0  0  0  0  0  0  0
   19.3302   19.1928   19.9333 C   0  0  0  0  0  0  0  0  0  0  0  0
   18.9221   18.1741   19.8744 H   0  0  0  0  0  0  0  0  0  0  0  0
   18.4716   19.8789   19.9345 H   0  0  0  0  0  0  0  0  0  0  0  0
   20.1320   19.3585   21.2431 C   0  0  0  0  0  0  0  0  0  0  0  0
   20.9904   18.6726   21.2361 H   0  0  0  0  0  0  0  0  0  0  0  0
   20.5398   20.3775   21.2964 H   0  0  0  0  0  0  0  0  0  0  0  0
   19.2613   19.0843   22.4899 C   0  0  0  0  0  0  0  0  0  0  0  0
   18.8542   18.0651   22.4360 H   0  0  0  0  0  0  0  0  0  0  0  0
   18.4026   19.7700   22.4947 H   0  0  0  0  0  0  0  0  0  0  0  0
   20.0638   19.2507   23.8002 C   0  0  0  0  0  0  0  0  0  0  0  0
   20.9233   18.5679   23.7813 H   0  0  0  0  0  0  0  0  0  0  0  0
   20.4665   20.2716   23.8563 H   0  0  0  0  0  0  0  0  0  0  0  0
   19.1902   18.9708   25.0478 C   0  0  0  0  0  0  0  0  0  0  0  0
   18.8392   17.9305   25.0284 H   0  0  0  0  0  0  0  0  0  0  0  0
   18.2937   19.6027   24.9953 H   0  0  0  0  0  0  0  0  0  0  0  0
   19.9086   19.2524   26.3872 C   0  0  2  0  0  0  0  0  0  0  0  0
   20.2850   20.2797   26.3655 H   0  0  0  0  0  0  0  0  0  0  0  0
   21.0972   18.3024   26.6195 C   0  0  0  0  0  0  0  0  0  0  0  0
   20.7790   17.2530   26.5862 H   0  0  0  0  0  0  0  0  0  0  0  0
   21.8787   18.4492   25.8651 H   0  0  0  0  0  0  0  0  0  0  0  0
   21.5542   18.4882   27.5994 H   0  0  0  0  0  0  0  0  0  0  0  0
   18.9495   19.1766   27.5426 N   0  3  0  0  0  0  0  0  0  0  0  0
   19.4123   19.4013   28.4281 H   0  0  0  0  0  0  0  0  0  0  0  0
   18.5499   18.2389   27.6361 H   0  0  0  0  0  0  0  0  0  0  0  0
   18.1715   19.8332   27.4306 H   0  0  0  0  0  0  0  0  0  0  0  0
  1  2  1  0  0  0  0
  1  3  1  0  0  0  0
  1  4  1  0  0  0  0
  1  5  1  0  0  0  0
  5  6  1  0  0  0  0
  5  7  1  0  0  0  0
  5  8  1  0  0  0  0
  8  9  1  0  0  0  0
  8 10  1  0  0  0  0
  8 11  1  0  0  0  0
 11 12  1  0  0  0  0
 11 13  1  0  0  0  0
 11 14  1  0  0  0  0
 14 15  1  0  0  0  0
 14 16  1  0  0  0  0
 14 17  1  0  0  0  0
 17 18  1  0  0  0  0
 17 19  1  0  0  0  0
 17 20  1  0  0  0  0
 20 21  1  0  0  0  0
 20 22  1  0  0  0  0
 22 23  1  0  0  0  0
 22 24  1  0  0  0  0
 22 25  1  0  0  0  0
 20 26  1  0  0  0  0
 26 27  1  0  0  0  0
 26 28  1  0  0  0  0
 26 29  1  0  0  0  0
M  END
> <VM2 Rank>
3

> <Conf_Id>
58

> <Probability>
5.06

> <Sum Probability>
20.50

> <Delta G>
0.427

> <G>
34.129

> <E>
-3.270

> <-TS>
37.399

> <U+W>
-27.414

> <U>
24.279

> <W>
-51.694

> <W(PB)>
-54.271

> <W(SA)>
2.577

> <Valence>
3.709

> <Coulomb>
19.380

> <VdW>
1.191

> <VdW6>
-8.093

> <VdW12>
9.284

> <Bond>
0.200

> <Angle>
1.161

> <Pdih>
2.348

> <Idih>
0.000

> <Tether>
0.000

$$$$
VeraChem MOL file


 29 28  0  0  0  0  0  0  0  0999 V2000     
   18.8287   18.7944   19.4038 C   0  0  0  0  0  0  0  0  0  0  0  0
   18.8815   18.5120   18.3443 H   0  0  0  0  0  0  0  0  0  0  0  0
   18.6829   17.8743   19.9832 H   0  0  0  0  0  0  0  0  0  0  0  0
   17.9438   19.4300   19.5382 H   0  0  0  0  0  0  0  0  0  0  0  0
   20.1156   19.5361   19.8304 C   0  0  0  0  0  0  0  0  0  0  0  0
   20.2824   20.3786   19.1448 H   0  0  0  0  0  0  0  0  0  0  0  0
   20.9818   18.8697   19.7152 H   0  0  0  0  0  0  0  0  0  0  0  0
   20.0615   20.0783   21.2791 C   0  0  0  0  0  0  0  0  0  0  0  0
   20.9617   20.6821   21.4590 H   0  0  0  0  0  0  0  0  0  0  0  0
   19.2060   20.7597   21.3838 H   0  0  0  0  0  0  0  0  0  0  0  0
   19.9771   18.9654   22.3510 C   0  0  0  0  0  0  0  0  0  0  0  0
   20.8048   18.2569   22.2094 H   0  0  0  0  0  0  0  0  0  0  0  0
   19.0456   18.3975   22.2275 H   0  0  0  0  0  0  0  0  0  0  0  0
   20.0308   19.5438   23.7832 C   0  0  0  0  0  0  0  0  0  0  0  0
   20.9657   20.1056   23.9168 H   0  0  0  0  0  0  0  0  0  0  0  0
   19.2070   20.2581   23.9130 H   0  0  0  0  0  0  0  0  0  0  0  0
   19.9408   18.4306   24.8552 C   0  0  0  0  0  0  0  0  0  0  0  0
   20.7389   17.6983   24.6739 H   0  0  0  0  0  0  0  0  0  0  0  0
   18.9903   17.8906   24.7512 H   0  0  0  0  0  0  0  0  0  0  0  0
   20.0775   18.9690   26.2957 C   0  0  2  0  0  0  0  0  0  0  0  0
   21.0191   19.5222   26.3673 H   0  0  0  0  0  0  0  0  0  0  0  0
   20.1236   17.8056   27.2990 C   0  0  0  0  0  0  0  0  0  0  0  0
   20.9623   17.1335   27.0784 H   0  0  0  0  0  0  0  0  0  0  0  0
   20.2573   18.1797   28.3216 H   0  0  0  0  0  0  0  0  0  0  0  0
   19.1976   17.2178   27.2682 H   0  0  0  0  0  0  0  0  0  0  0  0
   18.9804   19.9329   26.6566 N   0  3  0  0  0  0  0  0  0  0  0  0
   18.0609   19.4857   26.6100 H   0  0  0  0  0  0  0  0  0  0  0  0
   18.9655   20.7364   26.0227 H   0  0  0  0  0  0  0  0  0  0  0  0
   19.0980   20.2946   27.6073 H   0  0  0  0  0  0  0  0  0  0  0  0
  1  2  1  0  0  0  0
  1  3  1  0  0  0  0
  1  4  1  0  0  0  0
  1  5  1  0  0  0  0
  5  6  1  0  0  0  0
  5  7  1  0  0  0  0
  5  8  1  0  0  0  0
  8  9  1  0  0  0  0
  8 10  1  0  0  0  0
  8 11  1  0  0  0  0
 11 12  1  0  0  0  0
 11 13  1  0  0  0  0
 11 14  1  0  0  0  0
 14 15  1  0  0  0  0
 14 16  1  0  0  0  0
 14 17  1  0  0  0  0
 17 18  1  0  0  0  0
 17 19  1  0  0  0  0
 17 20  1  0  0  0  0
 20 21  1  0  0  0  0
 20 22  1  0  0  0  0
 22 23  1  0  0  0  0
 22 24  1  0  0  0  0
 22 25  1  0  0  0  0
 20 26  1  0  0  0  0
 26 27  1  0  0  0  0
 26 28  1  0  0  0  0
 26 29  1  0  0  0  0
M  END
> <VM2 Rank>
4

> <Conf_Id>
1220

> <Probability>
3.90

> <Sum Probability>
24.40

> <Delta G>
0.582

> <G>
34.284

> <E>
-3.211

> <-TS>
37.495

> <U+W>
-27.356

> <U>
24.589

> <W>
-51.945

> <W(PB)>
-54.480

> <W(SA)>
2.535

> <Valence>
3.670

> <Coulomb>
19.723

> <VdW>
1.196

> <VdW6>
-8.561

> <VdW12>
9.757

> <Bond>
0.223

> <Angle>
1.119

> <Pdih>
2.329

> <Idih>
0.000

> <Tether>
0.000

$$$$
VeraChem MOL file


 29 28  0  0  0  0  0  0  0  0999 V2000     
   20.4857   18.8973   19.3013 C   0  0  0  0  0  0  0  0  0  0  0  0
   20.3542   18.5905   18.2556 H   0  0  0  0  0  0  0  0  0  0  0  0
   21.2783   19.6563   19.3313 H   0  0  0  0  0  0  0  0  0  0  0  0
   20.8287   18.0189   19.8618 H   0  0  0  0  0  0  0  0  0  0  0  0
   19.1617   19.4538   19.8720 C   0  0  0  0  0  0  0  0  0  0  0  0
   18.3942   18.6673   19.8591 H   0  0  0  0  0  0  0  0  0  0  0  0
   18.7971   20.2502   19.2083 H   0  0  0  0  0  0  0  0  0  0  0  0
   19.3010   20.0256   21.3035 C   0  0  0  0  0  0  0  0  0  0  0  0
   20.0548   20.8250   21.3073 H   0  0  0  0  0  0  0  0  0  0  0  0
   18.3491   20.4969   21.5845 H   0  0  0  0  0  0  0  0  0  0  0  0
   19.6677   18.9572   22.3612 C   0  0  0  0  0  0  0  0  0  0  0  0
   20.6510   18.5265   22.1311 H   0  0  0  0  0  0  0  0  0  0  0  0
   18.9405   18.1347   22.3190 H   0  0  0  0  0  0  0  0  0  0  0  0
   19.6950   19.5492   23.7885 C   0  0  0  0  0  0  0  0  0  0  0  0
   20.4226   20.3718   23.8294 H   0  0  0  0  0  0  0  0  0  0  0  0
   18.7116   19.9803   24.0183 H   0  0  0  0  0  0  0  0  0  0  0  0
   20.0645   18.4806   24.8459 C   0  0  0  0  0  0  0  0  0  0  0  0
   21.0241   18.0241   24.5688 H   0  0  0  0  0  0  0  0  0  0  0  0
   19.3190   17.6742   24.8352 H   0  0  0  0  0  0  0  0  0  0  0  0
   20.1827   19.0600   26.2722 C   0  0  2  0  0  0  0  0  0  0  0  0
   20.9120   19.8757   26.2516 H   0  0  0  0  0  0  0  0  0  0  0  0
   20.6892   17.9840   27.2458 C   0  0  0  0  0  0  0  0  0  0  0  0
   19.9896   17.1408   27.3046 H   0  0  0  0  0  0  0  0  0  0  0  0
   21.6647   17.5969   26.9259 H   0  0  0  0  0  0  0  0  0  0  0  0
   20.8104   18.3987   28.2541 H   0  0  0  0  0  0  0  0  0  0  0  0
   18.8884   19.6483   26.7637 N   0  3  0  0  0  0  0  0  0  0  0  0
   18.1503   18.9406   26.8083 H   0  0  0  0  0  0  0  0  0  0  0  0
   18.5611   20.3977   26.1483 H   0  0  0  0  0  0  0  0  0  0  0  0
   18.9905   20.0450   27.7023 H   0  0  0  0  0  0  0  0  0  0  0  0
  1  2  1  0  0  0  0
  1  3  1  0  0  0  0
  1  4  1  0  0  0  0
  1  5  1  0  0  0  0
  5  6  1  0  0  0  0
  5  7  1  0  0  0  0
  5  8  1  0  0  0  0
  8  9  1  0  0  0  0
  8 10  1  0  0  0  0
  8 11  1  0  0  0  0
 11 12  1  0  0  0  0
 11 13  1  0  0  0  0
 11 14  1  0  0  0  0
 14 15  1  0  0  0  0
 14 16  1  0  0  0  0
 14 17  1  0  0  0  0
 17 18  1  0  0  0  0
 17 19  1  0  0  0  0
 17 20  1  0  0  0  0
 20 21  1  0  0  0  0
 20 22  1  0  0  0  0
 22 23  1  0  0  0  0
 22 24  1  0  0  0  0
 22 25  1  0  0  0  0
 20 26  1  0  0  0  0
 26 27  1  0  0  0  0
 26 28  1  0  0  0  0
 26 29  1  0  0  0  0
M  END
> <VM2 Rank>
5

> <Conf_Id>
1303

> <Probability>
3.79

> <Sum Probability>
28.19

> <Delta G>
0.600

> <G>
34.302

> <E>
-3.193

> <-TS>
37.495

> <U+W>
-27.338

> <U>
24.574

> <W>
-51.911

> <W(PB)>
-54.448

> <W(SA)>
2.537

> <Valence>
3.669

> <Coulomb>
19.705

> <VdW>
1.200

> <VdW6>
-8.560

> <VdW12>
9.760

> <Bond>
0.223

> <Angle>
1.119

> <Pdih>
2.327

> <Idih>
0.000

> <Tether>
0.000

$$$$
VeraChem MOL file


 29 28  0  0  0  0  0  0  0  0999 V2000     
   20.6748   18.9869   19.1354 C   0  0  0  0  0  0  0  0  0  0  0  0
   21.2748   18.1130   19.4208 H   0  0  0  0  0  0  0  0  0  0  0  0
   20.3353   18.8396   18.1019 H   0  0  0  0  0  0  0  0  0  0  0  0
   21.3266   19.8701   19.1535 H   0  0  0  0  0  0  0  0  0  0  0  0
   19.4707   19.1668   20.0840 C   0  0  0  0  0  0  0  0  0  0  0  0
   18.8205   18.2831   20.0197 H   0  0  0  0  0  0  0  0  0  0  0  0
   18.8713   20.0263   19.7525 H   0  0  0  0  0  0  0  0  0  0  0  0
   19.9211   19.3771   21.5465 C   0  0  0  0  0  0  0  0  0  0  0  0
   20.5263   18.5168   21.8604 H   0  0  0  0  0  0  0  0  0  0  0  0
   20.5685   20.2628   21.6059 H   0  0  0  0  0  0  0  0  0  0  0  0
   18.7139   19.5530   22.4990 C   0  0  0  0  0  0  0  0  0  0  0  0
   18.0961   18.6444   22.4867 H   0  0  0  0  0  0  0  0  0  0  0  0
   18.0767   20.3638   22.1197 H   0  0  0  0  0  0  0  0  0  0  0  0
   19.1148   19.8884   23.9567 C   0  0  0  0  0  0  0  0  0  0  0  0
   19.7303   20.7986   23.9681 H   0  0  0  0  0  0  0  0  0  0  0  0
   18.1991   20.1275   24.5132 H   0  0  0  0  0  0  0  0  0  0  0  0
   19.8699   18.7381   24.6715 C   0  0  0  0  0  0  0  0  0  0  0  0
   20.7968   18.5193   24.1273 H   0  0  0  0  0  0  0  0  0  0  0  0
   19.2645   17.8224   24.6438 H   0  0  0  0  0  0  0  0  0  0  0  0
   20.2342   19.0749   26.1339 C   0  0  2  0  0  0  0  0  0  0  0  0
   20.8048   20.0087   26.1390 H   0  0  0  0  0  0  0  0  0  0  0  0
   21.1157   17.9676   26.7334 C   0  0  0  0  0  0  0  0  0  0  0  0
   20.5876   17.0060   26.7517 H   0  0  0  0  0  0  0  0  0  0  0  0
   22.0353   17.8413   26.1484 H   0  0  0  0  0  0  0  0  0  0  0  0
   21.4073   18.2171   27.7611 H   0  0  0  0  0  0  0  0  0  0  0  0
   19.0210   19.3033   26.9936 N   0  3  0  0  0  0  0  0  0  0  0  0
   19.2829   19.5422   27.9543 H   0  0  0  0  0  0  0  0  0  0  0  0
   18.4309   18.4680   27.0353 H   0  0  0  0  0  0  0  0  0  0  0  0
   18.4462   20.0698   26.6335 H   0  0  0  0  0  0  0  0  0  0  0  0
  1  2  1  0  0  0  0
  1  3  1  0  0  0  0
  1  4  1  0  0  0  0
  1  5  1  0  0  0  0
  5  6  1  0  0  0  0
  5  7  1  0  0  0  0
  5  8  1  0  0  0  0
  8  9  1  0  0  0  0
  8 10  1  0  0  0  0
  8 11  1  0  0  0  0
 11 12  1  0  0  0  0
 11 13  1  0  0  0  0
 11 14  1  0  0  0  0
 14 15  1  0  0  0  0
 14 16  1  0  0  0  0
 14 17  1  0  0  0  0
 17 18  1  0  0  0  0
 17 19  1  0  0  0  0
 17 20  1  0  0  0  0
 20 21  1  0  0  0  0
 20 22  1  0  0  0  0
 22 23  1  0  0  0  0
 22 24  1  0  0  0  0
 22 25  1  0  0  0  0
 20 26  1  0  0  0  0
 26 27  1  0  0  0  0
 26 28  1  0  0  0  0
 26 29  1  0  0  0  0
M  END
> <VM2 Rank>
6

> <Conf_Id>
1308

> <Probability>
3.48

> <Sum Probability>
31.67

> <Delta G>
0.650

> <G>
34.352

> <E>
-3.103

> <-TS>
37.455

> <U+W>
-27.248

> <U>
24.710

> <W>
-51.958

> <W(PB)>
-54.513

> <W(SA)>
2.555

> <Valence>
3.735

> <Coulomb>
19.760

> <VdW>
1.216

> <VdW6>
-8.624

> <VdW12>
9.840

> <Bond>
0.236

> <Angle>
1.168

> <Pdih>
2.330

> <Idih>
0.000

> <Tether>
0.000

$$$$
VeraChem MOL file


 29 28  0  0  0  0  0  0  0  0999 V2000     
   19.7044   20.0255   19.0213 C   0  0  0  0  0  0  0  0  0  0  0  0
   20.4610   20.3917   18.3152 H   0  0  0  0  0  0  0  0  0  0  0  0
   19.2423   19.1300   18.5858 H   0  0  0  0  0  0  0  0  0  0  0  0
   18.9302   20.7980   19.1164 H   0  0  0  0  0  0  0  0  0  0  0  0
   20.3439   19.7098   20.3899 C   0  0  0  0  0  0  0  0  0  0  0  0
   20.8267   20.6150   20.7842 H   0  0  0  0  0  0  0  0  0  0  0  0
   21.1363   18.9597   20.2578 H   0  0  0  0  0  0  0  0  0  0  0  0
   19.2995   19.1920   21.4033 C   0  0  0  0  0  0  0  0  0  0  0  0
   18.5086   19.9441   21.5305 H   0  0  0  0  0  0  0  0  0  0  0  0
   18.8180   18.2889   21.0033 H   0  0  0  0  0  0  0  0  0  0  0  0
   19.9363   18.8743   22.7749 C   0  0  0  0  0  0  0  0  0  0  0  0
   20.4224   19.7790   23.1635 H   0  0  0  0  0  0  0  0  0  0  0  0
   20.7243   18.1193   22.6462 H   0  0  0  0  0  0  0  0  0  0  0  0
   18.8872   18.3578   23.7884 C   0  0  0  0  0  0  0  0  0  0  0  0
   18.1091   19.1180   23.9389 H   0  0  0  0  0  0  0  0  0  0  0  0
   18.3773   17.4826   23.3625 H   0  0  0  0  0  0  0  0  0  0  0  0
   19.5033   17.9514   25.1516 C   0  0  0  0  0  0  0  0  0  0  0  0
   20.2037   17.1214   24.9890 H   0  0  0  0  0  0  0  0  0  0  0  0
   18.7090   17.5593   25.8006 H   0  0  0  0  0  0  0  0  0  0  0  0
   20.2407   19.0965   25.8814 C   0  0  2  0  0  0  0  0  0  0  0  0
   21.0408   19.4616   25.2308 H   0  0  0  0  0  0  0  0  0  0  0  0
   20.8786   18.5795   27.1805 C   0  0  0  0  0  0  0  0  0  0  0  0
   21.4368   19.3786   27.6837 H   0  0  0  0  0  0  0  0  0  0  0  0
   20.1166   18.2048   27.8754 H   0  0  0  0  0  0  0  0  0  0  0  0
   21.5813   17.7632   26.9713 H   0  0  0  0  0  0  0  0  0  0  0  0
   19.3421   20.2693   26.1627 N   0  3  0  0  0  0  0  0  0  0  0  0
   18.5656   20.0051   26.7749 H   0  0  0  0  0  0  0  0  0  0  0  0
   18.9410   20.6448   25.2990 H   0  0  0  0  0  0  0  0  0  0  0  0
   19.8510   21.0297   26.6225 H   0  0  0  0  0  0  0  0  0  0  0  0
  1  2  1  0  0  0  0
  1  3  1  0  0  0  0
  1  4  1  0  0  0  0
  1  5  1  0  0  0  0
  5  6  1  0  0  0  0
  5  7  1  0  0  0  0
  5  8  1  0  0  0  0
  8  9  1  0  0  0  0
  8 10  1  0  0  0  0
  8 11  1  0  0  0  0
 11 12  1  0  0  0  0
 11 13  1  0  0  0  0
 11 14  1  0  0  0  0
 14 15  1  0  0  0  0
 14 16  1  0  0  0  0
 14 17  1  0  0  0  0
 17 18  1  0  0  0  0
 17 19  1  0  0  0  0
 17 20  1  0  0  0  0
 20 21  1  0  0  0  0
 20 22  1  0  0  0  0
 22 23  1  0  0  0  0
 22 24  1  0  0  0  0
 22 25  1  0  0  0  0
 20 26  1  0  0  0  0
 26 27  1  0  0  0  0
 26 28  1  0  0  0  0
 26 29  1  0  0  0  0
M  END
> <VM2 Rank>
7

> <Conf_Id>
694

> <Probability>
3.42

> <Sum Probability>
35.08

> <Delta G>
0.661

> <G>
34.363

> <E>
-3.215

> <-TS>
37.578

> <U+W>
-27.360

> <U>
24.672

> <W>
-52.032

> <W(PB)>
-54.582

> <W(SA)>
2.550

> <Valence>
3.465

> <Coulomb>
20.280

> <VdW>
0.927

> <VdW6>
-8.843

> <VdW12>
9.770

> <Bond>
0.217

> <Angle>
1.094

> <Pdih>
2.153

> <Idih>
0.000

> <Tether>
0.000

$$$$
VeraChem MOL file


 29 28  0  0  0  0  0  0  0  0999 V2000     
   18.6215   18.9173   19.2919 C   0  0  0  0  0  0  0  0  0  0  0  0
   18.8571   18.8317   18.2232 H   0  0  0  0  0  0  0  0  0  0  0  0
   18.1663   17.9714   19.6135 H   0  0  0  0  0  0  0  0  0  0  0  0
   17.8749   19.7136   19.4098 H   0  0  0  0  0  0  0  0  0  0  0  0
   19.8948   19.2258   20.1076 C   0  0  0  0  0  0  0  0  0  0  0  0
   20.3457   20.1582   19.7401 H   0  0  0  0  0  0  0  0  0  0  0  0
   20.6346   18.4296   19.9440 H   0  0  0  0  0  0  0  0  0  0  0  0
   19.5905   19.3522   21.6168 C   0  0  0  0  0  0  0  0  0  0  0  0
   18.8522   20.1503   21.7754 H   0  0  0  0  0  0  0  0  0  0  0  0
   19.1327   18.4185   21.9688 H   0  0  0  0  0  0  0  0  0  0  0  0
   20.8674   19.6574   22.4361 C   0  0  0  0  0  0  0  0  0  0  0  0
   21.3528   20.5520   22.0221 H   0  0  0  0  0  0  0  0  0  0  0  0
   21.5871   18.8352   22.3211 H   0  0  0  0  0  0  0  0  0  0  0  0
   20.5929   19.9005   23.9404 C   0  0  0  0  0  0  0  0  0  0  0  0
   21.5314   20.2130   24.4191 H   0  0  0  0  0  0  0  0  0  0  0  0
   19.8943   20.7410   24.0481 H   0  0  0  0  0  0  0  0  0  0  0  0
   20.0437   18.6516   24.6762 C   0  0  0  0  0  0  0  0  0  0  0  0
   20.7002   17.7971   24.4649 H   0  0  0  0  0  0  0  0  0  0  0  0
   19.0507   18.3900   24.2894 H   0  0  0  0  0  0  0  0  0  0  0  0
   19.9584   18.8476   26.2052 C   0  0  2  0  0  0  0  0  0  0  0  0
   20.9520   19.1232   26.5717 H   0  0  0  0  0  0  0  0  0  0  0  0
   19.5376   17.5374   26.8898 C   0  0  0  0  0  0  0  0  0  0  0  0
   18.5421   17.2175   26.5573 H   0  0  0  0  0  0  0  0  0  0  0  0
   20.2485   16.7332   26.6628 H   0  0  0  0  0  0  0  0  0  0  0  0
   19.5110   17.6600   27.9796 H   0  0  0  0  0  0  0  0  0  0  0  0
   19.0293   19.9663   26.5899 N   0  3  0  0  0  0  0  0  0  0  0  0
   18.0724   19.7803   26.2780 H   0  0  0  0  0  0  0  0  0  0  0  0
   19.3225   20.8546   26.1742 H   0  0  0  0  0  0  0  0  0  0  0  0
   19.0015   20.0972   27.6051 H   0  0  0  0  0  0  0  0  0  0  0  0
  1  2  1  0  0  0  0
  1  3  1  0  0  0  0
  1  4  1  0  0  0  0
  1  5  1  0  0  0  0
  5  6  1  0  0  0  0
  5  7  1  0  0  0  0
  5  8  1  0  0  0  0
  8  9  1  0  0  0  0
  8 10  1  0  0  0  0
  8 11  1  0  0  0  0
 11 12  1  0  0  0  0
 11 13  1  0  0  0  0
 11 14  1  0  0  0  0
 14 15  1  0  0  0  0
 14 16  1  0  0  0  0
 14 17  1  0  0  0  0
 17 18  1  0  0  0  0
 17 19  1  0  0  0  0
 17 20  1  0  0  0  0
 20 21  1  0  0  0  0
 20 22  1  0  0  0  0
 22 23  1  0  0  0  0
 22 24  1  0  0  0  0
 22 25  1  0  0  0  0
 20 26  1  0  0  0  0
 26 27  1  0  0  0  0
 26 28  1  0  0  0  0
 26 29  1  0  0  0  0
M  END
> <VM2 Rank>
8

> <Conf_Id>
985

> <Probability>
3.41

> <Sum Probability>
38.49

> <Delta G>
0.663

> <G>
34.365

> <E>
-3.137

> <-TS>
37.502

> <U+W>
-27.282

> <U>
24.741

> <W>
-52.023

> <W(PB)>
-54.548

> <W(SA)>
2.525

> <Valence>
3.693

> <Coulomb>
19.919

> <VdW>
1.129

> <VdW6>
-8.666

> <VdW12>
9.794

> <Bond>
0.229

> <Angle>
1.104

> <Pdih>
2.361

> <Idih>
0.000

> <Tether>
0.000

$$$$
VeraChem MOL file


 29 28  0  0  0  0  0  0  0  0999 V2000     
   19.1696   20.2659   19.2416 C   0  0  0  0  0  0  0  0  0  0  0  0
   19.9582   21.0289   19.2065 H   0  0  0  0  0  0  0  0  0  0  0  0
   19.3903   19.5103   18.4764 H   0  0  0  0  0  0  0  0  0  0  0  0
   18.2208   20.7490   18.9741 H   0  0  0  0  0  0  0  0  0  0  0  0
   19.0792   19.6266   20.6434 C   0  0  0  0  0  0  0  0  0  0  0  0
   18.2640   18.8898   20.6557 H   0  0  0  0  0  0  0  0  0  0  0  0
   18.8172   20.4045   21.3727 H   0  0  0  0  0  0  0  0  0  0  0  0
   20.4076   18.9429   21.0444 C   0  0  0  0  0  0  0  0  0  0  0  0
   20.6916   18.2282   20.2597 H   0  0  0  0  0  0  0  0  0  0  0  0
   21.2116   19.6907   21.0854 H   0  0  0  0  0  0  0  0  0  0  0  0
   20.3337   18.1855   22.3930 C   0  0  0  0  0  0  0  0  0  0  0  0
   21.2746   17.6358   22.5336 H   0  0  0  0  0  0  0  0  0  0  0  0
   19.5385   17.4287   22.3464 H   0  0  0  0  0  0  0  0  0  0  0  0
   20.1033   19.1115   23.6115 C   0  0  0  0  0  0  0  0  0  0  0  0
   20.8711   19.8975   23.6245 H   0  0  0  0  0  0  0  0  0  0  0  0
   19.1322   19.6123   23.5139 H   0  0  0  0  0  0  0  0  0  0  0  0
   20.1490   18.3245   24.9439 C   0  0  0  0  0  0  0  0  0  0  0  0
   21.1056   17.7888   25.0074 H   0  0  0  0  0  0  0  0  0  0  0  0
   19.3605   17.5601   24.9508 H   0  0  0  0  0  0  0  0  0  0  0  0
   20.0045   19.2314   26.1852 C   0  0  2  0  0  0  0  0  0  0  0  0
   20.7838   19.9984   26.1422 H   0  0  0  0  0  0  0  0  0  0  0  0
   20.2032   18.4128   27.4708 C   0  0  0  0  0  0  0  0  0  0  0  0
   19.4424   17.6276   27.5631 H   0  0  0  0  0  0  0  0  0  0  0  0
   21.1906   17.9346   27.4799 H   0  0  0  0  0  0  0  0  0  0  0  0
   20.1380   19.0578   28.3558 H   0  0  0  0  0  0  0  0  0  0  0  0
   18.6860   19.9548   26.2201 N   0  3  0  0  0  0  0  0  0  0  0  0
   18.5591   20.5408   25.3906 H   0  0  0  0  0  0  0  0  0  0  0  0
   18.6157   20.5646   27.0398 H   0  0  0  0  0  0  0  0  0  0  0  0
   17.9015   19.2985   26.2580 H   0  0  0  0  0  0  0  0  0  0  0  0
  1  2  1  0  0  0  0
  1  3  1  0  0  0  0
  1  4  1  0  0  0  0
  1  5  1  0  0  0  0
  5  6  1  0  0  0  0
  5  7  1  0  0  0  0
  5  8  1  0  0  0  0
  8  9  1  0  0  0  0
  8 10  1  0  0  0  0
  8 11  1  0  0  0  0
 11 12  1  0  0  0  0
 11 13  1  0  0  0  0
 11 14  1  0  0  0  0
 14 15  1  0  0  0  0
 14 16  1  0  0  0  0
 14 17  1  0  0  0  0
 17 18  1  0  0  0  0
 17 19  1  0  0  0  0
 17 20  1  0  0  0  0
 20 21  1  0  0  0  0
 20 22  1  0  0  0  0
 22 23  1  0  0  0  0
 22 24  1  0  0  0  0
 22 25  1  0  0  0  0
 20 26  1  0  0  0  0
 26 27  1  0  0  0  0
 26 28  1  0  0  0  0
 26 29  1  0  0  0  0
M  END
> <VM2 Rank>
9

> <Conf_Id>
1224

> <Probability>
3.25

> <Sum Probability>
41.74

> <Delta G>
0.691

> <G>
34.394

> <E>
-3.084

> <-TS>
37.478

> <U+W>
-27.229

> <U>
25.011

> <W>
-52.240

> <W(PB)>
-54.751

> <W(SA)>
2.511

> <Valence>
3.709

> <Coulomb>
20.124

> <VdW>
1.178

> <VdW6>
-8.623

> <VdW12>
9.801

> <Bond>
0.228

> <Angle>
1.140

> <Pdih>
2.340

> <Idih>
0.000

> <Tether>
0.000

$$$$
VeraChem MOL file


 29 28  0  0  0  0  0  0  0  0999 V2000     
   19.8086   20.3258   19.1846 C   0  0  0  0  0  0  0  0  0  0  0  0
   18.8772   20.9027   19.2548 H   0  0  0  0  0  0  0  0  0  0  0  0
   20.5937   20.9970   18.8129 H   0  0  0  0  0  0  0  0  0  0  0  0
   19.6640   19.5320   18.4402 H   0  0  0  0  0  0  0  0  0  0  0  0
   20.2000   19.7363   20.5561 C   0  0  0  0  0  0  0  0  0  0  0  0
   20.3755   20.5601   21.2605 H   0  0  0  0  0  0  0  0  0  0  0  0
   21.1490   19.1904   20.4605 H   0  0  0  0  0  0  0  0  0  0  0  0
   19.1055   18.7895   21.1026 C   0  0  0  0  0  0  0  0  0  0  0  0
   18.1710   19.3486   21.2483 H   0  0  0  0  0  0  0  0  0  0  0  0
   18.8898   18.0206   20.3479 H   0  0  0  0  0  0  0  0  0  0  0  0
   19.4994   18.0831   22.4230 C   0  0  0  0  0  0  0  0  0  0  0  0
   20.4246   17.5102   22.2711 H   0  0  0  0  0  0  0  0  0  0  0  0
   18.7195   17.3496   22.6705 H   0  0  0  0  0  0  0  0  0  0  0  0
   19.6745   19.0536   23.6157 C   0  0  0  0  0  0  0  0  0  0  0  0
   20.5057   19.7433   23.4180 H   0  0  0  0  0  0  0  0  0  0  0  0
   18.7675   19.6639   23.7189 H   0  0  0  0  0  0  0  0  0  0  0  0
   19.9535   18.2928   24.9347 C   0  0  0  0  0  0  0  0  0  0  0  0
   20.8288   17.6449   24.7918 H   0  0  0  0  0  0  0  0  0  0  0  0
   19.1086   17.6314   25.1685 H   0  0  0  0  0  0  0  0  0  0  0  0
   20.2210   19.2347   26.1284 C   0  0  2  0  0  0  0  0  0  0  0  0
   21.0498   19.8982   25.8629 H   0  0  0  0  0  0  0  0  0  0  0  0
   20.6302   18.4236   27.3681 C   0  0  0  0  0  0  0  0  0  0  0  0
   20.8572   19.0891   28.2101 H   0  0  0  0  0  0  0  0  0  0  0  0
   19.8291   17.7409   27.6781 H   0  0  0  0  0  0  0  0  0  0  0  0
   21.5280   17.8267   27.1645 H   0  0  0  0  0  0  0  0  0  0  0  0
   19.0431   20.1166   26.4408 N   0  3  0  0  0  0  0  0  0  0  0  0
   18.2213   19.5636   26.6983 H   0  0  0  0  0  0  0  0  0  0  0  0
   18.7863   20.6958   25.6369 H   0  0  0  0  0  0  0  0  0  0  0  0
   19.2451   20.7479   27.2214 H   0  0  0  0  0  0  0  0  0  0  0  0
  1  2  1  0  0  0  0
  1  3  1  0  0  0  0
  1  4  1  0  0  0  0
  1  5  1  0  0  0  0
  5  6  1  0  0  0  0
  5  7  1  0  0  0  0
  5  8  1  0  0  0  0
  8  9  1  0  0  0  0
  8 10  1  0  0  0  0
  8 11  1  0  0  0  0
 11 12  1  0  0  0  0
 11 13  1  0  0  0  0
 11 14  1  0  0  0  0
 14 15  1  0  0  0  0
 14 16  1  0  0  0  0
 14 17  1  0  0  0  0
 17 18  1  0  0  0  0
 17 19  1  0  0  0  0
 17 20  1  0  0  0  0
 20 21  1  0  0  0  0
 20 22  1  0  0  0  0
 22 23  1  0  0  0  0
 22 24  1  0  0  0  0
 22 25  1  0  0  0  0
 20 26  1  0  0  0  0
 26 27  1  0  0  0  0
 26 28  1  0  0  0  0
 26 29  1  0  0  0  0
M  END
> <VM2 Rank>
10

> <Conf_Id>
1577

> <Probability>
3.21

> <Sum Probability>
44.95

> <Delta G>
0.698

> <G>
34.400

> <E>
-3.086

> <-TS>
37.486

> <U+W>
-27.231

> <U>
24.821

> <W>
-52.052

> <W(PB)>
-54.566

> <W(SA)>
2.514

> <Valence>
3.711

> <Coulomb>
19.938

> <VdW>
1.171

> <VdW6>
-8.614

> <VdW12>
9.786

> <Bond>
0.226

> <Angle>
1.142

> <Pdih>
2.342

> <Idih>
0.000

> <Tether>
0.000

$$$$
VeraChem MOL file


 29 28  0  0  0  0  0  0  0  0999 V2000     
   20.2023   19.6774   18.9796 C   0  0  0  0  0  0  0  0  0  0  0  0
   21.2102   19.2442   18.9366 H   0  0  0  0  0  0  0  0  0  0  0  0
   19.4975   18.9455   18.5641 H   0  0  0  0  0  0  0  0  0  0  0  0
   20.1886   20.5639   18.3322 H   0  0  0  0  0  0  0  0  0  0  0  0
   19.8218   20.0539   20.4271 C   0  0  0  0  0  0  0  0  0  0  0  0
   18.8241   20.5150   20.4336 H   0  0  0  0  0  0  0  0  0  0  0  0
   20.5237   20.8114   20.8032 H   0  0  0  0  0  0  0  0  0  0  0  0
   19.8334   18.8228   21.3600 C   0  0  0  0  0  0  0  0  0  0  0  0
   19.1323   18.0678   20.9783 H   0  0  0  0  0  0  0  0  0  0  0  0
   20.8319   18.3642   21.3486 H   0  0  0  0  0  0  0  0  0  0  0  0
   19.4529   19.1959   22.8104 C   0  0  0  0  0  0  0  0  0  0  0  0
   18.4529   19.6511   22.8212 H   0  0  0  0  0  0  0  0  0  0  0  0
   20.1538   19.9555   23.1814 H   0  0  0  0  0  0  0  0  0  0  0  0
   19.4690   17.9613   23.7431 C   0  0  0  0  0  0  0  0  0  0  0  0
   18.8048   17.1900   23.3295 H   0  0  0  0  0  0  0  0  0  0  0  0
   20.4734   17.5178   23.7571 H   0  0  0  0  0  0  0  0  0  0  0  0
   19.0079   18.2814   25.1885 C   0  0  0  0  0  0  0  0  0  0  0  0
   19.0305   17.3585   25.7831 H   0  0  0  0  0  0  0  0  0  0  0  0
   17.9564   18.5959   25.1548 H   0  0  0  0  0  0  0  0  0  0  0  0
   19.8287   19.3748   25.9122 C   0  0  2  0  0  0  0  0  0  0  0  0
   19.7920   20.2886   25.3119 H   0  0  0  0  0  0  0  0  0  0  0  0
   21.3023   18.9686   26.0915 C   0  0  0  0  0  0  0  0  0  0  0  0
   21.3890   18.0237   26.6422 H   0  0  0  0  0  0  0  0  0  0  0  0
   21.8025   18.8496   25.1234 H   0  0  0  0  0  0  0  0  0  0  0  0
   21.8506   19.7386   26.6479 H   0  0  0  0  0  0  0  0  0  0  0  0
   19.2176   19.7198   27.2417 N   0  3  0  0  0  0  0  0  0  0  0  0
   18.2481   20.0340   27.1411 H   0  0  0  0  0  0  0  0  0  0  0  0
   19.7346   20.4711   27.7075 H   0  0  0  0  0  0  0  0  0  0  0  0
   19.2158   18.9138   27.8727 H   0  0  0  0  0  0  0  0  0  0  0  0
  1  2  1  0  0  0  0
  1  3  1  0  0  0  0
  1  4  1  0  0  0  0
  1  5  1  0  0  0  0
  5  6  1  0  0  0  0
  5  7  1  0  0  0  0
  5  8  1  0  0  0  0
  8  9  1  0  0  0  0
  8 10  1  0  0  0  0
  8 11  1  0  0  0  0
 11 12  1  0  0  0  0
 11 13  1  0  0  0  0
 11 14  1  0  0  0  0
 14 15  1  0  0  0  0
 14 16  1  0  0  0  0
 14 17  1  0  0  0  0
 17 18  1  0  0  0  0
 17 19  1  0  0  0  0
 17 20  1  0  0  0  0
 20 21  1  0  0  0  0
 20 22  1  0  0  0  0
 22 23  1  0  0  0  0
 22 24  1  0  0  0  0
 22 25  1  0  0  0  0
 20 26  1  0  0  0  0
 26 27  1  0  0  0  0
 26 28  1  0  0  0  0
 26 29  1  0  0  0  0
M  END
> <VM2 Rank>
11

> <Conf_Id>
199

> <Probability>
2.24

> <Sum Probability>
47.20

> <Delta G>
0.912

> <G>
34.614

> <E>
-3.060

> <-TS>
37.674

> <U+W>
-27.205

> <U>
24.848

> <W>
-52.052

> <W(PB)>
-54.585

> <W(SA)>
2.533

> <Valence>
3.959

> <Coulomb>
19.891

> <VdW>
0.998

> <VdW6>
-9.070

> <VdW12>
10.067

> <Bond>
0.229

> <Angle>
1.422

> <Pdih>
2.308

> <Idih>
0.000

> <Tether>
0.000

$$$$
VeraChem MOL file


 29 28  0  0  0  0  0  0  0  0999 V2000     
   19.1001   20.0458   19.3977 C   0  0  0  0  0  0  0  0  0  0  0  0
   18.2249   20.1768   20.0461 H   0  0  0  0  0  0  0  0  0  0  0  0
   19.7034   20.9617   19.4439 H   0  0  0  0  0  0  0  0  0  0  0  0
   18.7344   19.9361   18.3685 H   0  0  0  0  0  0  0  0  0  0  0  0
   19.9326   18.8108   19.8102 C   0  0  0  0  0  0  0  0  0  0  0  0
   20.7225   18.6509   19.0631 H   0  0  0  0  0  0  0  0  0  0  0  0
   19.2993   17.9130   19.7851 H   0  0  0  0  0  0  0  0  0  0  0  0
   20.5891   18.9493   21.2049 C   0  0  0  0  0  0  0  0  0  0  0  0
   21.2467   18.0843   21.3679 H   0  0  0  0  0  0  0  0  0  0  0  0
   21.2366   19.8369   21.2189 H   0  0  0  0  0  0  0  0  0  0  0  0
   19.5656   19.0315   22.3627 C   0  0  0  0  0  0  0  0  0  0  0  0
   18.8875   18.1683   22.3147 H   0  0  0  0  0  0  0  0  0  0  0  0
   18.9464   19.9311   22.2501 H   0  0  0  0  0  0  0  0  0  0  0  0
   20.2619   19.0644   23.7422 C   0  0  0  0  0  0  0  0  0  0  0  0
   20.8823   18.1651   23.8508 H   0  0  0  0  0  0  0  0  0  0  0  0
   20.9389   19.9286   23.7901 H   0  0  0  0  0  0  0  0  0  0  0  0
   19.2374   19.1456   24.9005 C   0  0  0  0  0  0  0  0  0  0  0  0
   18.6005   18.2510   24.8950 H   0  0  0  0  0  0  0  0  0  0  0  0
   18.5734   20.0014   24.7202 H   0  0  0  0  0  0  0  0  0  0  0  0
   19.8847   19.3147   26.2940 C   0  0  2  0  0  0  0  0  0  0  0  0
   20.5456   20.1864   26.2620 H   0  0  0  0  0  0  0  0  0  0  0  0
   20.7178   18.0859   26.7004 C   0  0  0  0  0  0  0  0  0  0  0  0
   20.1107   17.1722   26.6851 H   0  0  0  0  0  0  0  0  0  0  0  0
   21.5719   17.9429   26.0285 H   0  0  0  0  0  0  0  0  0  0  0  0
   21.1201   18.2099   27.7134 H   0  0  0  0  0  0  0  0  0  0  0  0
   18.8467   19.6080   27.3414 N   0  3  0  0  0  0  0  0  0  0  0  0
   18.1836   18.8343   27.4377 H   0  0  0  0  0  0  0  0  0  0  0  0
   18.3080   20.4487   27.1135 H   0  0  0  0  0  0  0  0  0  0  0  0
   19.2744   19.7601   28.2594 H   0  0  0  0  0  0  0  0  0  0  0  0
  1  2  1  0  0  0  0
  1  3  1  0  0  0  0
  1  4  1  0  0  0  0
  1  5  1  0  0  0  0
  5  6  1  0  0  0  0
  5  7  1  0  0  0  0
  5  8  1  0  0  0  0
  8  9  1  0  0  0  0
  8 10  1  0  0  0  0
  8 11  1  0  0  0  0
 11 12  1  0  0  0  0
 11 13  1  0  0  0  0
 11 14  1  0  0  0  0
 14 15  1  0  0  0  0
 14 16  1  0  0  0  0
 14 17  1  0  0  0  0
 17 18  1  0  0  0  0
 17 19  1  0  0  0  0
 17 20  1  0  0  0  0
 20 21  1  0  0  0  0
 20 22  1  0  0  0  0
 22 23  1  0  0  0  0
 22 24  1  0  0  0  0
 22 25  1  0  0  0  0
 20 26  1  0  0  0  0
 26 27  1  0  0  0  0
 26 28  1  0  0  0  0
 26 29  1  0  0  0  0
M  END
> <VM2 Rank>
12

> <Conf_Id>
1580

> <Probability>
1.86

> <Sum Probability>
49.06

> <Delta G>
1.023

> <G>
34.726

> <E>
-2.783

> <-TS>
37.509

> <U+W>
-26.928

> <U>
24.926

> <W>
-51.852

> <W(PB)>
-54.366

> <W(SA)>
2.514

> <Valence>
4.212

> <Coulomb>
19.386

> <VdW>
1.329

> <VdW6>
-8.714

> <VdW12>
10.043

> <Bond>
0.235

> <Angle>
1.400

> <Pdih>
2.577

> <Idih>
0.000

> <Tether>
0.000

$$$$
VeraChem MOL file


 29 28  0  0  0  0  0  0  0  0999 V2000     
   20.4590   19.9131   19.1357 C   0  0  0  0  0  0  0  0  0  0  0  0
   21.3873   19.3297   19.0800 H   0  0  0  0  0  0  0  0  0  0  0  0
   19.7391   19.4787   18.4298 H   0  0  0  0  0  0  0  0  0  0  0  0
   20.6825   20.9350   18.8026 H   0  0  0  0  0  0  0  0  0  0  0  0
   19.8938   19.9195   20.5718 C   0  0  0  0  0  0  0  0  0  0  0  0
   18.9831   20.5339   20.6020 H   0  0  0  0  0  0  0  0  0  0  0  0
   20.6232   20.3971   21.2392 H   0  0  0  0  0  0  0  0  0  0  0  0
   19.5750   18.4884   21.0649 C   0  0  0  0  0  0  0  0  0  0  0  0
   18.9072   18.0020   20.3405 H   0  0  0  0  0  0  0  0  0  0  0  0
   20.4961   17.8897   21.0849 H   0  0  0  0  0  0  0  0  0  0  0  0
   18.8995   18.4486   22.4577 C   0  0  0  0  0  0  0  0  0  0  0  0
   18.6069   17.4114   22.6724 H   0  0  0  0  0  0  0  0  0  0  0  0
   17.9690   19.0324   22.4311 H   0  0  0  0  0  0  0  0  0  0  0  0
   19.8076   18.9623   23.6008 C   0  0  0  0  0  0  0  0  0  0  0  0
   20.7586   18.4146   23.5749 H   0  0  0  0  0  0  0  0  0  0  0  0
   20.0424   20.0234   23.4447 H   0  0  0  0  0  0  0  0  0  0  0  0
   19.1346   18.7922   24.9850 C   0  0  0  0  0  0  0  0  0  0  0  0
   18.9611   17.7264   25.1844 H   0  0  0  0  0  0  0  0  0  0  0  0
   18.1455   19.2680   24.9530 H   0  0  0  0  0  0  0  0  0  0  0  0
   19.9389   19.4145   26.1493 C   0  0  2  0  0  0  0  0  0  0  0  0
   20.1330   20.4645   25.9097 H   0  0  0  0  0  0  0  0  0  0  0  0
   21.2883   18.7065   26.3664 C   0  0  0  0  0  0  0  0  0  0  0  0
   21.9459   18.8261   25.4977 H   0  0  0  0  0  0  0  0  0  0  0  0
   21.8130   19.1320   27.2307 H   0  0  0  0  0  0  0  0  0  0  0  0
   21.1488   17.6335   26.5476 H   0  0  0  0  0  0  0  0  0  0  0  0
   19.1394   19.4110   27.4225 N   0  3  0  0  0  0  0  0  0  0  0  0
   19.6527   19.8580   28.1876 H   0  0  0  0  0  0  0  0  0  0  0  0
   18.9155   18.4578   27.7209 H   0  0  0  0  0  0  0  0  0  0  0  0
   18.2547   19.9154   27.3138 H   0  0  0  0  0  0  0  0  0  0  0  0
  1  2  1  0  0  0  0
  1  3  1  0  0  0  0
  1  4  1  0  0  0  0
  1  5  1  0  0  0  0
  5  6  1  0  0  0  0
  5  7  1  0  0  0  0
  5  8  1  0  0  0  0
  8  9  1  0  0  0  0
  8 10  1  0  0  0  0
  8 11  1  0  0  0  0
 11 12  1  0  0  0  0
 11 13  1  0  0  0  0
 11 14  1  0  0  0  0
 14 15  1  0  0  0  0
 14 16  1  0  0  0  0
 14 17  1  0  0  0  0
 17 18  1  0  0  0  0
 17 19  1  0  0  0  0
 17 20  1  0  0  0  0
 20 21  1  0  0  0  0
 20 22  1  0  0  0  0
 22 23  1  0  0  0  0
 22 24  1  0  0  0  0
 22 25  1  0  0  0  0
 20 26  1  0  0  0  0
 26 27  1  0  0  0  0
 26 28  1  0  0  0  0
 26 29  1  0  0  0  0
M  END
> <VM2 Rank>
13

> <Conf_Id>
1600

> <Probability>
1.69

> <Sum Probability>
50.75

> <Delta G>
1.081

> <G>
34.784

> <E>
-2.718

> <-TS>
37.502

> <U+W>
-26.863

> <U>
25.086

> <W>
-51.949

> <W(PB)>
-54.501

> <W(SA)>
2.552

> <Valence>
4.251

> <Coulomb>
19.539

> <VdW>
1.297

> <VdW6>
-8.775

> <VdW12>
10.072

> <Bond>
0.238

> <Angle>
1.421

> <Pdih>
2.591

> <Idih>
0.000

> <Tether>
0.000

$$$$
VeraChem MOL file


 29 28  0  0  0  0  0  0  0  0999 V2000     
   18.9114   18.7274   19.3817 C   0  0  0  0  0  0  0  0  0  0  0  0
   19.2484   17.6827   19.3810 H   0  0  0  0  0  0  0  0  0  0  0  0
   18.0329   18.8055   20.0341 H   0  0  0  0  0  0  0  0  0  0  0  0
   18.5886   18.9768   18.3626 H   0  0  0  0  0  0  0  0  0  0  0  0
   20.0432   19.6759   19.8376 C   0  0  0  0  0  0  0  0  0  0  0  0
   19.6726   20.7103   19.8587 H   0  0  0  0  0  0  0  0  0  0  0  0
   20.8475   19.6527   19.0891 H   0  0  0  0  0  0  0  0  0  0  0  0
   20.6383   19.3049   21.2173 C   0  0  0  0  0  0  0  0  0  0  0  0
   21.0259   18.2773   21.1851 H   0  0  0  0  0  0  0  0  0  0  0  0
   21.5024   19.9554   21.4106 H   0  0  0  0  0  0  0  0  0  0  0  0
   19.6292   19.4460   22.3820 C   0  0  0  0  0  0  0  0  0  0  0  0
   18.7932   18.7489   22.2388 H   0  0  0  0  0  0  0  0  0  0  0  0
   19.2048   20.4595   22.3779 H   0  0  0  0  0  0  0  0  0  0  0  0
   20.2909   19.1676   23.7507 C   0  0  0  0  0  0  0  0  0  0  0  0
   20.7220   18.1580   23.7394 H   0  0  0  0  0  0  0  0  0  0  0  0
   21.1221   19.8694   23.9062 H   0  0  0  0  0  0  0  0  0  0  0  0
   19.2788   19.3004   24.9151 C   0  0  0  0  0  0  0  0  0  0  0  0
   18.4804   18.5554   24.7987 H   0  0  0  0  0  0  0  0  0  0  0  0
   18.7975   20.2851   24.8489 H   0  0  0  0  0  0  0  0  0  0  0  0
   19.9186   19.1624   26.3154 C   0  0  2  0  0  0  0  0  0  0  0  0
   20.7370   19.8850   26.3916 H   0  0  0  0  0  0  0  0  0  0  0  0
   20.4886   17.7532   26.5571 C   0  0  0  0  0  0  0  0  0  0  0  0
   19.7158   16.9851   26.4285 H   0  0  0  0  0  0  0  0  0  0  0  0
   21.3117   17.5320   25.8678 H   0  0  0  0  0  0  0  0  0  0  0  0
   20.8873   17.6672   27.5754 H   0  0  0  0  0  0  0  0  0  0  0  0
   18.9369   19.5182   27.3971 N   0  3  0  0  0  0  0  0  0  0  0  0
   18.1341   18.8831   27.3972 H   0  0  0  0  0  0  0  0  0  0  0  0
   18.5766   20.4699   27.2812 H   0  0  0  0  0  0  0  0  0  0  0  0
   19.3675   19.4666   28.3247 H   0  0  0  0  0  0  0  0  0  0  0  0
  1  2  1  0  0  0  0
  1  3  1  0  0  0  0
  1  4  1  0  0  0  0
  1  5  1  0  0  0  0
  5  6  1  0  0  0  0
  5  7  1  0  0  0  0
  5  8  1  0  0  0  0
  8  9  1  0  0  0  0
  8 10  1  0  0  0  0
  8 11  1  0  0  0  0
 11 12  1  0  0  0  0
 11 13  1  0  0  0  0
 11 14  1  0  0  0  0
 14 15  1  0  0  0  0
 14 16  1  0  0  0  0
 14 17  1  0  0  0  0
 17 18  1  0  0  0  0
 17 19  1  0  0  0  0
 17 20  1  0  0  0  0
 20 21  1  0  0  0  0
 20 22  1  0  0  0  0
 22 23  1  0  0  0  0
 22 24  1  0  0  0  0
 22 25  1  0  0  0  0
 20 26  1  0  0  0  0
 26 27  1  0  0  0  0
 26 28  1  0  0  0  0
 26 29  1  0  0  0  0
M  END
> <VM2 Rank>
14

> <Conf_Id>
1531

> <Probability>
1.69

> <Sum Probability>
52.43

> <Delta G>
1.082

> <G>
34.784

> <E>
-2.725

> <-TS>
37.509

> <U+W>
-26.870

> <U>
24.913

> <W>
-51.782

> <W(PB)>
-54.309

> <W(SA)>
2.527

> <Valence>
4.212

> <Coulomb>
19.377

> <VdW>
1.324

> <VdW6>
-8.716

> <VdW12>
10.039

> <Bond>
0.234

> <Angle>
1.400

> <Pdih>
2.578

> <Idih>
0.000

> <Tether>
0.000

$$$$
VeraChem MOL file


 29 28  0  0  0  0  0  0  0  0999 V2000     
   20.6835   19.4588   19.1717 C   0  0  0  0  0  0  0  0  0  0  0  0
   20.3537   19.6745   18.1472 H   0  0  0  0  0  0  0  0  0  0  0  0
   21.3881   20.2454   19.4717 H   0  0  0  0  0  0  0  0  0  0  0  0
   21.2235   18.5030   19.1579 H   0  0  0  0  0  0  0  0  0  0  0  0
   19.4764   19.3997   20.1316 C   0  0  0  0  0  0  0  0  0  0  0  0
   18.7738   18.6285   19.7861 H   0  0  0  0  0  0  0  0  0  0  0  0
   18.9375   20.3571   20.0993 H   0  0  0  0  0  0  0  0  0  0  0  0
   19.9132   19.0963   21.5818 C   0  0  0  0  0  0  0  0  0  0  0  0
   20.4495   18.1378   21.6093 H   0  0  0  0  0  0  0  0  0  0  0  0
   20.6209   19.8683   21.9108 H   0  0  0  0  0  0  0  0  0  0  0  0
   18.7037   19.0409   22.5458 C   0  0  0  0  0  0  0  0  0  0  0  0
   17.9704   18.3206   22.1576 H   0  0  0  0  0  0  0  0  0  0  0  0
   18.1981   20.0163   22.5629 H   0  0  0  0  0  0  0  0  0  0  0  0
   19.0805   18.6260   23.9893 C   0  0  0  0  0  0  0  0  0  0  0  0
   18.1520   18.4987   24.5610 H   0  0  0  0  0  0  0  0  0  0  0  0
   19.5669   17.6419   23.9638 H   0  0  0  0  0  0  0  0  0  0  0  0
   19.9950   19.6562   24.7068 C   0  0  0  0  0  0  0  0  0  0  0  0
   19.5457   20.6548   24.6284 H   0  0  0  0  0  0  0  0  0  0  0  0
   20.9609   19.7160   24.1901 H   0  0  0  0  0  0  0  0  0  0  0  0
   20.2635   19.3558   26.2004 C   0  0  2  0  0  0  0  0  0  0  0  0
   20.9054   20.1556   26.5826 H   0  0  0  0  0  0  0  0  0  0  0  0
   21.0105   18.0251   26.3965 C   0  0  0  0  0  0  0  0  0  0  0  0
   20.3876   17.1662   26.1196 H   0  0  0  0  0  0  0  0  0  0  0  0
   21.9240   17.9977   25.7895 H   0  0  0  0  0  0  0  0  0  0  0  0
   21.3046   17.9013   27.4460 H   0  0  0  0  0  0  0  0  0  0  0  0
   19.0097   19.3971   27.0299 N   0  3  0  0  0  0  0  0  0  0  0  0
   19.2140   19.2589   28.0238 H   0  0  0  0  0  0  0  0  0  0  0  0
   18.3529   18.6656   26.7470 H   0  0  0  0  0  0  0  0  0  0  0  0
   18.5285   20.2964   26.9384 H   0  0  0  0  0  0  0  0  0  0  0  0
  1  2  1  0  0  0  0
  1  3  1  0  0  0  0
  1  4  1  0  0  0  0
  1  5  1  0  0  0  0
  5  6  1  0  0  0  0
  5  7  1  0  0  0  0
  5  8  1  0  0  0  0
  8  9  1  0  0  0  0
  8 10  1  0  0  0  0
  8 11  1  0  0  0  0
 11 12  1  0  0  0  0
 11 13  1  0  0  0  0
 11 14  1  0  0  0  0
 14 15  1  0  0  0  0
 14 16  1  0  0  0  0
 14 17  1  0  0  0  0
 17 18  1  0  0  0  0
 17 19  1  0  0  0  0
 17 20  1  0  0  0  0
 20 21  1  0  0  0  0
 20 22  1  0  0  0  0
 22 23  1  0  0  0  0
 22 24  1  0  0  0  0
 22 25  1  0  0  0  0
 20 26  1  0  0  0  0
 26 27  1  0  0  0  0
 26 28  1  0  0  0  0
 26 29  1  0  0  0  0
M  END
> <VM2 Rank>
15

> <Conf_Id>
986

> <Probability>
1.67

> <Sum Probability>
54.10

> <Delta G>
1.088

> <G>
34.790

> <E>
-2.853

> <-TS>
37.643

> <U+W>
-26.997

> <U>
25.162

> <W>
-52.159

> <W(PB)>
-54.678

> <W(SA)>
2.519

> <Valence>
4.202

> <Coulomb>
19.686

> <VdW>
1.273

> <VdW6>
-9.288

> <VdW12>
10.561

> <Bond>
0.271

> <Angle>
1.436

> <Pdih>
2.495

> <Idih>
0.000

> <Tether>
0.000

$$$$
VeraChem MOL file


 29 28  0  0  0  0  0  0  0  0999 V2000     
   18.5741   19.2296   19.2953 C   0  0  0  0  0  0  0  0  0  0  0  0
   18.7103   19.5553   18.2559 H   0  0  0  0  0  0  0  0  0  0  0  0
   18.3246   18.1605   19.2837 H   0  0  0  0  0  0  0  0  0  0  0  0
   17.7174   19.7763   19.7104 H   0  0  0  0  0  0  0  0  0  0  0  0
   19.8519   19.4917   20.1203 C   0  0  0  0  0  0  0  0  0  0  0  0
   20.0946   20.5631   20.0863 H   0  0  0  0  0  0  0  0  0  0  0  0
   20.6972   18.9602   19.6612 H   0  0  0  0  0  0  0  0  0  0  0  0
   19.6871   19.0411   21.5886 C   0  0  0  0  0  0  0  0  0  0  0  0
   18.8349   19.5720   22.0324 H   0  0  0  0  0  0  0  0  0  0  0  0
   19.4466   17.9694   21.6175 H   0  0  0  0  0  0  0  0  0  0  0  0
   20.9663   19.3072   22.4178 C   0  0  0  0  0  0  0  0  0  0  0  0
   21.1801   20.3849   22.4338 H   0  0  0  0  0  0  0  0  0  0  0  0
   21.8218   18.8307   21.9193 H   0  0  0  0  0  0  0  0  0  0  0  0
   20.8837   18.7725   23.8686 C   0  0  0  0  0  0  0  0  0  0  0  0
   20.7017   17.6901   23.8413 H   0  0  0  0  0  0  0  0  0  0  0  0
   21.8628   18.9116   24.3477 H   0  0  0  0  0  0  0  0  0  0  0  0
   19.7987   19.4766   24.7236 C   0  0  0  0  0  0  0  0  0  0  0  0
   18.7997   19.2336   24.3398 H   0  0  0  0  0  0  0  0  0  0  0  0
   19.9198   20.5628   24.6179 H   0  0  0  0  0  0  0  0  0  0  0  0
   19.8678   19.1198   26.2258 C   0  0  2  0  0  0  0  0  0  0  0  0
   20.8794   19.3349   26.5835 H   0  0  0  0  0  0  0  0  0  0  0  0
   19.5665   17.6323   26.4817 C   0  0  0  0  0  0  0  0  0  0  0  0
   20.3203   16.9871   26.0158 H   0  0  0  0  0  0  0  0  0  0  0  0
   19.5743   17.4160   27.5571 H   0  0  0  0  0  0  0  0  0  0  0  0
   18.5822   17.3529   26.0856 H   0  0  0  0  0  0  0  0  0  0  0  0
   18.9399   19.9852   27.0324 N   0  3  0  0  0  0  0  0  0  0  0  0
   19.1507   20.9799   26.9105 H   0  0  0  0  0  0  0  0  0  0  0  0
   19.0118   19.7791   28.0329 H   0  0  0  0  0  0  0  0  0  0  0  0
   17.9636   19.8418   26.7604 H   0  0  0  0  0  0  0  0  0  0  0  0
  1  2  1  0  0  0  0
  1  3  1  0  0  0  0
  1  4  1  0  0  0  0
  1  5  1  0  0  0  0
  5  6  1  0  0  0  0
  5  7  1  0  0  0  0
  5  8  1  0  0  0  0
  8  9  1  0  0  0  0
  8 10  1  0  0  0  0
  8 11  1  0  0  0  0
 11 12  1  0  0  0  0
 11 13  1  0  0  0  0
 11 14  1  0  0  0  0
 14 15  1  0  0  0  0
 14 16  1  0  0  0  0
 14 17  1  0  0  0  0
 17 18  1  0  0  0  0
 17 19  1  0  0  0  0
 17 20  1  0  0  0  0
 20 21  1  0  0  0  0
 20 22  1  0  0  0  0
 22 23  1  0  0  0  0
 22 24  1  0  0  0  0
 22 25  1  0  0  0  0
 20 26  1  0  0  0  0
 26 27  1  0  0  0  0
 26 28  1  0  0  0  0
 26 29  1  0  0  0  0
M  END
> <VM2 Rank>
16

> <Conf_Id>
1007

> <Probability>
1.60

> <Sum Probability>
55.70

> <Delta G>
1.115

> <G>
34.817

> <E>
-2.717

> <-TS>
37.534

> <U+W>
-26.862

> <U>
25.129

> <W>
-51.990

> <W(PB)>
-54.525

> <W(SA)>
2.535

> <Valence>
4.206

> <Coulomb>
19.678

> <VdW>
1.245

> <VdW6>
-8.834

> <VdW12>
10.079

> <Bond>
0.240

> <Angle>
1.353

> <Pdih>
2.613

> <Idih>
0.000

> <Tether>
0.000

$$$$
VeraChem MOL file


 29 28  0  0  0  0  0  0  0  0999 V2000     
   20.6588   19.2269   19.1208 C   0  0  0  0  0  0  0  0  0  0  0  0
   19.8017   19.1999   18.4353 H   0  0  0  0  0  0  0  0  0  0  0  0
   21.0743   20.2430   19.1090 H   0  0  0  0  0  0  0  0  0  0  0  0
   21.4247   18.5448   18.7294 H   0  0  0  0  0  0  0  0  0  0  0  0
   20.2411   18.8156   20.5485 C   0  0  0  0  0  0  0  0  0  0  0  0
   21.1302   18.8150   21.1928 H   0  0  0  0  0  0  0  0  0  0  0  0
   19.8571   17.7860   20.5332 H   0  0  0  0  0  0  0  0  0  0  0  0
   19.1646   19.7663   21.1232 C   0  0  0  0  0  0  0  0  0  0  0  0
   19.5682   20.7861   21.1895 H   0  0  0  0  0  0  0  0  0  0  0  0
   18.3204   19.8142   20.4216 H   0  0  0  0  0  0  0  0  0  0  0  0
   18.6262   19.3300   22.5080 C   0  0  0  0  0  0  0  0  0  0  0  0
   18.2103   18.3154   22.4377 H   0  0  0  0  0  0  0  0  0  0  0  0
   17.7888   19.9885   22.7771 H   0  0  0  0  0  0  0  0  0  0  0  0
   19.6905   19.3818   23.6306 C   0  0  0  0  0  0  0  0  0  0  0  0
   20.4971   18.6750   23.4014 H   0  0  0  0  0  0  0  0  0  0  0  0
   20.1396   20.3840   23.6641 H   0  0  0  0  0  0  0  0  0  0  0  0
   19.0803   19.0433   25.0131 C   0  0  0  0  0  0  0  0  0  0  0  0
   18.6851   18.0188   25.0024 H   0  0  0  0  0  0  0  0  0  0  0  0
   18.2225   19.7059   25.1887 H   0  0  0  0  0  0  0  0  0  0  0  0
   20.0710   19.2064   26.1885 C   0  0  2  0  0  0  0  0  0  0  0  0
   20.4827   20.2198   26.1524 H   0  0  0  0  0  0  0  0  0  0  0  0
   21.2363   18.2038   26.1101 C   0  0  0  0  0  0  0  0  0  0  0  0
   20.8692   17.1704   26.0771 H   0  0  0  0  0  0  0  0  0  0  0  0
   21.8539   18.3781   25.2215 H   0  0  0  0  0  0  0  0  0  0  0  0
   21.8915   18.3041   26.9841 H   0  0  0  0  0  0  0  0  0  0  0  0
   19.3671   19.0819   27.5111 N   0  3  0  0  0  0  0  0  0  0  0  0
   18.6143   19.7701   27.6039 H   0  0  0  0  0  0  0  0  0  0  0  0
   20.0118   19.2287   28.2932 H   0  0  0  0  0  0  0  0  0  0  0  0
   18.9516   18.1537   27.6278 H   0  0  0  0  0  0  0  0  0  0  0  0
  1  2  1  0  0  0  0
  1  3  1  0  0  0  0
  1  4  1  0  0  0  0
  1  5  1  0  0  0  0
  5  6  1  0  0  0  0
  5  7  1  0  0  0  0
  5  8  1  0  0  0  0
  8  9  1  0  0  0  0
  8 10  1  0  0  0  0
  8 11  1  0  0  0  0
 11 12  1  0  0  0  0
 11 13  1  0  0  0  0
 11 14  1  0  0  0  0
 14 15  1  0  0  0  0
 14 16  1  0  0  0  0
 14 17  1  0  0  0  0
 17 18  1  0  0  0  0
 17 19  1  0  0  0  0
 17 20  1  0  0  0  0
 20 21  1  0  0  0  0
 20 22  1  0  0  0  0
 22 23  1  0  0  0  0
 22 24  1  0  0  0  0
 22 25  1  0  0  0  0
 20 26  1  0  0  0  0
 26 27  1  0  0  0  0
 26 28  1  0  0  0  0
 26 29  1  0  0  0  0
M  END
> <VM2 Rank>
17

> <Conf_Id>
1345

> <Probability>
1.58

> <Sum Probability>
57.28

> <Delta G>
1.121

> <G>
34.823

> <E>
-2.670

> <-TS>
37.493

> <U+W>
-26.815

> <U>
25.086

> <W>
-51.901

> <W(PB)>
-54.413

> <W(SA)>
2.513

> <Valence>
4.252

> <Coulomb>
19.525

> <VdW>
1.309

> <VdW6>
-8.788

> <VdW12>
10.097

> <Bond>
0.241

> <Angle>
1.423

> <Pdih>
2.589

> <Idih>
0.000

> <Tether>
0.000

$$$$
VeraChem MOL file


 29 28  0  0  0  0  0  0  0  0999 V2000     
   20.3066   18.5733   19.5179 C   0  0  0  0  0  0  0  0  0  0  0  0
   21.2471   19.0666   19.7931 H   0  0  0  0  0  0  0  0  0  0  0  0
   20.3505   17.5318   19.8621 H   0  0  0  0  0  0  0  0  0  0  0  0
   20.2476   18.5626   18.4219 H   0  0  0  0  0  0  0  0  0  0  0  0
   19.0853   19.3057   20.1183 C   0  0  0  0  0  0  0  0  0  0  0  0
   18.1677   18.8486   19.7224 H   0  0  0  0  0  0  0  0  0  0  0  0
   19.0786   20.3514   19.7802 H   0  0  0  0  0  0  0  0  0  0  0  0
   19.0391   19.2549   21.6644 C   0  0  0  0  0  0  0  0  0  0  0  0
   18.0951   19.7053   22.0005 H   0  0  0  0  0  0  0  0  0  0  0  0
   19.0164   18.2060   21.9880 H   0  0  0  0  0  0  0  0  0  0  0  0
   20.2222   19.9950   22.3379 C   0  0  0  0  0  0  0  0  0  0  0  0
   20.3037   21.0039   21.9106 H   0  0  0  0  0  0  0  0  0  0  0  0
   21.1662   19.4837   22.1079 H   0  0  0  0  0  0  0  0  0  0  0  0
   20.0731   20.1218   23.8738 C   0  0  0  0  0  0  0  0  0  0  0  0
   20.8984   20.7399   24.2539 H   0  0  0  0  0  0  0  0  0  0  0  0
   19.1468   20.6656   24.1024 H   0  0  0  0  0  0  0  0  0  0  0  0
   20.0861   18.7562   24.6069 C   0  0  0  0  0  0  0  0  0  0  0  0
   20.9668   18.1867   24.2816 H   0  0  0  0  0  0  0  0  0  0  0  0
   19.2060   18.1656   24.3226 H   0  0  0  0  0  0  0  0  0  0  0  0
   20.1269   18.9022   26.1432 C   0  0  2  0  0  0  0  0  0  0  0  0
   21.0002   19.5065   26.4073 H   0  0  0  0  0  0  0  0  0  0  0  0
   20.2746   17.5242   26.8077 C   0  0  0  0  0  0  0  0  0  0  0  0
   21.1866   17.0210   26.4632 H   0  0  0  0  0  0  0  0  0  0  0  0
   20.3414   17.6241   27.8981 H   0  0  0  0  0  0  0  0  0  0  0  0
   19.4191   16.8776   26.5754 H   0  0  0  0  0  0  0  0  0  0  0  0
   18.9222   19.6227   26.6839 N   0  3  0  0  0  0  0  0  0  0  0  0
   18.8355   20.5594   26.2805 H   0  0  0  0  0  0  0  0  0  0  0  0
   18.9758   19.7304   27.7008 H   0  0  0  0  0  0  0  0  0  0  0  0
   18.0587   19.1149   26.4741 H   0  0  0  0  0  0  0  0  0  0  0  0
  1  2  1  0  0  0  0
  1  3  1  0  0  0  0
  1  4  1  0  0  0  0
  1  5  1  0  0  0  0
  5  6  1  0  0  0  0
  5  7  1  0  0  0  0
  5  8  1  0  0  0  0
  8  9  1  0  0  0  0
  8 10  1  0  0  0  0
  8 11  1  0  0  0  0
 11 12  1  0  0  0  0
 11 13  1  0  0  0  0
 11 14  1  0  0  0  0
 14 15  1  0  0  0  0
 14 16  1  0  0  0  0
 14 17  1  0  0  0  0
 17 18  1  0  0  0  0
 17 19  1  0  0  0  0
 17 20  1  0  0  0  0
 20 21  1  0  0  0  0
 20 22  1  0  0  0  0
 22 23  1  0  0  0  0
 22 24  1  0  0  0  0
 22 25  1  0  0  0  0
 20 26  1  0  0  0  0
 26 27  1  0  0  0  0
 26 28  1  0  0  0  0
 26 29  1  0  0  0  0
M  END
> <VM2 Rank>
18

> <Conf_Id>
1685

> <Probability>
1.55

> <Sum Probability>
58.83

> <Delta G>
1.131

> <G>
34.833

> <E>
-2.802

> <-TS>
37.636

> <U+W>
-26.947

> <U>
25.271

> <W>
-52.217

> <W(PB)>
-54.703

> <W(SA)>
2.486

> <Valence>
4.168

> <Coulomb>
19.867

> <VdW>
1.236

> <VdW6>
-9.311

> <VdW12>
10.546

> <Bond>
0.263

> <Angle>
1.298

> <Pdih>
2.607

> <Idih>
0.000

> <Tether>
0.000

$$$$
VeraChem MOL file


 29 28  0  0  0  0  0  0  0  0999 V2000     
   20.9123   19.7240   19.6764 C   0  0  0  0  0  0  0  0  0  0  0  0
   20.8523   18.7265   19.2219 H   0  0  0  0  0  0  0  0  0  0  0  0
   20.8879   20.4653   18.8671 H   0  0  0  0  0  0  0  0  0  0  0  0
   21.8819   19.8109   20.1839 H   0  0  0  0  0  0  0  0  0  0  0  0
   19.7476   19.9552   20.6622 C   0  0  0  0  0  0  0  0  0  0  0  0
   18.7938   19.8967   20.1193 H   0  0  0  0  0  0  0  0  0  0  0  0
   19.8157   20.9714   21.0752 H   0  0  0  0  0  0  0  0  0  0  0  0
   19.7583   18.9236   21.8116 C   0  0  0  0  0  0  0  0  0  0  0  0
   19.6870   17.9096   21.3945 H   0  0  0  0  0  0  0  0  0  0  0  0
   20.7194   18.9856   22.3386 H   0  0  0  0  0  0  0  0  0  0  0  0
   18.5944   19.1578   22.8040 C   0  0  0  0  0  0  0  0  0  0  0  0
   17.6464   19.1605   22.2485 H   0  0  0  0  0  0  0  0  0  0  0  0
   18.6854   20.1566   23.2511 H   0  0  0  0  0  0  0  0  0  0  0  0
   18.5044   18.0819   23.9171 C   0  0  0  0  0  0  0  0  0  0  0  0
   17.6300   18.2946   24.5467 H   0  0  0  0  0  0  0  0  0  0  0  0
   18.3050   17.1053   23.4548 H   0  0  0  0  0  0  0  0  0  0  0  0
   19.7664   17.9605   24.8124 C   0  0  0  0  0  0  0  0  0  0  0  0
   20.5956   17.5620   24.2140 H   0  0  0  0  0  0  0  0  0  0  0  0
   19.5771   17.2147   25.5959 H   0  0  0  0  0  0  0  0  0  0  0  0
   20.2058   19.2889   25.4669 C   0  0  2  0  0  0  0  0  0  0  0  0
   20.3923   20.0182   24.6730 H   0  0  0  0  0  0  0  0  0  0  0  0
   21.5107   19.0925   26.2542 C   0  0  0  0  0  0  0  0  0  0  0  0
   21.3781   18.3697   27.0689 H   0  0  0  0  0  0  0  0  0  0  0  0
   22.3099   18.7254   25.5982 H   0  0  0  0  0  0  0  0  0  0  0  0
   21.8475   20.0412   26.6902 H   0  0  0  0  0  0  0  0  0  0  0  0
   19.1362   19.8716   26.3492 N   0  3  0  0  0  0  0  0  0  0  0  0
   18.9126   19.2447   27.1267 H   0  0  0  0  0  0  0  0  0  0  0  0
   18.2718   20.0344   25.8256 H   0  0  0  0  0  0  0  0  0  0  0  0
   19.4277   20.7674   26.7506 H   0  0  0  0  0  0  0  0  0  0  0  0
  1  2  1  0  0  0  0
  1  3  1  0  0  0  0
  1  4  1  0  0  0  0
  1  5  1  0  0  0  0
  5  6  1  0  0  0  0
  5  7  1  0  0  0  0
  5  8  1  0  0  0  0
  8  9  1  0  0  0  0
  8 10  1  0  0  0  0
  8 11  1  0  0  0  0
 11 12  1  0  0  0  0
 11 13  1  0  0  0  0
 11 14  1  0  0  0  0
 14 15  1  0  0  0  0
 14 16  1  0  0  0  0
 14 17  1  0  0  0  0
 17 18  1  0  0  0  0
 17 19  1  0  0  0  0
 17 20  1  0  0  0  0
 20 21  1  0  0  0  0
 20 22  1  0  0  0  0
 22 23  1  0  0  0  0
 22 24  1  0  0  0  0
 22 25  1  0  0  0  0
 20 26  1  0  0  0  0
 26 27  1  0  0  0  0
 26 28  1  0  0  0  0
 26 29  1  0  0  0  0
M  END
> <VM2 Rank>
19

> <Conf_Id>
1635

> <Probability>
1.54

> <Sum Probability>
60.38

> <Delta G>
1.134

> <G>
34.837

> <E>
-3.023

> <-TS>
37.860

> <U+W>
-27.168

> <U>
25.092

> <W>
-52.260

> <W(PB)>
-54.738

> <W(SA)>
2.478

> <Valence>
3.930

> <Coulomb>
20.383

> <VdW>
0.779

> <VdW6>
-9.976

> <VdW12>
10.756

> <Bond>
0.263

> <Angle>
1.407

> <Pdih>
2.259

> <Idih>
0.000

> <Tether>
0.000

$$$$
VeraChem MOL file


 29 28  0  0  0  0  0  0  0  0999 V2000     
   19.8876   20.2402   19.4607 C   0  0  0  0  0  0  0  0  0  0  0  0
   20.1572   20.2690   18.3970 H   0  0  0  0  0  0  0  0  0  0  0  0
   19.0098   20.8840   19.6021 H   0  0  0  0  0  0  0  0  0  0  0  0
   20.7245   20.6703   20.0246 H   0  0  0  0  0  0  0  0  0  0  0  0
   19.5901   18.7899   19.9039 C   0  0  0  0  0  0  0  0  0  0  0  0
   20.4917   18.1736   19.7812 H   0  0  0  0  0  0  0  0  0  0  0  0
   18.8320   18.3630   19.2324 H   0  0  0  0  0  0  0  0  0  0  0  0
   19.0785   18.6846   21.3608 C   0  0  0  0  0  0  0  0  0  0  0  0
   18.1660   19.2863   21.4734 H   0  0  0  0  0  0  0  0  0  0  0  0
   18.7876   17.6427   21.5535 H   0  0  0  0  0  0  0  0  0  0  0  0
   20.1246   19.1204   22.4146 C   0  0  0  0  0  0  0  0  0  0  0  0
   20.3726   20.1812   22.2778 H   0  0  0  0  0  0  0  0  0  0  0  0
   21.0535   18.5530   22.2653 H   0  0  0  0  0  0  0  0  0  0  0  0
   19.6120   18.9018   23.8561 C   0  0  0  0  0  0  0  0  0  0  0  0
   18.6812   19.4670   23.9964 H   0  0  0  0  0  0  0  0  0  0  0  0
   19.3660   17.8403   23.9910 H   0  0  0  0  0  0  0  0  0  0  0  0
   20.6629   19.3406   24.9090 C   0  0  0  0  0  0  0  0  0  0  0  0
   20.9350   20.3893   24.7313 H   0  0  0  0  0  0  0  0  0  0  0  0
   21.5844   18.7610   24.7651 H   0  0  0  0  0  0  0  0  0  0  0  0
   20.2099   19.1965   26.3811 C   0  0  2  0  0  0  0  0  0  0  0  0
   21.0255   19.5670   27.0099 H   0  0  0  0  0  0  0  0  0  0  0  0
   19.9548   17.7292   26.7674 C   0  0  0  0  0  0  0  0  0  0  0  0
   20.8258   17.1061   26.5290 H   0  0  0  0  0  0  0  0  0  0  0  0
   19.7696   17.6432   27.8451 H   0  0  0  0  0  0  0  0  0  0  0  0
   19.0836   17.3174   26.2443 H   0  0  0  0  0  0  0  0  0  0  0  0
   19.0156   20.0528   26.7005 N   0  3  0  0  0  0  0  0  0  0  0  0
   18.1964   19.7631   26.1605 H   0  0  0  0  0  0  0  0  0  0  0  0
   19.1930   21.0387   26.4878 H   0  0  0  0  0  0  0  0  0  0  0  0
   18.7671   19.9933   27.6921 H   0  0  0  0  0  0  0  0  0  0  0  0
  1  2  1  0  0  0  0
  1  3  1  0  0  0  0
  1  4  1  0  0  0  0
  1  5  1  0  0  0  0
  5  6  1  0  0  0  0
  5  7  1  0  0  0  0
  5  8  1  0  0  0  0
  8  9  1  0  0  0  0
  8 10  1  0  0  0  0
  8 11  1  0  0  0  0
 11 12  1  0  0  0  0
 11 13  1  0  0  0  0
 11 14  1  0  0  0  0
 14 15  1  0  0  0  0
 14 16  1  0  0  0  0
 14 17  1  0  0  0  0
 17 18  1  0  0  0  0
 17 19  1  0  0  0  0
 17 20  1  0  0  0  0
 20 21  1  0  0  0  0
 20 22  1  0  0  0  0
 22 23  1  0  0  0  0
 22 24  1  0  0  0  0
 22 25  1  0  0  0  0
 20 26  1  0  0  0  0
 26 27  1  0  0  0  0
 26 28  1  0  0  0  0
 26 29  1  0  0  0  0
M  END
> <VM2 Rank>
20

> <Conf_Id>
553

> <Probability>
1.53

> <Sum Probability>
61.91

> <Delta G>
1.140

> <G>
34.842

> <E>
-2.799

> <-TS>
37.641

> <U+W>
-26.943

> <U>
25.147

> <W>
-52.090

> <W(PB)>
-54.579

> <W(SA)>
2.489

> <Valence>
4.181

> <Coulomb>
19.656

> <VdW>
1.310

> <VdW6>
-9.191

> <VdW12>
10.501

> <Bond>
0.259

> <Angle>
1.449

> <Pdih>
2.473

> <Idih>
0.000

> <Tether>
0.000

$$$$
VeraChem MOL file


 29 28  0  0  0  0  0  0  0  0999 V2000     
   19.1172   20.2364   19.2407 C   0  0  0  0  0  0  0  0  0  0  0  0
   18.1621   20.6098   19.6326 H   0  0  0  0  0  0  0  0  0  0  0  0
   19.8400   21.0626   19.2567 H   0  0  0  0  0  0  0  0  0  0  0  0
   18.9612   19.9453   18.1938 H   0  0  0  0  0  0  0  0  0  0  0  0
   19.6264   19.0381   20.0694 C   0  0  0  0  0  0  0  0  0  0  0  0
   20.5636   18.6654   19.6327 H   0  0  0  0  0  0  0  0  0  0  0  0
   18.8990   18.2165   20.0076 H   0  0  0  0  0  0  0  0  0  0  0  0
   19.8552   19.4213   21.5482 C   0  0  0  0  0  0  0  0  0  0  0  0
   20.5847   20.2410   21.6047 H   0  0  0  0  0  0  0  0  0  0  0  0
   18.9146   19.8008   21.9676 H   0  0  0  0  0  0  0  0  0  0  0  0
   20.3619   18.2186   22.3805 C   0  0  0  0  0  0  0  0  0  0  0  0
   21.2548   17.8017   21.8946 H   0  0  0  0  0  0  0  0  0  0  0  0
   19.6077   17.4196   22.3760 H   0  0  0  0  0  0  0  0  0  0  0  0
   20.7263   18.5805   23.8417 C   0  0  0  0  0  0  0  0  0  0  0  0
   21.2110   17.7052   24.2927 H   0  0  0  0  0  0  0  0  0  0  0  0
   21.4745   19.3852   23.8455 H   0  0  0  0  0  0  0  0  0  0  0  0
   19.5039   18.9976   24.7005 C   0  0  0  0  0  0  0  0  0  0  0  0
   18.7611   18.1889   24.7057 H   0  0  0  0  0  0  0  0  0  0  0  0
   19.0187   19.8638   24.2349 H   0  0  0  0  0  0  0  0  0  0  0  0
   19.8658   19.3801   26.1542 C   0  0  2  0  0  0  0  0  0  0  0  0
   20.6499   20.1429   26.1236 H   0  0  0  0  0  0  0  0  0  0  0  0
   20.3860   18.1772   26.9618 C   0  0  0  0  0  0  0  0  0  0  0  0
   19.6587   17.3558   26.9634 H   0  0  0  0  0  0  0  0  0  0  0  0
   21.3307   17.7998   26.5542 H   0  0  0  0  0  0  0  0  0  0  0  0
   20.5759   18.4647   28.0033 H   0  0  0  0  0  0  0  0  0  0  0  0
   18.6932   20.0063   26.8568 N   0  3  0  0  0  0  0  0  0  0  0  0
   18.9388   20.2970   27.8076 H   0  0  0  0  0  0  0  0  0  0  0  0
   17.9088   19.3527   26.9303 H   0  0  0  0  0  0  0  0  0  0  0  0
   18.3565   20.8373   26.3619 H   0  0  0  0  0  0  0  0  0  0  0  0
  1  2  1  0  0  0  0
  1  3  1  0  0  0  0
  1  4  1  0  0  0  0
  1  5  1  0  0  0  0
  5  6  1  0  0  0  0
  5  7  1  0  0  0  0
  5  8  1  0  0  0  0
  8  9  1  0  0  0  0
  8 10  1  0  0  0  0
  8 11  1  0  0  0  0
 11 12  1  0  0  0  0
 11 13  1  0  0  0  0
 11 14  1  0  0  0  0
 14 15  1  0  0  0  0
 14 16  1  0  0  0  0
 14 17  1  0  0  0  0
 17 18  1  0  0  0  0
 17 19  1  0  0  0  0
 17 20  1  0  0  0  0
 20 21  1  0  0  0  0
 20 22  1  0  0  0  0
 22 23  1  0  0  0  0
 22 24  1  0  0  0  0
 22 25  1  0  0  0  0
 20 26  1  0  0  0  0
 26 27  1  0  0  0  0
 26 28  1  0  0  0  0
 26 29  1  0  0  0  0
M  END
> <VM2 Rank>
21

> <Conf_Id>
921

> <Probability>
1.51

> <Sum Probability>
63.42

> <Delta G>
1.148

> <G>
34.850

> <E>
-2.571

> <-TS>
37.421

> <U+W>
-26.715

> <U>
25.442

> <W>
-52.157

> <W(PB)>
-54.679

> <W(SA)>
2.522

> <Valence>
4.343

> <Coulomb>
19.740

> <VdW>
1.360

> <VdW6>
-8.739

> <VdW12>
10.099

> <Bond>
0.251

> <Angle>
1.483

> <Pdih>
2.608

> <Idih>
0.000

> <Tether>
0.000

$$$$
VeraChem MOL file


 29 28  0  0  0  0  0  0  0  0999 V2000     
   20.4991   18.9699   19.3630 C   0  0  0  0  0  0  0  0  0  0  0  0
   20.6329   19.2921   18.3222 H   0  0  0  0  0  0  0  0  0  0  0  0
   21.3948   19.2726   19.9194 H   0  0  0  0  0  0  0  0  0  0  0  0
   20.4429   17.8736   19.3705 H   0  0  0  0  0  0  0  0  0  0  0  0
   19.2196   19.5960   19.9625 C   0  0  0  0  0  0  0  0  0  0  0  0
   18.3706   19.3653   19.3040 H   0  0  0  0  0  0  0  0  0  0  0  0
   19.3132   20.6910   19.9715 H   0  0  0  0  0  0  0  0  0  0  0  0
   18.8952   19.0867   21.3876 C   0  0  0  0  0  0  0  0  0  0  0  0
   17.9199   19.4930   21.6892 H   0  0  0  0  0  0  0  0  0  0  0  0
   18.7828   17.9939   21.3697 H   0  0  0  0  0  0  0  0  0  0  0  0
   19.9563   19.4854   22.4411 C   0  0  0  0  0  0  0  0  0  0  0  0
   20.1031   20.5740   22.4194 H   0  0  0  0  0  0  0  0  0  0  0  0
   20.9221   19.0276   22.1901 H   0  0  0  0  0  0  0  0  0  0  0  0
   19.5436   19.0477   23.8647 C   0  0  0  0  0  0  0  0  0  0  0  0
   18.5799   19.5086   24.1184 H   0  0  0  0  0  0  0  0  0  0  0  0
   19.3913   17.9604   23.8735 H   0  0  0  0  0  0  0  0  0  0  0  0
   20.6128   19.4427   24.9165 C   0  0  0  0  0  0  0  0  0  0  0  0
   20.7903   20.5247   24.8610 H   0  0  0  0  0  0  0  0  0  0  0  0
   21.5682   18.9664   24.6592 H   0  0  0  0  0  0  0  0  0  0  0  0
   20.2549   19.0807   26.3773 C   0  0  2  0  0  0  0  0  0  0  0  0
   21.0722   19.4394   27.0106 H   0  0  0  0  0  0  0  0  0  0  0  0
   20.1383   17.5606   26.5850 C   0  0  0  0  0  0  0  0  0  0  0  0
   21.0412   17.0482   26.2305 H   0  0  0  0  0  0  0  0  0  0  0  0
   20.0203   17.3274   27.6503 H   0  0  0  0  0  0  0  0  0  0  0  0
   19.2747   17.1435   26.0536 H   0  0  0  0  0  0  0  0  0  0  0  0
   19.0161   19.7862   26.8563 N   0  3  0  0  0  0  0  0  0  0  0  0
   18.1937   19.4962   26.3215 H   0  0  0  0  0  0  0  0  0  0  0  0
   19.1030   20.8023   26.7627 H   0  0  0  0  0  0  0  0  0  0  0  0
   18.8284   19.5844   27.8426 H   0  0  0  0  0  0  0  0  0  0  0  0
  1  2  1  0  0  0  0
  1  3  1  0  0  0  0
  1  4  1  0  0  0  0
  1  5  1  0  0  0  0
  5  6  1  0  0  0  0
  5  7  1  0  0  0  0
  5  8  1  0  0  0  0
  8  9  1  0  0  0  0
  8 10  1  0  0  0  0
  8 11  1  0  0  0  0
 11 12  1  0  0  0  0
 11 13  1  0  0  0  0
 11 14  1  0  0  0  0
 14 15  1  0  0  0  0
 14 16  1  0  0  0  0
 14 17  1  0  0  0  0
 17 18  1  0  0  0  0
 17 19  1  0  0  0  0
 17 20  1  0  0  0  0
 20 21  1  0  0  0  0
 20 22  1  0  0  0  0
 22 23  1  0  0  0  0
 22 24  1  0  0  0  0
 22 25  1  0  0  0  0
 20 26  1  0  0  0  0
 26 27  1  0  0  0  0
 26 28  1  0  0  0  0
 26 29  1  0  0  0  0
M  END
> <VM2 Rank>
22

> <Conf_Id>
1609

> <Probability>
1.47

> <Sum Probability>
64.89

> <Delta G>
1.165

> <G>
34.867

> <E>
-2.774

> <-TS>
37.641

> <U+W>
-26.918

> <U>
25.121

> <W>
-52.040

> <W(PB)>
-54.554

> <W(SA)>
2.515

> <Valence>
4.180

> <Coulomb>
19.632

> <VdW>
1.309

> <VdW6>
-9.192

> <VdW12>
10.501

> <Bond>
0.259

> <Angle>
1.449

> <Pdih>
2.473

> <Idih>
0.000

> <Tether>
0.000

$$$$
VeraChem MOL file


 29 28  0  0  0  0  0  0  0  0999 V2000     
   18.7344   19.0240   19.3167 C   0  0  0  0  0  0  0  0  0  0  0  0
   19.4878   19.3138   18.5727 H   0  0  0  0  0  0  0  0  0  0  0  0
   18.2064   18.1406   18.9349 H   0  0  0  0  0  0  0  0  0  0  0  0
   18.0063   19.8412   19.4025 H   0  0  0  0  0  0  0  0  0  0  0  0
   19.3893   18.7200   20.6808 C   0  0  0  0  0  0  0  0  0  0  0  0
   20.0899   17.8807   20.5694 H   0  0  0  0  0  0  0  0  0  0  0  0
   18.6114   18.3952   21.3842 H   0  0  0  0  0  0  0  0  0  0  0  0
   20.1364   19.9532   21.2414 C   0  0  0  0  0  0  0  0  0  0  0  0
   20.8518   20.3097   20.4875 H   0  0  0  0  0  0  0  0  0  0  0  0
   19.4253   20.7749   21.4039 H   0  0  0  0  0  0  0  0  0  0  0  0
   20.9088   19.6678   22.5529 C   0  0  0  0  0  0  0  0  0  0  0  0
   21.4995   20.5585   22.8080 H   0  0  0  0  0  0  0  0  0  0  0  0
   21.6307   18.8567   22.3850 H   0  0  0  0  0  0  0  0  0  0  0  0
   19.9910   19.3121   23.7472 C   0  0  0  0  0  0  0  0  0  0  0  0
   19.2375   20.1011   23.8699 H   0  0  0  0  0  0  0  0  0  0  0  0
   19.4516   18.3824   23.5287 H   0  0  0  0  0  0  0  0  0  0  0  0
   20.8023   19.1456   25.0585 C   0  0  0  0  0  0  0  0  0  0  0  0
   21.3735   20.0638   25.2486 H   0  0  0  0  0  0  0  0  0  0  0  0
   21.5465   18.3491   24.9258 H   0  0  0  0  0  0  0  0  0  0  0  0
   19.9549   18.8302   26.3138 C   0  0  2  0  0  0  0  0  0  0  0  0
   20.6423   18.7716   27.1635 H   0  0  0  0  0  0  0  0  0  0  0  0
   19.2370   17.4738   26.2025 C   0  0  0  0  0  0  0  0  0  0  0  0
   19.9483   16.6750   25.9583 H   0  0  0  0  0  0  0  0  0  0  0  0
   18.7594   17.2138   27.1551 H   0  0  0  0  0  0  0  0  0  0  0  0
   18.4580   17.4888   25.4311 H   0  0  0  0  0  0  0  0  0  0  0  0
   18.9818   19.9293   26.6402 N   0  3  0  0  0  0  0  0  0  0  0  0
   19.4575   20.8282   26.7604 H   0  0  0  0  0  0  0  0  0  0  0  0
   18.4733   19.7334   27.5072 H   0  0  0  0  0  0  0  0  0  0  0  0
   18.2886   20.0440   25.8966 H   0  0  0  0  0  0  0  0  0  0  0  0
  1  2  1  0  0  0  0
  1  3  1  0  0  0  0
  1  4  1  0  0  0  0
  1  5  1  0  0  0  0
  5  6  1  0  0  0  0
  5  7  1  0  0  0  0
  5  8  1  0  0  0  0
  8  9  1  0  0  0  0
  8 10  1  0  0  0  0
  8 11  1  0  0  0  0
 11 12  1  0  0  0  0
 11 13  1  0  0  0  0
 11 14  1  0  0  0  0
 14 15  1  0  0  0  0
 14 16  1  0  0  0  0
 14 17  1  0  0  0  0
 17 18  1  0  0  0  0
 17 19  1  0  0  0  0
 17 20  1  0  0  0  0
 20 21  1  0  0  0  0
 20 22  1  0  0  0  0
 22 23  1  0  0  0  0
 22 24  1  0  0  0  0
 22 25  1  0  0  0  0
 20 26  1  0  0  0  0
 26 27  1  0  0  0  0
 26 28  1  0  0  0  0
 26 29  1  0  0  0  0
M  END
> <VM2 Rank>
23

> <Conf_Id>
1563

> <Probability>
1.45

> <Sum Probability>
66.33

> <Delta G>
1.173

> <G>
34.875

> <E>
-2.753

> <-TS>
37.629

> <U+W>
-26.898

> <U>
25.354

> <W>
-52.252

> <W(PB)>
-54.739

> <W(SA)>
2.487

> <Valence>
4.221

> <Coulomb>
19.855

> <VdW>
1.278

> <VdW6>
-9.276

> <VdW12>
10.553

> <Bond>
0.264

> <Angle>
1.471

> <Pdih>
2.486

> <Idih>
0.000

> <Tether>
0.000

$$$$
VeraChem MOL file


 29 28  0  0  0  0  0  0  0  0999 V2000     
   19.7441   20.3594   19.2500 C   0  0  0  0  0  0  0  0  0  0  0  0
   18.7841   20.8791   19.3671 H   0  0  0  0  0  0  0  0  0  0  0  0
   20.5455   21.0526   19.5370 H   0  0  0  0  0  0  0  0  0  0  0  0
   19.8703   20.1202   18.1861 H   0  0  0  0  0  0  0  0  0  0  0  0
   19.7878   19.0759   20.1060 C   0  0  0  0  0  0  0  0  0  0  0  0
   20.7451   18.5612   19.9430 H   0  0  0  0  0  0  0  0  0  0  0  0
   18.9975   18.3888   19.7726 H   0  0  0  0  0  0  0  0  0  0  0  0
   19.6115   19.3846   21.6092 C   0  0  0  0  0  0  0  0  0  0  0  0
   20.4008   20.0786   21.9258 H   0  0  0  0  0  0  0  0  0  0  0  0
   18.6525   19.8968   21.7672 H   0  0  0  0  0  0  0  0  0  0  0  0
   19.6596   18.0983   22.4685 C   0  0  0  0  0  0  0  0  0  0  0  0
   20.6396   17.6140   22.3575 H   0  0  0  0  0  0  0  0  0  0  0  0
   18.9183   17.3847   22.0830 H   0  0  0  0  0  0  0  0  0  0  0  0
   19.3679   18.3422   23.9697 C   0  0  0  0  0  0  0  0  0  0  0  0
   18.3845   18.8195   24.0732 H   0  0  0  0  0  0  0  0  0  0  0  0
   19.2914   17.3638   24.4611 H   0  0  0  0  0  0  0  0  0  0  0  0
   20.4551   19.1963   24.6780 C   0  0  0  0  0  0  0  0  0  0  0  0
   20.5094   20.1859   24.2086 H   0  0  0  0  0  0  0  0  0  0  0  0
   21.4387   18.7332   24.5245 H   0  0  0  0  0  0  0  0  0  0  0  0
   20.2335   19.4029   26.1951 C   0  0  2  0  0  0  0  0  0  0  0  0
   21.0309   20.0620   26.5524 H   0  0  0  0  0  0  0  0  0  0  0  0
   20.3350   18.0849   26.9826 C   0  0  0  0  0  0  0  0  0  0  0  0
   21.2743   17.5657   26.7550 H   0  0  0  0  0  0  0  0  0  0  0  0
   20.3172   18.2814   28.0616 H   0  0  0  0  0  0  0  0  0  0  0  0
   19.5034   17.4084   26.7529 H   0  0  0  0  0  0  0  0  0  0  0  0
   18.9414   20.1116   26.4948 N   0  3  0  0  0  0  0  0  0  0  0  0
   18.8392   20.2953   27.4970 H   0  0  0  0  0  0  0  0  0  0  0  0
   18.1360   19.5536   26.2009 H   0  0  0  0  0  0  0  0  0  0  0  0
   18.8864   21.0124   26.0109 H   0  0  0  0  0  0  0  0  0  0  0  0
  1  2  1  0  0  0  0
  1  3  1  0  0  0  0
  1  4  1  0  0  0  0
  1  5  1  0  0  0  0
  5  6  1  0  0  0  0
  5  7  1  0  0  0  0
  5  8  1  0  0  0  0
  8  9  1  0  0  0  0
  8 10  1  0  0  0  0
  8 11  1  0  0  0  0
 11 12  1  0  0  0  0
 11 13  1  0  0  0  0
 11 14  1  0  0  0  0
 14 15  1  0  0  0  0
 14 16  1  0  0  0  0
 14 17  1  0  0  0  0
 17 18  1  0  0  0  0
 17 19  1  0  0  0  0
 17 20  1  0  0  0  0
 20 21  1  0  0  0  0
 20 22  1  0  0  0  0
 22 23  1  0  0  0  0
 22 24  1  0  0  0  0
 22 25  1  0  0  0  0
 20 26  1  0  0  0  0
 26 27  1  0  0  0  0
 26 28  1  0  0  0  0
 26 29  1  0  0  0  0
M  END
> <VM2 Rank>
24

> <Conf_Id>
1272

> <Probability>
1.35

> <Sum Probability>
67.69

> <Delta G>
1.213

> <G>
34.915

> <E>
-2.675

> <-TS>
37.591

> <U+W>
-26.820

> <U>
25.474

> <W>
-52.294

> <W(PB)>
-54.793

> <W(SA)>
2.500

> <Valence>
4.286

> <Coulomb>
19.883

> <VdW>
1.305

> <VdW6>
-9.235

> <VdW12>
10.540

> <Bond>
0.276

> <Angle>
1.498

> <Pdih>
2.512

> <Idih>
0.000

> <Tether>
0.000

$$$$
VeraChem MOL file


 29 28  0  0  0  0  0  0  0  0999 V2000     
   18.6411   19.4586   19.3602 C   0  0  0  0  0  0  0  0  0  0  0  0
   17.8347   20.1592   19.1075 H   0  0  0  0  0  0  0  0  0  0  0  0
   19.4245   19.5574   18.5975 H   0  0  0  0  0  0  0  0  0  0  0  0
   18.2339   18.4407   19.3025 H   0  0  0  0  0  0  0  0  0  0  0  0
   19.1976   19.7537   20.7692 C   0  0  0  0  0  0  0  0  0  0  0  0
   18.3780   19.6853   21.4967 H   0  0  0  0  0  0  0  0  0  0  0  0
   19.5706   20.7868   20.8045 H   0  0  0  0  0  0  0  0  0  0  0  0
   20.3334   18.7748   21.1496 C   0  0  0  0  0  0  0  0  0  0  0  0
   19.9460   17.7468   21.1675 H   0  0  0  0  0  0  0  0  0  0  0  0
   21.1032   18.8001   20.3660 H   0  0  0  0  0  0  0  0  0  0  0  0
   21.0049   19.1004   22.5064 C   0  0  0  0  0  0  0  0  0  0  0  0
   21.4071   20.1226   22.4811 H   0  0  0  0  0  0  0  0  0  0  0  0
   21.8677   18.4325   22.6356 H   0  0  0  0  0  0  0  0  0  0  0  0
   20.0579   18.9408   23.7201 C   0  0  0  0  0  0  0  0  0  0  0  0
   19.2320   19.6579   23.6393 H   0  0  0  0  0  0  0  0  0  0  0  0
   19.6160   17.9360   23.6987 H   0  0  0  0  0  0  0  0  0  0  0  0
   20.8079   19.1616   25.0596 C   0  0  0  0  0  0  0  0  0  0  0  0
   21.2908   20.1476   25.0437 H   0  0  0  0  0  0  0  0  0  0  0  0
   21.6209   18.4286   25.1456 H   0  0  0  0  0  0  0  0  0  0  0  0
   19.9228   19.0713   26.3251 C   0  0  2  0  0  0  0  0  0  0  0  0
   20.5670   19.2705   27.1871 H   0  0  0  0  0  0  0  0  0  0  0  0
   19.3189   17.6683   26.5103 C   0  0  0  0  0  0  0  0  0  0  0  0
   20.1019   16.9003   26.4847 H   0  0  0  0  0  0  0  0  0  0  0  0
   18.8120   17.5941   27.4802 H   0  0  0  0  0  0  0  0  0  0  0  0
   18.5840   17.4367   25.7302 H   0  0  0  0  0  0  0  0  0  0  0  0
   18.8516   20.1265   26.3533 N   0  3  0  0  0  0  0  0  0  0  0  0
   18.1905   20.0050   25.5822 H   0  0  0  0  0  0  0  0  0  0  0  0
   19.2491   21.0670   26.2746 H   0  0  0  0  0  0  0  0  0  0  0  0
   18.3161   20.0925   27.2256 H   0  0  0  0  0  0  0  0  0  0  0  0
  1  2  1  0  0  0  0
  1  3  1  0  0  0  0
  1  4  1  0  0  0  0
  1  5  1  0  0  0  0
  5  6  1  0  0  0  0
  5  7  1  0  0  0  0
  5  8  1  0  0  0  0
  8  9  1  0  0  0  0
  8 10  1  0  0  0  0
  8 11  1  0  0  0  0
 11 12  1  0  0  0  0
 11 13  1  0  0  0  0
 11 14  1  0  0  0  0
 14 15  1  0  0  0  0
 14 16  1  0  0  0  0
 14 17  1  0  0  0  0
 17 18  1  0  0  0  0
 17 19  1  0  0  0  0
 17 20  1  0  0  0  0
 20 21  1  0  0  0  0
 20 22  1  0  0  0  0
 22 23  1  0  0  0  0
 22 24  1  0  0  0  0
 22 25  1  0  0  0  0
 20 26  1  0  0  0  0
 26 27  1  0  0  0  0
 26 28  1  0  0  0  0
 26 29  1  0  0  0  0
M  END
> <VM2 Rank>
25

> <Conf_Id>
999

> <Probability>
1.35

> <Sum Probability>
69.04

> <Delta G>
1.213

> <G>
34.915

> <E>
-2.712

> <-TS>
37.628

> <U+W>
-26.857

> <U>
25.544

> <W>
-52.401

> <W(PB)>
-54.892

> <W(SA)>
2.491

> <Valence>
4.218

> <Coulomb>
20.055

> <VdW>
1.272

> <VdW6>
-9.272

> <VdW12>
10.543

> <Bond>
0.264

> <Angle>
1.469

> <Pdih>
2.486

> <Idih>
0.000

> <Tether>
0.000

$$$$
VeraChem MOL file


 29 28  0  0  0  0  0  0  0  0999 V2000     
   20.9140   19.7974   20.0856 C   0  0  0  0  0  0  0  0  0  0  0  0
   21.5381   19.5259   20.9461 H   0  0  0  0  0  0  0  0  0  0  0  0
   20.9600   18.9795   19.3549 H   0  0  0  0  0  0  0  0  0  0  0  0
   21.3586   20.6877   19.6225 H   0  0  0  0  0  0  0  0  0  0  0  0
   19.4556   20.0798   20.5114 C   0  0  0  0  0  0  0  0  0  0  0  0
   18.9010   20.4609   19.6426 H   0  0  0  0  0  0  0  0  0  0  0  0
   19.4365   20.8863   21.2566 H   0  0  0  0  0  0  0  0  0  0  0  0
   18.7194   18.8292   21.0560 C   0  0  0  0  0  0  0  0  0  0  0  0
   17.6863   19.1078   21.3057 H   0  0  0  0  0  0  0  0  0  0  0  0
   18.6436   18.0843   20.2521 H   0  0  0  0  0  0  0  0  0  0  0  0
   19.3739   18.1607   22.2925 C   0  0  0  0  0  0  0  0  0  0  0  0
   20.3669   17.7744   22.0269 H   0  0  0  0  0  0  0  0  0  0  0  0
   18.7729   17.2836   22.5691 H   0  0  0  0  0  0  0  0  0  0  0  0
   19.4865   19.1004   23.5166 C   0  0  0  0  0  0  0  0  0  0  0  0
   20.1481   19.9440   23.2790 H   0  0  0  0  0  0  0  0  0  0  0  0
   18.4968   19.5202   23.7398 H   0  0  0  0  0  0  0  0  0  0  0  0
   20.0403   18.3586   24.7573 C   0  0  0  0  0  0  0  0  0  0  0  0
   21.0020   17.8979   24.4946 H   0  0  0  0  0  0  0  0  0  0  0  0
   19.3642   17.5382   25.0327 H   0  0  0  0  0  0  0  0  0  0  0  0
   20.2492   19.2891   25.9715 C   0  0  2  0  0  0  0  0  0  0  0  0
   20.9055   20.1097   25.6659 H   0  0  0  0  0  0  0  0  0  0  0  0
   20.9317   18.5264   27.1181 C   0  0  0  0  0  0  0  0  0  0  0  0
   21.8995   18.1224   26.7959 H   0  0  0  0  0  0  0  0  0  0  0  0
   21.1161   19.1912   27.9710 H   0  0  0  0  0  0  0  0  0  0  0  0
   20.3106   17.6906   27.4640 H   0  0  0  0  0  0  0  0  0  0  0  0
   18.9655   19.9143   26.4448 N   0  3  0  0  0  0  0  0  0  0  0  0
   18.5211   20.4621   25.7032 H   0  0  0  0  0  0  0  0  0  0  0  0
   19.1254   20.5432   27.2370 H   0  0  0  0  0  0  0  0  0  0  0  0
   18.2944   19.2035   26.7480 H   0  0  0  0  0  0  0  0  0  0  0  0
  1  2  1  0  0  0  0
  1  3  1  0  0  0  0
  1  4  1  0  0  0  0
  1  5  1  0  0  0  0
  5  6  1  0  0  0  0
  5  7  1  0  0  0  0
  5  8  1  0  0  0  0
  8  9  1  0  0  0  0
  8 10  1  0  0  0  0
  8 11  1  0  0  0  0
 11 12  1  0  0  0  0
 11 13  1  0  0  0  0
 11 14  1  0  0  0  0
 14 15  1  0  0  0  0
 14 16  1  0  0  0  0
 14 17  1  0  0  0  0
 17 18  1  0  0  0  0
 17 19  1  0  0  0  0
 17 20  1  0  0  0  0
 20 21  1  0  0  0  0
 20 22  1  0  0  0  0
 22 23  1  0  0  0  0
 22 24  1  0  0  0  0
 22 25  1  0  0  0  0
 20 26  1  0  0  0  0
 26 27  1  0  0  0  0
 26 28  1  0  0  0  0
 26 29  1  0  0  0  0
M  END
> <VM2 Rank>
26

> <Conf_Id>
1357

> <Probability>
1.28

> <Sum Probability>
70.32

> <Delta G>
1.246

> <G>
34.948

> <E>
-2.870

> <-TS>
37.818

> <U+W>
-27.014

> <U>
25.212

> <W>
-52.226

> <W(PB)>
-54.717

> <W(SA)>
2.490

> <Valence>
4.125

> <Coulomb>
19.951

> <VdW>
1.137

> <VdW6>
-9.556

> <VdW12>
10.693

> <Bond>
0.266

> <Angle>
1.520

> <Pdih>
2.339

> <Idih>
0.000

> <Tether>
0.000

$$$$
VeraChem MOL file


 29 28  0  0  0  0  0  0  0  0999 V2000     
   20.8440   19.4766   19.7591 C   0  0  0  0  0  0  0  0  0  0  0  0
   21.6204   19.3703   20.5268 H   0  0  0  0  0  0  0  0  0  0  0  0
   20.6290   18.4824   19.3465 H   0  0  0  0  0  0  0  0  0  0  0  0
   21.2610   20.0923   18.9516 H   0  0  0  0  0  0  0  0  0  0  0  0
   19.5653   20.1291   20.3313 C   0  0  0  0  0  0  0  0  0  0  0  0
   18.8680   20.3259   19.5050 H   0  0  0  0  0  0  0  0  0  0  0  0
   19.8124   21.1083   20.7649 H   0  0  0  0  0  0  0  0  0  0  0  0
   18.8485   19.2545   21.3881 C   0  0  0  0  0  0  0  0  0  0  0  0
   17.9012   19.7409   21.6585 H   0  0  0  0  0  0  0  0  0  0  0  0
   18.5827   18.2859   20.9428 H   0  0  0  0  0  0  0  0  0  0  0  0
   19.6847   19.0280   22.6702 C   0  0  0  0  0  0  0  0  0  0  0  0
   19.9970   20.0009   23.0720 H   0  0  0  0  0  0  0  0  0  0  0  0
   20.6002   18.4739   22.4250 H   0  0  0  0  0  0  0  0  0  0  0  0
   18.8888   18.2423   23.7398 C   0  0  0  0  0  0  0  0  0  0  0  0
   17.9846   18.8007   24.0165 H   0  0  0  0  0  0  0  0  0  0  0  0
   18.5393   17.2963   23.3035 H   0  0  0  0  0  0  0  0  0  0  0  0
   19.7221   17.9204   25.0067 C   0  0  0  0  0  0  0  0  0  0  0  0
   20.5638   17.2754   24.7211 H   0  0  0  0  0  0  0  0  0  0  0  0
   19.1066   17.3318   25.6999 H   0  0  0  0  0  0  0  0  0  0  0  0
   20.2688   19.1658   25.7398 C   0  0  2  0  0  0  0  0  0  0  0  0
   20.8955   19.7293   25.0424 H   0  0  0  0  0  0  0  0  0  0  0  0
   21.1404   18.7443   26.9333 C   0  0  0  0  0  0  0  0  0  0  0  0
   21.9763   18.1154   26.6022 H   0  0  0  0  0  0  0  0  0  0  0  0
   21.5635   19.6235   27.4346 H   0  0  0  0  0  0  0  0  0  0  0  0
   20.5576   18.1778   27.6704 H   0  0  0  0  0  0  0  0  0  0  0  0
   19.1734   20.0950   26.1858 N   0  3  0  0  0  0  0  0  0  0  0  0
   18.5436   19.6368   26.8498 H   0  0  0  0  0  0  0  0  0  0  0  0
   18.6092   20.4109   25.3922 H   0  0  0  0  0  0  0  0  0  0  0  0
   19.5523   20.9277   26.6458 H   0  0  0  0  0  0  0  0  0  0  0  0
  1  2  1  0  0  0  0
  1  3  1  0  0  0  0
  1  4  1  0  0  0  0
  1  5  1  0  0  0  0
  5  6  1  0  0  0  0
  5  7  1  0  0  0  0
  5  8  1  0  0  0  0
  8  9  1  0  0  0  0
  8 10  1  0  0  0  0
  8 11  1  0  0  0  0
 11 12  1  0  0  0  0
 11 13  1  0  0  0  0
 11 14  1  0  0  0  0
 14 15  1  0  0  0  0
 14 16  1  0  0  0  0
 14 17  1  0  0  0  0
 17 18  1  0  0  0  0
 17 19  1  0  0  0  0
 17 20  1  0  0  0  0
 20 21  1  0  0  0  0
 20 22  1  0  0  0  0
 22 23  1  0  0  0  0
 22 24  1  0  0  0  0
 22 25  1  0  0  0  0
 20 26  1  0  0  0  0
 26 27  1  0  0  0  0
 26 28  1  0  0  0  0
 26 29  1  0  0  0  0
M  END
> <VM2 Rank>
27

> <Conf_Id>
1297

> <Probability>
1.27

> <Sum Probability>
71.59

> <Delta G>
1.250

> <G>
34.952

> <E>
-2.740

> <-TS>
37.692

> <U+W>
-26.884

> <U>
25.266

> <W>
-52.151

> <W(PB)>
-54.660

> <W(SA)>
2.509

> <Valence>
3.967

> <Coulomb>
20.252

> <VdW>
1.048

> <VdW6>
-9.487

> <VdW12>
10.535

> <Bond>
0.252

> <Angle>
1.329

> <Pdih>
2.385

> <Idih>
0.000

> <Tether>
0.000

$$$$
VeraChem MOL file


 29 28  0  0  0  0  0  0  0  0999 V2000     
   18.3076   19.5302   20.2946 C   0  0  0  0  0  0  0  0  0  0  0  0
   17.8719   19.1258   21.2166 H   0  0  0  0  0  0  0  0  0  0  0  0
   17.6213   20.2973   19.9133 H   0  0  0  0  0  0  0  0  0  0  0  0
   18.3550   18.7225   19.5528 H   0  0  0  0  0  0  0  0  0  0  0  0
   19.7075   20.1339   20.5477 C   0  0  0  0  0  0  0  0  0  0  0  0
   19.6385   20.9249   21.3063 H   0  0  0  0  0  0  0  0  0  0  0  0
   20.0504   20.6291   19.6286 H   0  0  0  0  0  0  0  0  0  0  0  0
   20.7665   19.0817   20.9649 C   0  0  0  0  0  0  0  0  0  0  0  0
   20.9090   18.3746   20.1361 H   0  0  0  0  0  0  0  0  0  0  0  0
   21.7331   19.5866   21.0985 H   0  0  0  0  0  0  0  0  0  0  0  0
   20.4352   18.2797   22.2499 C   0  0  0  0  0  0  0  0  0  0  0  0
   21.2471   17.5608   22.4260 H   0  0  0  0  0  0  0  0  0  0  0  0
   19.5294   17.6791   22.0932 H   0  0  0  0  0  0  0  0  0  0  0  0
   20.2647   19.1666   23.5064 C   0  0  0  0  0  0  0  0  0  0  0  0
   21.1567   19.7953   23.6346 H   0  0  0  0  0  0  0  0  0  0  0  0
   19.4124   19.8424   23.3638 H   0  0  0  0  0  0  0  0  0  0  0  0
   20.0449   18.3161   24.7811 C   0  0  0  0  0  0  0  0  0  0  0  0
   20.8804   17.6112   24.8862 H   0  0  0  0  0  0  0  0  0  0  0  0
   19.1356   17.7103   24.6707 H   0  0  0  0  0  0  0  0  0  0  0  0
   19.9489   19.1682   26.0651 C   0  0  2  0  0  0  0  0  0  0  0  0
   20.8529   19.7806   26.1387 H   0  0  0  0  0  0  0  0  0  0  0  0
   19.8779   18.2614   27.3040 C   0  0  0  0  0  0  0  0  0  0  0  0
   19.8462   18.8605   28.2224 H   0  0  0  0  0  0  0  0  0  0  0  0
   18.9843   17.6252   27.2797 H   0  0  0  0  0  0  0  0  0  0  0  0
   20.7593   17.6105   27.3618 H   0  0  0  0  0  0  0  0  0  0  0  0
   18.7828   20.1183   26.0403 N   0  3  0  0  0  0  0  0  0  0  0  0
   18.8399   20.7592   25.2444 H   0  0  0  0  0  0  0  0  0  0  0  0
   18.7465   20.6877   26.8906 H   0  0  0  0  0  0  0  0  0  0  0  0
   17.8940   19.6157   25.9694 H   0  0  0  0  0  0  0  0  0  0  0  0
  1  2  1  0  0  0  0
  1  3  1  0  0  0  0
  1  4  1  0  0  0  0
  1  5  1  0  0  0  0
  5  6  1  0  0  0  0
  5  7  1  0  0  0  0
  5  8  1  0  0  0  0
  8  9  1  0  0  0  0
  8 10  1  0  0  0  0
  8 11  1  0  0  0  0
 11 12  1  0  0  0  0
 11 13  1  0  0  0  0
 11 14  1  0  0  0  0
 14 15  1  0  0  0  0
 14 16  1  0  0  0  0
 14 17  1  0  0  0  0
 17 18  1  0  0  0  0
 17 19  1  0  0  0  0
 17 20  1  0  0  0  0
 20 21  1  0  0  0  0
 20 22  1  0  0  0  0
 22 23  1  0  0  0  0
 22 24  1  0  0  0  0
 22 25  1  0  0  0  0
 20 26  1  0  0  0  0
 26 27  1  0  0  0  0
 26 28  1  0  0  0  0
 26 29  1  0  0  0  0
M  END
> <VM2 Rank>
28

> <Conf_Id>
989

> <Probability>
1.25

> <Sum Probability>
72.84

> <Delta G>
1.262

> <G>
34.964

> <E>
-2.857

> <-TS>
37.821

> <U+W>
-27.001

> <U>
25.448

> <W>
-52.449

> <W(PB)>
-54.941

> <W(SA)>
2.491

> <Valence>
4.118

> <Coulomb>
20.194

> <VdW>
1.135

> <VdW6>
-9.586

> <VdW12>
10.721

> <Bond>
0.268

> <Angle>
1.523

> <Pdih>
2.327

> <Idih>
0.000

> <Tether>
0.000

$$$$
VeraChem MOL file


 29 28  0  0  0  0  0  0  0  0999 V2000     
   19.6010   19.8389   19.2620 C   0  0  0  0  0  0  0  0  0  0  0  0
   18.7397   20.5078   19.3879 H   0  0  0  0  0  0  0  0  0  0  0  0
   20.5120   20.4019   19.4996 H   0  0  0  0  0  0  0  0  0  0  0  0
   19.6552   19.5574   18.2024 H   0  0  0  0  0  0  0  0  0  0  0  0
   19.4617   18.5806   20.1487 C   0  0  0  0  0  0  0  0  0  0  0  0
   20.3506   17.9451   20.0319 H   0  0  0  0  0  0  0  0  0  0  0  0
   18.6102   17.9875   19.7870 H   0  0  0  0  0  0  0  0  0  0  0  0
   19.2405   18.9015   21.6468 C   0  0  0  0  0  0  0  0  0  0  0  0
   18.3500   19.5352   21.7582 H   0  0  0  0  0  0  0  0  0  0  0  0
   19.0182   17.9601   22.1652 H   0  0  0  0  0  0  0  0  0  0  0  0
   20.4583   19.5872   22.3168 C   0  0  0  0  0  0  0  0  0  0  0  0
   20.6818   20.5261   21.7942 H   0  0  0  0  0  0  0  0  0  0  0  0
   21.3484   18.9526   22.2065 H   0  0  0  0  0  0  0  0  0  0  0  0
   20.2362   19.9149   23.8139 C   0  0  0  0  0  0  0  0  0  0  0  0
   21.0915   20.5061   24.1697 H   0  0  0  0  0  0  0  0  0  0  0  0
   19.3513   20.5574   23.9148 H   0  0  0  0  0  0  0  0  0  0  0  0
   20.0891   18.6571   24.7080 C   0  0  0  0  0  0  0  0  0  0  0  0
   20.9276   17.9773   24.5063 H   0  0  0  0  0  0  0  0  0  0  0  0
   19.1721   18.1127   24.4498 H   0  0  0  0  0  0  0  0  0  0  0  0
   20.0724   18.9935   26.2146 C   0  0  2  0  0  0  0  0  0  0  0  0
   20.9849   19.5489   26.4522 H   0  0  0  0  0  0  0  0  0  0  0  0
   20.0606   17.7039   27.0507 C   0  0  0  0  0  0  0  0  0  0  0  0
   20.0862   17.9358   28.1226 H   0  0  0  0  0  0  0  0  0  0  0  0
   19.1603   17.1093   26.8509 H   0  0  0  0  0  0  0  0  0  0  0  0
   20.9369   17.0840   26.8235 H   0  0  0  0  0  0  0  0  0  0  0  0
   18.9162   19.8784   26.5925 N   0  3  0  0  0  0  0  0  0  0  0  0
   18.9354   20.7599   26.0727 H   0  0  0  0  0  0  0  0  0  0  0  0
   18.9326   20.1100   27.5899 H   0  0  0  0  0  0  0  0  0  0  0  0
   18.0198   19.4244   26.3976 H   0  0  0  0  0  0  0  0  0  0  0  0
  1  2  1  0  0  0  0
  1  3  1  0  0  0  0
  1  4  1  0  0  0  0
  1  5  1  0  0  0  0
  5  6  1  0  0  0  0
  5  7  1  0  0  0  0
  5  8  1  0  0  0  0
  8  9  1  0  0  0  0
  8 10  1  0  0  0  0
  8 11  1  0  0  0  0
 11 12  1  0  0  0  0
 11 13  1  0  0  0  0
 11 14  1  0  0  0  0
 14 15  1  0  0  0  0
 14 16  1  0  0  0  0
 14 17  1  0  0  0  0
 17 18  1  0  0  0  0
 17 19  1  0  0  0  0
 17 20  1  0  0  0  0
 20 21  1  0  0  0  0
 20 22  1  0  0  0  0
 22 23  1  0  0  0  0
 22 24  1  0  0  0  0
 22 25  1  0  0  0  0
 20 26  1  0  0  0  0
 26 27  1  0  0  0  0
 26 28  1  0  0  0  0
 26 29  1  0  0  0  0
M  END
> <VM2 Rank>
29

> <Conf_Id>
350

> <Probability>
1.23

> <Sum Probability>
74.07

> <Delta G>
1.269

> <G>
34.971

> <E>
-2.590

> <-TS>
37.561

> <U+W>
-26.735

> <U>
25.449

> <W>
-52.184

> <W(PB)>
-54.671

> <W(SA)>
2.488

> <Valence>
4.270

> <Coulomb>
19.867

> <VdW>
1.312

> <VdW6>
-9.219

> <VdW12>
10.531

> <Bond>
0.272

> <Angle>
1.393

> <Pdih>
2.605

> <Idih>
0.000

> <Tether>
0.000

$$$$
VeraChem MOL file


 29 28  0  0  0  0  0  0  0  0999 V2000     
   18.9916   18.5540   19.5725 C   0  0  0  0  0  0  0  0  0  0  0  0
   19.0200   17.5106   19.9123 H   0  0  0  0  0  0  0  0  0  0  0  0
   18.0782   19.0187   19.9641 H   0  0  0  0  0  0  0  0  0  0  0  0
   18.9161   18.5488   18.4774 H   0  0  0  0  0  0  0  0  0  0  0  0
   20.2557   19.3199   20.0240 C   0  0  0  0  0  0  0  0  0  0  0  0
   20.1913   20.3663   19.6943 H   0  0  0  0  0  0  0  0  0  0  0  0
   21.1308   18.8908   19.5162 H   0  0  0  0  0  0  0  0  0  0  0  0
   20.4916   19.2660   21.5526 C   0  0  0  0  0  0  0  0  0  0  0  0
   20.5852   18.2171   21.8629 H   0  0  0  0  0  0  0  0  0  0  0  0
   21.4556   19.7442   21.7742 H   0  0  0  0  0  0  0  0  0  0  0  0
   19.3774   19.9677   22.3697 C   0  0  0  0  0  0  0  0  0  0  0  0
   18.4299   19.4239   22.2592 H   0  0  0  0  0  0  0  0  0  0  0  0
   19.2091   20.9710   21.9549 H   0  0  0  0  0  0  0  0  0  0  0  0
   19.7101   20.1097   23.8754 C   0  0  0  0  0  0  0  0  0  0  0  0
   20.6509   20.6651   23.9931 H   0  0  0  0  0  0  0  0  0  0  0  0
   18.9279   20.7250   24.3391 H   0  0  0  0  0  0  0  0  0  0  0  0
   19.8091   18.7514   24.6164 C   0  0  0  0  0  0  0  0  0  0  0  0
   20.6063   18.1489   24.1637 H   0  0  0  0  0  0  0  0  0  0  0  0
   18.8758   18.1878   24.4857 H   0  0  0  0  0  0  0  0  0  0  0  0
   20.1143   18.9080   26.1220 C   0  0  2  0  0  0  0  0  0  0  0  0
   21.0275   19.5018   26.2270 H   0  0  0  0  0  0  0  0  0  0  0  0
   20.3566   17.5325   26.7639 C   0  0  0  0  0  0  0  0  0  0  0  0
   19.4666   16.8955   26.6854 H   0  0  0  0  0  0  0  0  0  0  0  0
   21.1913   17.0152   26.2744 H   0  0  0  0  0  0  0  0  0  0  0  0
   20.6085   17.6386   27.8262 H   0  0  0  0  0  0  0  0  0  0  0  0
   19.0297   19.6468   26.8574 N   0  3  0  0  0  0  0  0  0  0  0  0
   18.1362   19.1507   26.8010 H   0  0  0  0  0  0  0  0  0  0  0  0
   18.8874   20.5840   26.4712 H   0  0  0  0  0  0  0  0  0  0  0  0
   19.2580   19.7560   27.8497 H   0  0  0  0  0  0  0  0  0  0  0  0
  1  2  1  0  0  0  0
  1  3  1  0  0  0  0
  1  4  1  0  0  0  0
  1  5  1  0  0  0  0
  5  6  1  0  0  0  0
  5  7  1  0  0  0  0
  5  8  1  0  0  0  0
  8  9  1  0  0  0  0
  8 10  1  0  0  0  0
  8 11  1  0  0  0  0
 11 12  1  0  0  0  0
 11 13  1  0  0  0  0
 11 14  1  0  0  0  0
 14 15  1  0  0  0  0
 14 16  1  0  0  0  0
 14 17  1  0  0  0  0
 17 18  1  0  0  0  0
 17 19  1  0  0  0  0
 17 20  1  0  0  0  0
 20 21  1  0  0  0  0
 20 22  1  0  0  0  0
 22 23  1  0  0  0  0
 22 24  1  0  0  0  0
 22 25  1  0  0  0  0
 20 26  1  0  0  0  0
 26 27  1  0  0  0  0
 26 28  1  0  0  0  0
 26 29  1  0  0  0  0
M  END
> <VM2 Rank>
30

> <Conf_Id>
1508

> <Probability>
1.18

> <Sum Probability>
75.26

> <Delta G>
1.292

> <G>
34.995

> <E>
-2.604

> <-TS>
37.599

> <U+W>
-26.749

> <U>
25.263

> <W>
-52.010

> <W(PB)>
-54.531

> <W(SA)>
2.521

> <Valence>
4.207

> <Coulomb>
19.737

> <VdW>
1.319

> <VdW6>
-9.273

> <VdW12>
10.592

> <Bond>
0.271

> <Angle>
1.357

> <Pdih>
2.580

> <Idih>
0.000

> <Tether>
0.000

$$$$
VeraChem MOL file


 29 28  0  0  0  0  0  0  0  0999 V2000     
   20.3871   20.7307   20.2741 C   0  0  0  0  0  0  0  0  0  0  0  0
   19.5514   21.4224   20.4416 H   0  0  0  0  0  0  0  0  0  0  0  0
   21.0850   20.8234   21.1154 H   0  0  0  0  0  0  0  0  0  0  0  0
   20.9165   21.0567   19.3694 H   0  0  0  0  0  0  0  0  0  0  0  0
   19.8828   19.2788   20.1116 C   0  0  0  0  0  0  0  0  0  0  0  0
   20.7390   18.6029   19.9780 H   0  0  0  0  0  0  0  0  0  0  0  0
   19.2907   19.2113   19.1882 H   0  0  0  0  0  0  0  0  0  0  0  0
   19.0124   18.7933   21.2957 C   0  0  0  0  0  0  0  0  0  0  0  0
   18.1475   19.4608   21.4128 H   0  0  0  0  0  0  0  0  0  0  0  0
   18.6069   17.8029   21.0466 H   0  0  0  0  0  0  0  0  0  0  0  0
   19.7861   18.7015   22.6325 C   0  0  0  0  0  0  0  0  0  0  0  0
   20.1420   19.6989   22.9187 H   0  0  0  0  0  0  0  0  0  0  0  0
   20.6754   18.0704   22.4979 H   0  0  0  0  0  0  0  0  0  0  0  0
   18.9056   18.1181   23.7636 C   0  0  0  0  0  0  0  0  0  0  0  0
   18.0242   18.7554   23.9150 H   0  0  0  0  0  0  0  0  0  0  0  0
   18.5206   17.1379   23.4501 H   0  0  0  0  0  0  0  0  0  0  0  0
   19.6684   17.9400   25.1014 C   0  0  0  0  0  0  0  0  0  0  0  0
   20.4843   17.2209   24.9495 H   0  0  0  0  0  0  0  0  0  0  0  0
   18.9940   17.4866   25.8400 H   0  0  0  0  0  0  0  0  0  0  0  0
   20.2524   19.2489   25.6788 C   0  0  2  0  0  0  0  0  0  0  0  0
   20.9385   19.6755   24.9412 H   0  0  0  0  0  0  0  0  0  0  0  0
   21.0482   18.9596   26.9612 C   0  0  0  0  0  0  0  0  0  0  0  0
   21.8607   18.2493   26.7635 H   0  0  0  0  0  0  0  0  0  0  0  0
   21.4985   19.8793   27.3545 H   0  0  0  0  0  0  0  0  0  0  0  0
   20.4042   18.5337   27.7408 H   0  0  0  0  0  0  0  0  0  0  0  0
   19.1929   20.2852   25.9351 N   0  3  0  0  0  0  0  0  0  0  0  0
   18.6813   20.5123   25.0780 H   0  0  0  0  0  0  0  0  0  0  0  0
   19.5981   21.1551   26.2923 H   0  0  0  0  0  0  0  0  0  0  0  0
   18.5111   19.9579   26.6246 H   0  0  0  0  0  0  0  0  0  0  0  0
  1  2  1  0  0  0  0
  1  3  1  0  0  0  0
  1  4  1  0  0  0  0
  1  5  1  0  0  0  0
  5  6  1  0  0  0  0
  5  7  1  0  0  0  0
  5  8  1  0  0  0  0
  8  9  1  0  0  0  0
  8 10  1  0  0  0  0
  8 11  1  0  0  0  0
 11 12  1  0  0  0  0
 11 13  1  0  0  0  0
 11 14  1  0  0  0  0
 14 15  1  0  0  0  0
 14 16  1  0  0  0  0
 14 17  1  0  0  0  0
 17 18  1  0  0  0  0
 17 19  1  0  0  0  0
 17 20  1  0  0  0  0
 20 21  1  0  0  0  0
 20 22  1  0  0  0  0
 22 23  1  0  0  0  0
 22 24  1  0  0  0  0
 22 25  1  0  0  0  0
 20 26  1  0  0  0  0
 26 27  1  0  0  0  0
 26 28  1  0  0  0  0
 26 29  1  0  0  0  0
M  END
> <VM2 Rank>
31

> <Conf_Id>
605

> <Probability>
1.17

> <Sum Probability>
76.43

> <Delta G>
1.299

> <G>
35.002

> <E>
-2.688

> <-TS>
37.689

> <U+W>
-26.832

> <U>
25.375

> <W>
-52.208

> <W(PB)>
-54.720

> <W(SA)>
2.512

> <Valence>
3.961

> <Coulomb>
20.374

> <VdW>
1.041

> <VdW6>
-9.517

> <VdW12>
10.558

> <Bond>
0.254

> <Angle>
1.329

> <Pdih>
2.378

> <Idih>
0.000

> <Tether>
0.000

$$$$
VeraChem MOL file


 29 28  0  0  0  0  0  0  0  0999 V2000     
   21.0680   19.3523   19.7510 C   0  0  0  0  0  0  0  0  0  0  0  0
   21.7272   18.5303   20.0594 H   0  0  0  0  0  0  0  0  0  0  0  0
   20.4903   19.0188   18.8791 H   0  0  0  0  0  0  0  0  0  0  0  0
   21.7009   20.1915   19.4347 H   0  0  0  0  0  0  0  0  0  0  0  0
   20.1358   19.7777   20.9051 C   0  0  0  0  0  0  0  0  0  0  0  0
   19.5101   20.6195   20.5774 H   0  0  0  0  0  0  0  0  0  0  0  0
   20.7477   20.1412   21.7413 H   0  0  0  0  0  0  0  0  0  0  0  0
   19.2362   18.6091   21.3714 C   0  0  0  0  0  0  0  0  0  0  0  0
   18.6907   18.2116   20.5044 H   0  0  0  0  0  0  0  0  0  0  0  0
   19.8598   17.7829   21.7371 H   0  0  0  0  0  0  0  0  0  0  0  0
   18.2010   19.0142   22.4528 C   0  0  0  0  0  0  0  0  0  0  0  0
   17.5937   18.1343   22.7060 H   0  0  0  0  0  0  0  0  0  0  0  0
   17.5039   19.7446   22.0195 H   0  0  0  0  0  0  0  0  0  0  0  0
   18.7935   19.6078   23.7574 C   0  0  0  0  0  0  0  0  0  0  0  0
   19.3050   20.5548   23.5398 H   0  0  0  0  0  0  0  0  0  0  0  0
   17.9566   19.8625   24.4207 H   0  0  0  0  0  0  0  0  0  0  0  0
   19.7626   18.6459   24.4916 C   0  0  0  0  0  0  0  0  0  0  0  0
   20.6103   18.4158   23.8341 H   0  0  0  0  0  0  0  0  0  0  0  0
   19.2560   17.6938   24.6981 H   0  0  0  0  0  0  0  0  0  0  0  0
   20.3153   19.2366   25.8068 C   0  0  2  0  0  0  0  0  0  0  0  0
   20.7809   20.2008   25.5808 H   0  0  0  0  0  0  0  0  0  0  0  0
   21.3887   18.3095   26.3991 C   0  0  0  0  0  0  0  0  0  0  0  0
   22.2131   18.1641   25.6898 H   0  0  0  0  0  0  0  0  0  0  0  0
   21.8108   18.7399   27.3156 H   0  0  0  0  0  0  0  0  0  0  0  0
   20.9713   17.3248   26.6443 H   0  0  0  0  0  0  0  0  0  0  0  0
   19.2348   19.5031   26.8190 N   0  3  0  0  0  0  0  0  0  0  0  0
   18.7475   18.6416   27.0796 H   0  0  0  0  0  0  0  0  0  0  0  0
   18.5350   20.1559   26.4560 H   0  0  0  0  0  0  0  0  0  0  0  0
   19.6180   19.9106   27.6767 H   0  0  0  0  0  0  0  0  0  0  0  0
  1  2  1  0  0  0  0
  1  3  1  0  0  0  0
  1  4  1  0  0  0  0
  1  5  1  0  0  0  0
  5  6  1  0  0  0  0
  5  7  1  0  0  0  0
  5  8  1  0  0  0  0
  8  9  1  0  0  0  0
  8 10  1  0  0  0  0
  8 11  1  0  0  0  0
 11 12  1  0  0  0  0
 11 13  1  0  0  0  0
 11 14  1  0  0  0  0
 14 15  1  0  0  0  0
 14 16  1  0  0  0  0
 14 17  1  0  0  0  0
 17 18  1  0  0  0  0
 17 19  1  0  0  0  0
 17 20  1  0  0  0  0
 20 21  1  0  0  0  0
 20 22  1  0  0  0  0
 22 23  1  0  0  0  0
 22 24  1  0  0  0  0
 22 25  1  0  0  0  0
 20 26  1  0  0  0  0
 26 27  1  0  0  0  0
 26 28  1  0  0  0  0
 26 29  1  0  0  0  0
M  END
> <VM2 Rank>
32

> <Conf_Id>
916

> <Probability>
1.16

> <Sum Probability>
77.58

> <Delta G>
1.308

> <G>
35.010

> <E>
-2.818

> <-TS>
37.828

> <U+W>
-26.963

> <U>
25.306

> <W>
-52.268

> <W(PB)>
-54.760

> <W(SA)>
2.492

> <Valence>
4.184

> <Coulomb>
19.997

> <VdW>
1.124

> <VdW6>
-9.687

> <VdW12>
10.811

> <Bond>
0.280

> <Angle>
1.609

> <Pdih>
2.295

> <Idih>
0.000

> <Tether>
0.000

$$$$
VeraChem MOL file


 29 28  0  0  0  0  0  0  0  0999 V2000     
   19.5542   19.8117   19.2267 C   0  0  0  0  0  0  0  0  0  0  0  0
   18.5988   20.2274   19.5696 H   0  0  0  0  0  0  0  0  0  0  0  0
   20.3064   20.6107   19.2512 H   0  0  0  0  0  0  0  0  0  0  0  0
   19.4233   19.5061   18.1805 H   0  0  0  0  0  0  0  0  0  0  0  0
   19.9940   18.6075   20.0900 C   0  0  0  0  0  0  0  0  0  0  0  0
   20.8812   18.1501   19.6301 H   0  0  0  0  0  0  0  0  0  0  0  0
   19.2103   17.8372   20.0780 H   0  0  0  0  0  0  0  0  0  0  0  0
   20.3342   18.9860   21.5520 C   0  0  0  0  0  0  0  0  0  0  0  0
   20.7646   18.1014   22.0379 H   0  0  0  0  0  0  0  0  0  0  0  0
   21.1178   19.7560   21.5581 H   0  0  0  0  0  0  0  0  0  0  0  0
   19.1083   19.4799   22.3620 C   0  0  0  0  0  0  0  0  0  0  0  0
   18.3266   18.7079   22.3609 H   0  0  0  0  0  0  0  0  0  0  0  0
   18.6754   20.3581   21.8661 H   0  0  0  0  0  0  0  0  0  0  0  0
   19.4455   19.8756   23.8210 C   0  0  0  0  0  0  0  0  0  0  0  0
   20.2412   20.6334   23.8216 H   0  0  0  0  0  0  0  0  0  0  0  0
   18.5591   20.3582   24.2531 H   0  0  0  0  0  0  0  0  0  0  0  0
   19.8642   18.6759   24.7099 C   0  0  0  0  0  0  0  0  0  0  0  0
   20.7661   18.2115   24.2931 H   0  0  0  0  0  0  0  0  0  0  0  0
   19.0786   17.9089   24.6933 H   0  0  0  0  0  0  0  0  0  0  0  0
   20.1601   19.0833   26.1698 C   0  0  2  0  0  0  0  0  0  0  0  0
   20.9175   19.8732   26.1587 H   0  0  0  0  0  0  0  0  0  0  0  0
   20.7220   17.8871   26.9548 C   0  0  0  0  0  0  0  0  0  0  0  0
   21.6408   17.5109   26.4880 H   0  0  0  0  0  0  0  0  0  0  0  0
   20.9672   18.1785   27.9836 H   0  0  0  0  0  0  0  0  0  0  0  0
   19.9977   17.0639   26.9960 H   0  0  0  0  0  0  0  0  0  0  0  0
   18.9535   19.6491   26.8678 N   0  3  0  0  0  0  0  0  0  0  0  0
   18.1945   18.9641   26.9145 H   0  0  0  0  0  0  0  0  0  0  0  0
   18.5942   20.4757   26.3828 H   0  0  0  0  0  0  0  0  0  0  0  0
   19.1739   19.9290   27.8278 H   0  0  0  0  0  0  0  0  0  0  0  0
  1  2  1  0  0  0  0
  1  3  1  0  0  0  0
  1  4  1  0  0  0  0
  1  5  1  0  0  0  0
  5  6  1  0  0  0  0
  5  7  1  0  0  0  0
  5  8  1  0  0  0  0
  8  9  1  0  0  0  0
  8 10  1  0  0  0  0
  8 11  1  0  0  0  0
 11 12  1  0  0  0  0
 11 13  1  0  0  0  0
 11 14  1  0  0  0  0
 14 15  1  0  0  0  0
 14 16  1  0  0  0  0
 14 17  1  0  0  0  0
 17 18  1  0  0  0  0
 17 19  1  0  0  0  0
 17 20  1  0  0  0  0
 20 21  1  0  0  0  0
 20 22  1  0  0  0  0
 22 23  1  0  0  0  0
 22 24  1  0  0  0  0
 22 25  1  0  0  0  0
 20 26  1  0  0  0  0
 26 27  1  0  0  0  0
 26 28  1  0  0  0  0
 26 29  1  0  0  0  0
M  END
> <VM2 Rank>
33

> <Conf_Id>
923

> <Probability>
1.11

> <Sum Probability>
78.69

> <Delta G>
1.332

> <G>
35.034

> <E>
-2.460

> <-TS>
37.494

> <U+W>
-26.605

> <U>
25.451

> <W>
-52.055

> <W(PB)>
-54.547

> <W(SA)>
2.492

> <Valence>
4.319

> <Coulomb>
19.732

> <VdW>
1.400

> <VdW6>
-9.173

> <VdW12>
10.573

> <Bond>
0.280

> <Angle>
1.458

> <Pdih>
2.580

> <Idih>
0.000

> <Tether>
0.000

$$$$
VeraChem MOL file


 29 28  0  0  0  0  0  0  0  0999 V2000     
   20.2676   20.7450   20.2634 C   0  0  0  0  0  0  0  0  0  0  0  0
   19.9264   21.2865   21.1544 H   0  0  0  0  0  0  0  0  0  0  0  0
   21.3564   20.6226   20.3303 H   0  0  0  0  0  0  0  0  0  0  0  0
   20.0537   21.3769   19.3917 H   0  0  0  0  0  0  0  0  0  0  0  0
   19.5621   19.3768   20.1253 C   0  0  0  0  0  0  0  0  0  0  0  0
   19.8408   18.9309   19.1603 H   0  0  0  0  0  0  0  0  0  0  0  0
   18.4735   19.5238   20.0931 H   0  0  0  0  0  0  0  0  0  0  0  0
   19.9228   18.3815   21.2543 C   0  0  0  0  0  0  0  0  0  0  0  0
   19.4717   17.4079   21.0175 H   0  0  0  0  0  0  0  0  0  0  0  0
   21.0099   18.2229   21.2699 H   0  0  0  0  0  0  0  0  0  0  0  0
   19.4415   18.8352   22.6531 C   0  0  0  0  0  0  0  0  0  0  0  0
   18.3620   19.0372   22.6215 H   0  0  0  0  0  0  0  0  0  0  0  0
   19.9364   19.7765   22.9227 H   0  0  0  0  0  0  0  0  0  0  0  0
   19.7363   17.7671   23.7333 C   0  0  0  0  0  0  0  0  0  0  0  0
   19.2778   16.8150   23.4325 H   0  0  0  0  0  0  0  0  0  0  0  0
   20.8167   17.5781   23.7849 H   0  0  0  0  0  0  0  0  0  0  0  0
   19.1949   18.1497   25.1351 C   0  0  0  0  0  0  0  0  0  0  0  0
   19.4280   17.3411   25.8405 H   0  0  0  0  0  0  0  0  0  0  0  0
   18.0994   18.2000   25.0812 H   0  0  0  0  0  0  0  0  0  0  0  0
   19.7246   19.4886   25.7008 C   0  0  2  0  0  0  0  0  0  0  0  0
   19.4774   20.2849   24.9927 H   0  0  0  0  0  0  0  0  0  0  0  0
   21.2506   19.4697   25.8993 C   0  0  0  0  0  0  0  0  0  0  0  0
   21.5544   18.6488   26.5608 H   0  0  0  0  0  0  0  0  0  0  0  0
   21.7745   19.3530   24.9434 H   0  0  0  0  0  0  0  0  0  0  0  0
   21.5942   20.4113   26.3451 H   0  0  0  0  0  0  0  0  0  0  0  0
   19.0356   19.8424   26.9893 N   0  3  0  0  0  0  0  0  0  0  0  0
   18.0202   19.9022   26.8700 H   0  0  0  0  0  0  0  0  0  0  0  0
   19.3542   20.7473   27.3477 H   0  0  0  0  0  0  0  0  0  0  0  0
   19.2195   19.1447   27.7154 H   0  0  0  0  0  0  0  0  0  0  0  0
  1  2  1  0  0  0  0
  1  3  1  0  0  0  0
  1  4  1  0  0  0  0
  1  5  1  0  0  0  0
  5  6  1  0  0  0  0
  5  7  1  0  0  0  0
  5  8  1  0  0  0  0
  8  9  1  0  0  0  0
  8 10  1  0  0  0  0
  8 11  1  0  0  0  0
 11 12  1  0  0  0  0
 11 13  1  0  0  0  0
 11 14  1  0  0  0  0
 14 15  1  0  0  0  0
 14 16  1  0  0  0  0
 14 17  1  0  0  0  0
 17 18  1  0  0  0  0
 17 19  1  0  0  0  0
 17 20  1  0  0  0  0
 20 21  1  0  0  0  0
 20 22  1  0  0  0  0
 22 23  1  0  0  0  0
 22 24  1  0  0  0  0
 22 25  1  0  0  0  0
 20 26  1  0  0  0  0
 26 27  1  0  0  0  0
 26 28  1  0  0  0  0
 26 29  1  0  0  0  0
M  END
> <VM2 Rank>
34

> <Conf_Id>
1260

> <Probability>
0.94

> <Sum Probability>
79.64

> <Delta G>
1.429

> <G>
35.131

> <E>
-2.658

> <-TS>
37.790

> <U+W>
-26.803

> <U>
25.521

> <W>
-52.323

> <W(PB)>
-54.806

> <W(SA)>
2.483

> <Valence>
4.455

> <Coulomb>
19.959

> <VdW>
1.107

> <VdW6>
-9.753

> <VdW12>
10.859

> <Bond>
0.265

> <Angle>
1.659

> <Pdih>
2.531

> <Idih>
0.000

> <Tether>
0.000

$$$$
VeraChem MOL file


 29 28  0  0  0  0  0  0  0  0999 V2000     
   19.3784   19.6731   19.0515 C   0  0  0  0  0  0  0  0  0  0  0  0
   18.5398   20.3774   19.1297 H   0  0  0  0  0  0  0  0  0  0  0  0
   20.2597   20.2278   18.7039 H   0  0  0  0  0  0  0  0  0  0  0  0
   19.1242   18.9300   18.2846 H   0  0  0  0  0  0  0  0  0  0  0  0
   19.6531   18.9862   20.4060 C   0  0  0  0  0  0  0  0  0  0  0  0
   20.4765   18.2677   20.2894 H   0  0  0  0  0  0  0  0  0  0  0  0
   18.7657   18.4096   20.6983 H   0  0  0  0  0  0  0  0  0  0  0  0
   20.0093   20.0154   21.5047 C   0  0  0  0  0  0  0  0  0  0  0  0
   20.8454   20.6355   21.1529 H   0  0  0  0  0  0  0  0  0  0  0  0
   19.1634   20.6991   21.6603 H   0  0  0  0  0  0  0  0  0  0  0  0
   20.4124   19.3714   22.8540 C   0  0  0  0  0  0  0  0  0  0  0  0
   20.7770   20.1692   23.5140 H   0  0  0  0  0  0  0  0  0  0  0  0
   21.2597   18.6898   22.6965 H   0  0  0  0  0  0  0  0  0  0  0  0
   19.2528   18.6124   23.5480 C   0  0  0  0  0  0  0  0  0  0  0  0
   18.3934   19.2835   23.6777 H   0  0  0  0  0  0  0  0  0  0  0  0
   18.9070   17.7976   22.8990 H   0  0  0  0  0  0  0  0  0  0  0  0
   19.6564   17.9964   24.9124 C   0  0  0  0  0  0  0  0  0  0  0  0
   20.4569   17.2633   24.7456 H   0  0  0  0  0  0  0  0  0  0  0  0
   18.8044   17.4328   25.3152 H   0  0  0  0  0  0  0  0  0  0  0  0
   20.1281   19.0263   25.9635 C   0  0  2  0  0  0  0  0  0  0  0  0
   20.9929   19.5608   25.5598 H   0  0  0  0  0  0  0  0  0  0  0  0
   20.5662   18.3127   27.2520 C   0  0  0  0  0  0  0  0  0  0  0  0
   21.3740   17.5991   27.0467 H   0  0  0  0  0  0  0  0  0  0  0  0
   20.9395   19.0352   27.9882 H   0  0  0  0  0  0  0  0  0  0  0  0
   19.7317   17.7630   27.7052 H   0  0  0  0  0  0  0  0  0  0  0  0
   19.0794   20.0622   26.2620 N   0  3  0  0  0  0  0  0  0  0  0  0
   18.2343   19.6354   26.6509 H   0  0  0  0  0  0  0  0  0  0  0  0
   18.8080   20.5697   25.4154 H   0  0  0  0  0  0  0  0  0  0  0  0
   19.4158   20.7516   26.9404 H   0  0  0  0  0  0  0  0  0  0  0  0
  1  2  1  0  0  0  0
  1  3  1  0  0  0  0
  1  4  1  0  0  0  0
  1  5  1  0  0  0  0
  5  6  1  0  0  0  0
  5  7  1  0  0  0  0
  5  8  1  0  0  0  0
  8  9  1  0  0  0  0
  8 10  1  0  0  0  0
  8 11  1  0  0  0  0
 11 12  1  0  0  0  0
 11 13  1  0  0  0  0
 11 14  1  0  0  0  0
 14 15  1  0  0  0  0
 14 16  1  0  0  0  0
 14 17  1  0  0  0  0
 17 18  1  0  0  0  0
 17 19  1  0  0  0  0
 17 20  1  0  0  0  0
 20 21  1  0  0  0  0
 20 22  1  0  0  0  0
 22 23  1  0  0  0  0
 22 24  1  0  0  0  0
 22 25  1  0  0  0  0
 20 26  1  0  0  0  0
 26 27  1  0  0  0  0
 26 28  1  0  0  0  0
 26 29  1  0  0  0  0
M  END
> <VM2 Rank>
35

> <Conf_Id>
851

> <Probability>
0.93

> <Sum Probability>
80.57

> <Delta G>
1.434

> <G>
35.137

> <E>
-2.510

> <-TS>
37.647

> <U+W>
-26.655

> <U>
25.432

> <W>
-52.087

> <W(PB)>
-54.610

> <W(SA)>
2.523

> <Valence>
4.057

> <Coulomb>
20.266

> <VdW>
1.109

> <VdW6>
-9.451

> <VdW12>
10.559

> <Bond>
0.265

> <Angle>
1.407

> <Pdih>
2.385

> <Idih>
0.000

> <Tether>
0.000

$$$$
VeraChem MOL file


 29 28  0  0  0  0  0  0  0  0999 V2000     
   19.1566   20.0996   19.3405 C   0  0  0  0  0  0  0  0  0  0  0  0
   20.0696   20.5583   18.9387 H   0  0  0  0  0  0  0  0  0  0  0  0
   19.0091   19.1346   18.8383 H   0  0  0  0  0  0  0  0  0  0  0  0
   18.3107   20.7485   19.0791 H   0  0  0  0  0  0  0  0  0  0  0  0
   19.2528   19.9193   20.8702 C   0  0  0  0  0  0  0  0  0  0  0  0
   18.3085   19.4972   21.2387 H   0  0  0  0  0  0  0  0  0  0  0  0
   19.3704   20.9029   21.3458 H   0  0  0  0  0  0  0  0  0  0  0  0
   20.4366   19.0040   21.2625 C   0  0  0  0  0  0  0  0  0  0  0  0
   20.2928   18.0053   20.8277 H   0  0  0  0  0  0  0  0  0  0  0  0
   21.3588   19.4034   20.8182 H   0  0  0  0  0  0  0  0  0  0  0  0
   20.6427   18.8802   22.7918 C   0  0  0  0  0  0  0  0  0  0  0  0
   20.8060   19.8802   23.2152 H   0  0  0  0  0  0  0  0  0  0  0  0
   21.5660   18.3129   22.9731 H   0  0  0  0  0  0  0  0  0  0  0  0
   19.4681   18.1756   23.5166 C   0  0  0  0  0  0  0  0  0  0  0  0
   18.5524   18.7734   23.4267 H   0  0  0  0  0  0  0  0  0  0  0  0
   19.2589   17.2199   23.0167 H   0  0  0  0  0  0  0  0  0  0  0  0
   19.7600   17.8943   25.0127 C   0  0  0  0  0  0  0  0  0  0  0  0
   20.6116   17.2046   25.0830 H   0  0  0  0  0  0  0  0  0  0  0  0
   18.9024   17.3678   25.4523 H   0  0  0  0  0  0  0  0  0  0  0  0
   20.0664   19.1587   25.8463 C   0  0  2  0  0  0  0  0  0  0  0  0
   20.9339   19.6596   25.4064 H   0  0  0  0  0  0  0  0  0  0  0  0
   20.4174   18.7743   27.2922 C   0  0  0  0  0  0  0  0  0  0  0  0
   20.6743   19.6647   27.8792 H   0  0  0  0  0  0  0  0  0  0  0  0
   19.5760   18.2710   27.7848 H   0  0  0  0  0  0  0  0  0  0  0  0
   21.2815   18.0986   27.3168 H   0  0  0  0  0  0  0  0  0  0  0  0
   18.9354   20.1499   25.8212 N   0  3  0  0  0  0  0  0  0  0  0  0
   18.0831   19.7524   26.2250 H   0  0  0  0  0  0  0  0  0  0  0  0
   18.7182   20.4403   24.8640 H   0  0  0  0  0  0  0  0  0  0  0  0
   19.1643   20.9931   26.3553 H   0  0  0  0  0  0  0  0  0  0  0  0
  1  2  1  0  0  0  0
  1  3  1  0  0  0  0
  1  4  1  0  0  0  0
  1  5  1  0  0  0  0
  5  6  1  0  0  0  0
  5  7  1  0  0  0  0
  5  8  1  0  0  0  0
  8  9  1  0  0  0  0
  8 10  1  0  0  0  0
  8 11  1  0  0  0  0
 11 12  1  0  0  0  0
 11 13  1  0  0  0  0
 11 14  1  0  0  0  0
 14 15  1  0  0  0  0
 14 16  1  0  0  0  0
 14 17  1  0  0  0  0
 17 18  1  0  0  0  0
 17 19  1  0  0  0  0
 17 20  1  0  0  0  0
 20 21  1  0  0  0  0
 20 22  1  0  0  0  0
 22 23  1  0  0  0  0
 22 24  1  0  0  0  0
 22 25  1  0  0  0  0
 20 26  1  0  0  0  0
 26 27  1  0  0  0  0
 26 28  1  0  0  0  0
 26 29  1  0  0  0  0
M  END
> <VM2 Rank>
36

> <Conf_Id>
1187

> <Probability>
0.90

> <Sum Probability>
81.47

> <Delta G>
1.454

> <G>
35.156

> <E>
-2.537

> <-TS>
37.693

> <U+W>
-26.682

> <U>
25.640

> <W>
-52.321

> <W(PB)>
-54.810

> <W(SA)>
2.488

> <Valence>
3.985

> <Coulomb>
20.665

> <VdW>
0.990

> <VdW6>
-9.569

> <VdW12>
10.559

> <Bond>
0.256

> <Angle>
1.314

> <Pdih>
2.414

> <Idih>
0.000

> <Tether>
0.000

$$$$
VeraChem MOL file


 29 28  0  0  0  0  0  0  0  0999 V2000     
   20.4607   19.1082   19.2236 C   0  0  0  0  0  0  0  0  0  0  0  0
   21.3014   18.5261   18.8244 H   0  0  0  0  0  0  0  0  0  0  0  0
   19.5360   18.7066   18.7891 H   0  0  0  0  0  0  0  0  0  0  0  0
   20.5768   20.1451   18.8823 H   0  0  0  0  0  0  0  0  0  0  0  0
   20.4278   19.0313   20.7647 C   0  0  0  0  0  0  0  0  0  0  0  0
   21.3762   19.4122   21.1686 H   0  0  0  0  0  0  0  0  0  0  0  0
   20.3524   17.9784   21.0670 H   0  0  0  0  0  0  0  0  0  0  0  0
   19.2474   19.8415   21.3504 C   0  0  0  0  0  0  0  0  0  0  0  0
   19.2991   20.8718   20.9720 H   0  0  0  0  0  0  0  0  0  0  0  0
   18.2968   19.4272   20.9872 H   0  0  0  0  0  0  0  0  0  0  0  0
   19.2370   19.8875   22.8979 C   0  0  0  0  0  0  0  0  0  0  0  0
   18.4424   20.5743   23.2204 H   0  0  0  0  0  0  0  0  0  0  0  0
   20.1827   20.3195   23.2514 H   0  0  0  0  0  0  0  0  0  0  0  0
   19.0039   18.5031   23.5538 C   0  0  0  0  0  0  0  0  0  0  0  0
   18.1058   18.0449   23.1172 H   0  0  0  0  0  0  0  0  0  0  0  0
   19.8343   17.8257   23.3189 H   0  0  0  0  0  0  0  0  0  0  0  0
   18.8169   18.5837   25.0908 C   0  0  0  0  0  0  0  0  0  0  0  0
   18.6473   17.5724   25.4837 H   0  0  0  0  0  0  0  0  0  0  0  0
   17.8990   19.1489   25.2992 H   0  0  0  0  0  0  0  0  0  0  0  0
   19.9883   19.2404   25.8584 C   0  0  2  0  0  0  0  0  0  0  0  0
   20.1409   20.2477   25.4596 H   0  0  0  0  0  0  0  0  0  0  0  0
   21.2996   18.4503   25.7000 C   0  0  0  0  0  0  0  0  0  0  0  0
   21.6329   18.4381   24.6557 H   0  0  0  0  0  0  0  0  0  0  0  0
   22.1013   18.9093   26.2914 H   0  0  0  0  0  0  0  0  0  0  0  0
   21.1803   17.4126   26.0354 H   0  0  0  0  0  0  0  0  0  0  0  0
   19.6544   19.4100   27.3144 N   0  3  0  0  0  0  0  0  0  0  0  0
   20.4108   19.8806   27.8194 H   0  0  0  0  0  0  0  0  0  0  0  0
   19.4990   18.5066   27.7699 H   0  0  0  0  0  0  0  0  0  0  0  0
   18.8068   19.9700   27.4442 H   0  0  0  0  0  0  0  0  0  0  0  0
  1  2  1  0  0  0  0
  1  3  1  0  0  0  0
  1  4  1  0  0  0  0
  1  5  1  0  0  0  0
  5  6  1  0  0  0  0
  5  7  1  0  0  0  0
  5  8  1  0  0  0  0
  8  9  1  0  0  0  0
  8 10  1  0  0  0  0
  8 11  1  0  0  0  0
 11 12  1  0  0  0  0
 11 13  1  0  0  0  0
 11 14  1  0  0  0  0
 14 15  1  0  0  0  0
 14 16  1  0  0  0  0
 14 17  1  0  0  0  0
 17 18  1  0  0  0  0
 17 19  1  0  0  0  0
 17 20  1  0  0  0  0
 20 21  1  0  0  0  0
 20 22  1  0  0  0  0
 22 23  1  0  0  0  0
 22 24  1  0  0  0  0
 22 25  1  0  0  0  0
 20 26  1  0  0  0  0
 26 27  1  0  0  0  0
 26 28  1  0  0  0  0
 26 29  1  0  0  0  0
M  END
> <VM2 Rank>
37

> <Conf_Id>
676

> <Probability>
0.90

> <Sum Probability>
82.37

> <Delta G>
1.459

> <G>
35.161

> <E>
-2.627

> <-TS>
37.789

> <U+W>
-26.772

> <U>
25.505

> <W>
-52.277

> <W(PB)>
-54.758

> <W(SA)>
2.481

> <Valence>
4.471

> <Coulomb>
19.979

> <VdW>
1.055

> <VdW6>
-9.825

> <VdW12>
10.880

> <Bond>
0.268

> <Angle>
1.632

> <Pdih>
2.571

> <Idih>
0.000

> <Tether>
0.000

$$$$
VeraChem MOL file


 29 28  0  0  0  0  0  0  0  0999 V2000     
   19.4181   20.4426   19.8567 C   0  0  0  0  0  0  0  0  0  0  0  0
   19.7728   21.0982   19.0510 H   0  0  0  0  0  0  0  0  0  0  0  0
   18.5227   19.9205   19.4952 H   0  0  0  0  0  0  0  0  0  0  0  0
   19.1270   21.0828   20.6986 H   0  0  0  0  0  0  0  0  0  0  0  0
   20.5210   19.4386   20.2618 C   0  0  0  0  0  0  0  0  0  0  0  0
   21.3934   19.9840   20.6480 H   0  0  0  0  0  0  0  0  0  0  0  0
   20.8637   18.9073   19.3629 H   0  0  0  0  0  0  0  0  0  0  0  0
   20.0511   18.3966   21.3053 C   0  0  0  0  0  0  0  0  0  0  0  0
   19.1938   17.8379   20.9050 H   0  0  0  0  0  0  0  0  0  0  0  0
   20.8562   17.6637   21.4531 H   0  0  0  0  0  0  0  0  0  0  0  0
   19.6771   19.0186   22.6718 C   0  0  0  0  0  0  0  0  0  0  0  0
   18.8220   19.6966   22.5518 H   0  0  0  0  0  0  0  0  0  0  0  0
   20.5189   19.6239   23.0334 H   0  0  0  0  0  0  0  0  0  0  0  0
   19.3202   17.9329   23.7151 C   0  0  0  0  0  0  0  0  0  0  0  0
   18.5170   17.2997   23.3138 H   0  0  0  0  0  0  0  0  0  0  0  0
   20.1797   17.2673   23.8699 H   0  0  0  0  0  0  0  0  0  0  0  0
   18.8507   18.5198   25.0714 C   0  0  0  0  0  0  0  0  0  0  0  0
   18.6033   17.6939   25.7514 H   0  0  0  0  0  0  0  0  0  0  0  0
   17.9141   19.0683   24.9055 H   0  0  0  0  0  0  0  0  0  0  0  0
   19.8620   19.4646   25.7625 C   0  0  2  0  0  0  0  0  0  0  0  0
   20.0939   20.2842   25.0761 H   0  0  0  0  0  0  0  0  0  0  0  0
   21.1737   18.7446   26.1224 C   0  0  0  0  0  0  0  0  0  0  0  0
   21.6964   18.3977   25.2234 H   0  0  0  0  0  0  0  0  0  0  0  0
   21.8540   19.4225   26.6524 H   0  0  0  0  0  0  0  0  0  0  0  0
   20.9860   17.8773   26.7676 H   0  0  0  0  0  0  0  0  0  0  0  0
   19.2621   20.0978   26.9869 N   0  3  0  0  0  0  0  0  0  0  0  0
   19.9138   20.7545   27.4260 H   0  0  0  0  0  0  0  0  0  0  0  0
   19.0173   19.3948   27.6896 H   0  0  0  0  0  0  0  0  0  0  0  0
   18.4093   20.6188   26.7628 H   0  0  0  0  0  0  0  0  0  0  0  0
  1  2  1  0  0  0  0
  1  3  1  0  0  0  0
  1  4  1  0  0  0  0
  1  5  1  0  0  0  0
  5  6  1  0  0  0  0
  5  7  1  0  0  0  0
  5  8  1  0  0  0  0
  8  9  1  0  0  0  0
  8 10  1  0  0  0  0
  8 11  1  0  0  0  0
 11 12  1  0  0  0  0
 11 13  1  0  0  0  0
 11 14  1  0  0  0  0
 14 15  1  0  0  0  0
 14 16  1  0  0  0  0
 14 17  1  0  0  0  0
 17 18  1  0  0  0  0
 17 19  1  0  0  0  0
 17 20  1  0  0  0  0
 20 21  1  0  0  0  0
 20 22  1  0  0  0  0
 22 23  1  0  0  0  0
 22 24  1  0  0  0  0
 22 25  1  0  0  0  0
 20 26  1  0  0  0  0
 26 27  1  0  0  0  0
 26 28  1  0  0  0  0
 26 29  1  0  0  0  0
M  END
> <VM2 Rank>
38

> <Conf_Id>
675

> <Probability>
0.86

> <Sum Probability>
83.23

> <Delta G>
1.484

> <G>
35.187

> <E>
-2.602

> <-TS>
37.789

> <U+W>
-26.747

> <U>
25.489

> <W>
-52.236

> <W(PB)>
-54.720

> <W(SA)>
2.485

> <Valence>
4.461

> <Coulomb>
19.910

> <VdW>
1.118

> <VdW6>
-9.713

> <VdW12>
10.831

> <Bond>
0.263

> <Angle>
1.656

> <Pdih>
2.542

> <Idih>
0.000

> <Tether>
0.000

$$$$
VeraChem MOL file


 29 28  0  0  0  0  0  0  0  0999 V2000     
   18.2671   19.0783   19.9820 C   0  0  0  0  0  0  0  0  0  0  0  0
   17.4186   19.7407   19.7670 H   0  0  0  0  0  0  0  0  0  0  0  0
   18.8118   18.9132   19.0433 H   0  0  0  0  0  0  0  0  0  0  0  0
   17.8653   18.1138   20.3187 H   0  0  0  0  0  0  0  0  0  0  0  0
   19.1857   19.7006   21.0547 C   0  0  0  0  0  0  0  0  0  0  0  0
   18.5970   19.8870   21.9627 H   0  0  0  0  0  0  0  0  0  0  0  0
   19.5484   20.6765   20.7031 H   0  0  0  0  0  0  0  0  0  0  0  0
   20.3879   18.7825   21.3778 C   0  0  0  0  0  0  0  0  0  0  0  0
   20.0271   17.8216   21.7675 H   0  0  0  0  0  0  0  0  0  0  0  0
   20.9184   18.5484   20.4445 H   0  0  0  0  0  0  0  0  0  0  0  0
   21.4011   19.4111   22.3692 C   0  0  0  0  0  0  0  0  0  0  0  0
   21.8408   20.3066   21.9088 H   0  0  0  0  0  0  0  0  0  0  0  0
   22.2338   18.7091   22.5142 H   0  0  0  0  0  0  0  0  0  0  0  0
   20.8216   19.7969   23.7546 C   0  0  0  0  0  0  0  0  0  0  0  0
   21.6320   20.2253   24.3606 H   0  0  0  0  0  0  0  0  0  0  0  0
   20.0793   20.5959   23.6331 H   0  0  0  0  0  0  0  0  0  0  0  0
   20.2014   18.5990   24.5179 C   0  0  0  0  0  0  0  0  0  0  0  0
   20.9308   17.7786   24.5437 H   0  0  0  0  0  0  0  0  0  0  0  0
   19.3220   18.2226   23.9799 H   0  0  0  0  0  0  0  0  0  0  0  0
   19.7990   18.9545   25.9652 C   0  0  2  0  0  0  0  0  0  0  0  0
   20.6822   19.3440   26.4810 H   0  0  0  0  0  0  0  0  0  0  0  0
   19.3192   17.6989   26.7104 C   0  0  0  0  0  0  0  0  0  0  0  0
   20.1032   16.9316   26.7262 H   0  0  0  0  0  0  0  0  0  0  0  0
   19.0665   17.9378   27.7509 H   0  0  0  0  0  0  0  0  0  0  0  0
   18.4299   17.2691   26.2326 H   0  0  0  0  0  0  0  0  0  0  0  0
   18.7529   20.0340   26.0221 N   0  3  0  0  0  0  0  0  0  0  0  0
   17.8899   19.7418   25.5560 H   0  0  0  0  0  0  0  0  0  0  0  0
   19.0762   20.8914   25.5660 H   0  0  0  0  0  0  0  0  0  0  0  0
   18.5141   20.2724   26.9890 H   0  0  0  0  0  0  0  0  0  0  0  0
  1  2  1  0  0  0  0
  1  3  1  0  0  0  0
  1  4  1  0  0  0  0
  1  5  1  0  0  0  0
  5  6  1  0  0  0  0
  5  7  1  0  0  0  0
  5  8  1  0  0  0  0
  8  9  1  0  0  0  0
  8 10  1  0  0  0  0
  8 11  1  0  0  0  0
 11 12  1  0  0  0  0
 11 13  1  0  0  0  0
 11 14  1  0  0  0  0
 14 15  1  0  0  0  0
 14 16  1  0  0  0  0
 14 17  1  0  0  0  0
 17 18  1  0  0  0  0
 17 19  1  0  0  0  0
 17 20  1  0  0  0  0
 20 21  1  0  0  0  0
 20 22  1  0  0  0  0
 22 23  1  0  0  0  0
 22 24  1  0  0  0  0
 22 25  1  0  0  0  0
 20 26  1  0  0  0  0
 26 27  1  0  0  0  0
 26 28  1  0  0  0  0
 26 29  1  0  0  0  0
M  END
> <VM2 Rank>
39

> <Conf_Id>
1330

> <Probability>
0.85

> <Sum Probability>
84.08

> <Delta G>
1.488

> <G>
35.190

> <E>
-2.656

> <-TS>
37.846

> <U+W>
-26.801

> <U>
25.620

> <W>
-52.421

> <W(PB)>
-54.905

> <W(SA)>
2.484

> <Valence>
4.137

> <Coulomb>
20.478

> <VdW>
1.005

> <VdW6>
-9.764

> <VdW12>
10.769

> <Bond>
0.272

> <Angle>
1.510

> <Pdih>
2.354

> <Idih>
0.000

> <Tether>
0.000

$$$$
VeraChem MOL file


 29 28  0  0  0  0  0  0  0  0999 V2000     
   19.4023   20.5549   19.7640 C   0  0  0  0  0  0  0  0  0  0  0  0
   18.5451   20.0045   19.3549 H   0  0  0  0  0  0  0  0  0  0  0  0
   19.0180   21.4018   20.3476 H   0  0  0  0  0  0  0  0  0  0  0  0
   19.9766   20.9597   18.9206 H   0  0  0  0  0  0  0  0  0  0  0  0
   20.2863   19.6371   20.6346 C   0  0  0  0  0  0  0  0  0  0  0  0
   21.1517   20.2061   21.0022 H   0  0  0  0  0  0  0  0  0  0  0  0
   20.6833   18.8201   20.0159 H   0  0  0  0  0  0  0  0  0  0  0  0
   19.5009   19.0529   21.8294 C   0  0  0  0  0  0  0  0  0  0  0  0
   19.1017   19.8785   22.4330 H   0  0  0  0  0  0  0  0  0  0  0  0
   18.6386   18.4826   21.4574 H   0  0  0  0  0  0  0  0  0  0  0  0
   20.3875   18.1366   22.7062 C   0  0  0  0  0  0  0  0  0  0  0  0
   21.2306   18.7131   23.1099 H   0  0  0  0  0  0  0  0  0  0  0  0
   20.8310   17.3559   22.0728 H   0  0  0  0  0  0  0  0  0  0  0  0
   19.6146   17.4481   23.8604 C   0  0  0  0  0  0  0  0  0  0  0  0
   18.8435   16.7923   23.4332 H   0  0  0  0  0  0  0  0  0  0  0  0
   20.3008   16.7819   24.4003 H   0  0  0  0  0  0  0  0  0  0  0  0
   18.9404   18.4198   24.8660 C   0  0  0  0  0  0  0  0  0  0  0  0
   18.4828   17.8342   25.6744 H   0  0  0  0  0  0  0  0  0  0  0  0
   18.1100   18.9301   24.3616 H   0  0  0  0  0  0  0  0  0  0  0  0
   19.8835   19.4825   25.4765 C   0  0  2  0  0  0  0  0  0  0  0  0
   20.3423   20.0461   24.6587 H   0  0  0  0  0  0  0  0  0  0  0  0
   21.0030   18.8438   26.3174 C   0  0  0  0  0  0  0  0  0  0  0  0
   21.6501   18.2085   25.7015 H   0  0  0  0  0  0  0  0  0  0  0  0
   21.6381   19.6171   26.7668 H   0  0  0  0  0  0  0  0  0  0  0  0
   20.5894   18.2298   27.1271 H   0  0  0  0  0  0  0  0  0  0  0  0
   19.1175   20.4804   26.2994 N   0  3  0  0  0  0  0  0  0  0  0  0
   18.6556   20.0322   27.0954 H   0  0  0  0  0  0  0  0  0  0  0  0
   18.3934   20.9488   25.7471 H   0  0  0  0  0  0  0  0  0  0  0  0
   19.7335   21.2077   26.6740 H   0  0  0  0  0  0  0  0  0  0  0  0
  1  2  1  0  0  0  0
  1  3  1  0  0  0  0
  1  4  1  0  0  0  0
  1  5  1  0  0  0  0
  5  6  1  0  0  0  0
  5  7  1  0  0  0  0
  5  8  1  0  0  0  0
  8  9  1  0  0  0  0
  8 10  1  0  0  0  0
  8 11  1  0  0  0  0
 11 12  1  0  0  0  0
 11 13  1  0  0  0  0
 11 14  1  0  0  0  0
 14 15  1  0  0  0  0
 14 16  1  0  0  0  0
 14 17  1  0  0  0  0
 17 18  1  0  0  0  0
 17 19  1  0  0  0  0
 17 20  1  0  0  0  0
 20 21  1  0  0  0  0
 20 22  1  0  0  0  0
 22 23  1  0  0  0  0
 22 24  1  0  0  0  0
 22 25  1  0  0  0  0
 20 26  1  0  0  0  0
 26 27  1  0  0  0  0
 26 28  1  0  0  0  0
 26 29  1  0  0  0  0
M  END
> <VM2 Rank>
40

> <Conf_Id>
587

> <Probability>
0.83

> <Sum Probability>
84.91

> <Delta G>
1.504

> <G>
35.206

> <E>
-2.772

> <-TS>
37.978

> <U+W>
-26.917

> <U>
25.707

> <W>
-52.624

> <W(PB)>
-55.090

> <W(SA)>
2.466

> <Valence>
4.405

> <Coulomb>
20.449

> <VdW>
0.853

> <VdW6>
-10.191

> <VdW12>
11.043

> <Bond>
0.273

> <Angle>
1.693

> <Pdih>
2.439

> <Idih>
0.000

> <Tether>
0.000

$$$$
VeraChem MOL file


 29 28  0  0  0  0  0  0  0  0999 V2000     
   18.3553   18.9224   19.9415 C   0  0  0  0  0  0  0  0  0  0  0  0
   17.8889   17.9858   19.6094 H   0  0  0  0  0  0  0  0  0  0  0  0
   17.5701   19.5547   20.3760 H   0  0  0  0  0  0  0  0  0  0  0  0
   18.7542   19.4329   19.0552 H   0  0  0  0  0  0  0  0  0  0  0  0
   19.4717   18.6406   20.9691 C   0  0  0  0  0  0  0  0  0  0  0  0
   20.2266   17.9827   20.5166 H   0  0  0  0  0  0  0  0  0  0  0  0
   19.0424   18.0956   21.8204 H   0  0  0  0  0  0  0  0  0  0  0  0
   20.1419   19.9470   21.4554 C   0  0  0  0  0  0  0  0  0  0  0  0
   20.4970   20.5120   20.5826 H   0  0  0  0  0  0  0  0  0  0  0  0
   19.3957   20.5871   21.9445 H   0  0  0  0  0  0  0  0  0  0  0  0
   21.3445   19.7121   22.4058 C   0  0  0  0  0  0  0  0  0  0  0  0
   21.7773   20.6857   22.6737 H   0  0  0  0  0  0  0  0  0  0  0  0
   22.1311   19.1747   21.8585 H   0  0  0  0  0  0  0  0  0  0  0  0
   21.0192   18.9312   23.7052 C   0  0  0  0  0  0  0  0  0  0  0  0
   20.7127   17.9092   23.4499 H   0  0  0  0  0  0  0  0  0  0  0  0
   21.9436   18.8335   24.2912 H   0  0  0  0  0  0  0  0  0  0  0  0
   19.9376   19.6155   24.5800 C   0  0  0  0  0  0  0  0  0  0  0  0
   18.9728   19.6120   24.0570 H   0  0  0  0  0  0  0  0  0  0  0  0
   20.2155   20.6687   24.7186 H   0  0  0  0  0  0  0  0  0  0  0  0
   19.7651   18.9656   25.9714 C   0  0  2  0  0  0  0  0  0  0  0  0
   20.7431   18.9392   26.4618 H   0  0  0  0  0  0  0  0  0  0  0  0
   19.2288   17.5260   25.8747 C   0  0  0  0  0  0  0  0  0  0  0  0
   19.9389   16.8698   25.3584 H   0  0  0  0  0  0  0  0  0  0  0  0
   19.0675   17.1059   26.8751 H   0  0  0  0  0  0  0  0  0  0  0  0
   18.2746   17.4935   25.3342 H   0  0  0  0  0  0  0  0  0  0  0  0
   18.8719   19.7956   26.8509 N   0  3  0  0  0  0  0  0  0  0  0  0
   19.2332   20.7471   26.9643 H   0  0  0  0  0  0  0  0  0  0  0  0
   18.7865   19.3889   27.7869 H   0  0  0  0  0  0  0  0  0  0  0  0
   17.9278   19.8689   26.4623 H   0  0  0  0  0  0  0  0  0  0  0  0
  1  2  1  0  0  0  0
  1  3  1  0  0  0  0
  1  4  1  0  0  0  0
  1  5  1  0  0  0  0
  5  6  1  0  0  0  0
  5  7  1  0  0  0  0
  5  8  1  0  0  0  0
  8  9  1  0  0  0  0
  8 10  1  0  0  0  0
  8 11  1  0  0  0  0
 11 12  1  0  0  0  0
 11 13  1  0  0  0  0
 11 14  1  0  0  0  0
 14 15  1  0  0  0  0
 14 16  1  0  0  0  0
 14 17  1  0  0  0  0
 17 18  1  0  0  0  0
 17 19  1  0  0  0  0
 17 20  1  0  0  0  0
 20 21  1  0  0  0  0
 20 22  1  0  0  0  0
 22 23  1  0  0  0  0
 22 24  1  0  0  0  0
 22 25  1  0  0  0  0
 20 26  1  0  0  0  0
 26 27  1  0  0  0  0
 26 28  1  0  0  0  0
 26 29  1  0  0  0  0
M  END
> <VM2 Rank>
41

> <Conf_Id>
892

> <Probability>
0.67

> <Sum Probability>
85.58

> <Delta G>
1.636

> <G>
35.338

> <E>
-2.533

> <-TS>
37.871

> <U+W>
-26.678

> <U>
25.699

> <W>
-52.377

> <W(PB)>
-54.832

> <W(SA)>
2.455

> <Valence>
4.645

> <Coulomb>
19.935

> <VdW>
1.119

> <VdW6>
-9.959

> <VdW12>
11.077

> <Bond>
0.284

> <Angle>
1.754

> <Pdih>
2.608

> <Idih>
0.000

> <Tether>
0.000

$$$$
VeraChem MOL file


 29 28  0  0  0  0  0  0  0  0999 V2000     
   19.9965   19.2113   18.9974 C   0  0  0  0  0  0  0  0  0  0  0  0
   20.2436   20.2394   18.7021 H   0  0  0  0  0  0  0  0  0  0  0  0
   20.9116   18.6081   18.9346 H   0  0  0  0  0  0  0  0  0  0  0  0
   19.2801   18.8141   18.2666 H   0  0  0  0  0  0  0  0  0  0  0  0
   19.4021   19.1700   20.4211 C   0  0  0  0  0  0  0  0  0  0  0  0
   19.1303   18.1341   20.6625 H   0  0  0  0  0  0  0  0  0  0  0  0
   18.4738   19.7577   20.4452 H   0  0  0  0  0  0  0  0  0  0  0  0
   20.3970   19.7213   21.4697 C   0  0  0  0  0  0  0  0  0  0  0  0
   21.3027   19.0993   21.4846 H   0  0  0  0  0  0  0  0  0  0  0  0
   20.7184   20.7256   21.1608 H   0  0  0  0  0  0  0  0  0  0  0  0
   19.8074   19.8147   22.8985 C   0  0  0  0  0  0  0  0  0  0  0  0
   18.9026   20.4377   22.8826 H   0  0  0  0  0  0  0  0  0  0  0  0
   20.5345   20.3415   23.5303 H   0  0  0  0  0  0  0  0  0  0  0  0
   19.4824   18.4349   23.5251 C   0  0  0  0  0  0  0  0  0  0  0  0
   18.7400   17.9157   22.9057 H   0  0  0  0  0  0  0  0  0  0  0  0
   20.3790   17.8013   23.5170 H   0  0  0  0  0  0  0  0  0  0  0  0
   18.9142   18.5360   24.9645 C   0  0  0  0  0  0  0  0  0  0  0  0
   18.6828   17.5258   25.3274 H   0  0  0  0  0  0  0  0  0  0  0  0
   17.9560   19.0705   24.9216 H   0  0  0  0  0  0  0  0  0  0  0  0
   19.8317   19.2457   25.9882 C   0  0  2  0  0  0  0  0  0  0  0  0
   20.0438   20.2544   25.6221 H   0  0  0  0  0  0  0  0  0  0  0  0
   21.1676   18.5058   26.1790 C   0  0  0  0  0  0  0  0  0  0  0  0
   21.0045   17.4670   26.4920 H   0  0  0  0  0  0  0  0  0  0  0  0
   21.7536   18.4981   25.2526 H   0  0  0  0  0  0  0  0  0  0  0  0
   21.7776   19.0005   26.9449 H   0  0  0  0  0  0  0  0  0  0  0  0
   19.1369   19.4162   27.3105 N   0  3  0  0  0  0  0  0  0  0  0  0
   18.9042   18.5119   27.7298 H   0  0  0  0  0  0  0  0  0  0  0  0
   18.2647   19.9439   27.2129 H   0  0  0  0  0  0  0  0  0  0  0  0
   19.7251   19.9209   27.9798 H   0  0  0  0  0  0  0  0  0  0  0  0
  1  2  1  0  0  0  0
  1  3  1  0  0  0  0
  1  4  1  0  0  0  0
  1  5  1  0  0  0  0
  5  6  1  0  0  0  0
  5  7  1  0  0  0  0
  5  8  1  0  0  0  0
  8  9  1  0  0  0  0
  8 10  1  0  0  0  0
  8 11  1  0  0  0  0
 11 12  1  0  0  0  0
 11 13  1  0  0  0  0
 11 14  1  0  0  0  0
 14 15  1  0  0  0  0
 14 16  1  0  0  0  0
 14 17  1  0  0  0  0
 17 18  1  0  0  0  0
 17 19  1  0  0  0  0
 17 20  1  0  0  0  0
 20 21  1  0  0  0  0
 20 22  1  0  0  0  0
 22 23  1  0  0  0  0
 22 24  1  0  0  0  0
 22 25  1  0  0  0  0
 20 26  1  0  0  0  0
 26 27  1  0  0  0  0
 26 28  1  0  0  0  0
 26 29  1  0  0  0  0
M  END
> <VM2 Rank>
42

> <Conf_Id>
1346

> <Probability>
0.67

> <Sum Probability>
86.24

> <Delta G>
1.636

> <G>
35.339

> <E>
-2.401

> <-TS>
37.739

> <U+W>
-26.545

> <U>
25.622

> <W>
-52.167

> <W(PB)>
-54.630

> <W(SA)>
2.462

> <Valence>
4.553

> <Coulomb>
19.890

> <VdW>
1.179

> <VdW6>
-9.673

> <VdW12>
10.852

> <Bond>
0.276

> <Angle>
1.749

> <Pdih>
2.528

> <Idih>
0.000

> <Tether>
0.000

$$$$
VeraChem MOL file


 29 28  0  0  0  0  0  0  0  0999 V2000     
   19.2431   20.1834   19.6291 C   0  0  0  0  0  0  0  0  0  0  0  0
   18.3238   20.5850   20.0748 H   0  0  0  0  0  0  0  0  0  0  0  0
   20.0784   20.8329   19.9190 H   0  0  0  0  0  0  0  0  0  0  0  0
   19.1414   20.2436   18.5378 H   0  0  0  0  0  0  0  0  0  0  0  0
   19.4818   18.7216   20.0703 C   0  0  0  0  0  0  0  0  0  0  0  0
   20.4198   18.3521   19.6329 H   0  0  0  0  0  0  0  0  0  0  0  0
   18.6812   18.0915   19.6584 H   0  0  0  0  0  0  0  0  0  0  0  0
   19.5145   18.5427   21.6072 C   0  0  0  0  0  0  0  0  0  0  0  0
   18.5612   18.8878   22.0288 H   0  0  0  0  0  0  0  0  0  0  0  0
   19.5846   17.4697   21.8326 H   0  0  0  0  0  0  0  0  0  0  0  0
   20.6955   19.2815   22.2858 C   0  0  0  0  0  0  0  0  0  0  0  0
   20.5764   20.3670   22.1712 H   0  0  0  0  0  0  0  0  0  0  0  0
   21.6285   19.0157   21.7703 H   0  0  0  0  0  0  0  0  0  0  0  0
   20.8495   18.9419   23.7886 C   0  0  0  0  0  0  0  0  0  0  0  0
   21.0094   17.8610   23.8970 H   0  0  0  0  0  0  0  0  0  0  0  0
   21.7587   19.4305   24.1655 H   0  0  0  0  0  0  0  0  0  0  0  0
   19.6398   19.3933   24.6469 C   0  0  0  0  0  0  0  0  0  0  0  0
   18.7476   18.8156   24.3738 H   0  0  0  0  0  0  0  0  0  0  0  0
   19.4174   20.4429   24.4136 H   0  0  0  0  0  0  0  0  0  0  0  0
   19.8811   19.2700   26.1685 C   0  0  2  0  0  0  0  0  0  0  0  0
   20.7930   19.8216   26.4173 H   0  0  0  0  0  0  0  0  0  0  0  0
   20.0613   17.8063   26.6092 C   0  0  0  0  0  0  0  0  0  0  0  0
   20.9554   17.3613   26.1573 H   0  0  0  0  0  0  0  0  0  0  0  0
   20.1822   17.7427   27.6976 H   0  0  0  0  0  0  0  0  0  0  0  0
   19.1935   17.1972   26.3270 H   0  0  0  0  0  0  0  0  0  0  0  0
   18.7693   19.9152   26.9483 N   0  3  0  0  0  0  0  0  0  0  0  0
   18.6598   20.9032   26.7017 H   0  0  0  0  0  0  0  0  0  0  0  0
   18.9449   19.8707   27.9562 H   0  0  0  0  0  0  0  0  0  0  0  0
   17.8728   19.4531   26.7737 H   0  0  0  0  0  0  0  0  0  0  0  0
  1  2  1  0  0  0  0
  1  3  1  0  0  0  0
  1  4  1  0  0  0  0
  1  5  1  0  0  0  0
  5  6  1  0  0  0  0
  5  7  1  0  0  0  0
  5  8  1  0  0  0  0
  8  9  1  0  0  0  0
  8 10  1  0  0  0  0
  8 11  1  0  0  0  0
 11 12  1  0  0  0  0
 11 13  1  0  0  0  0
 11 14  1  0  0  0  0
 14 15  1  0  0  0  0
 14 16  1  0  0  0  0
 14 17  1  0  0  0  0
 17 18  1  0  0  0  0
 17 19  1  0  0  0  0
 17 20  1  0  0  0  0
 20 21  1  0  0  0  0
 20 22  1  0  0  0  0
 22 23  1  0  0  0  0
 22 24  1  0  0  0  0
 22 25  1  0  0  0  0
 20 26  1  0  0  0  0
 26 27  1  0  0  0  0
 26 28  1  0  0  0  0
 26 29  1  0  0  0  0
M  END
> <VM2 Rank>
43

> <Conf_Id>
678

> <Probability>
0.65

> <Sum Probability>
86.90

> <Delta G>
1.646

> <G>
35.348

> <E>
-2.317

> <-TS>
37.666

> <U+W>
-26.462

> <U>
25.687

> <W>
-52.149

> <W(PB)>
-54.640

> <W(SA)>
2.491

> <Valence>
4.682

> <Coulomb>
19.653

> <VdW>
1.352

> <VdW6>
-9.478

> <VdW12>
10.830

> <Bond>
0.274

> <Angle>
1.550

> <Pdih>
2.858

> <Idih>
0.000

> <Tether>
0.000

$$$$
VeraChem MOL file


 29 28  0  0  0  0  0  0  0  0999 V2000     
   21.0027   18.9272   19.7854 C   0  0  0  0  0  0  0  0  0  0  0  0
   21.7879   19.6332   20.0860 H   0  0  0  0  0  0  0  0  0  0  0  0
   21.4908   18.0047   19.4452 H   0  0  0  0  0  0  0  0  0  0  0  0
   20.4640   19.3580   18.9314 H   0  0  0  0  0  0  0  0  0  0  0  0
   20.0421   18.6350   20.9575 C   0  0  0  0  0  0  0  0  0  0  0  0
   20.6091   18.1697   21.7747 H   0  0  0  0  0  0  0  0  0  0  0  0
   19.2865   17.9045   20.6366 H   0  0  0  0  0  0  0  0  0  0  0  0
   19.3448   19.9220   21.4575 C   0  0  0  0  0  0  0  0  0  0  0  0
   20.0972   20.6363   21.8168 H   0  0  0  0  0  0  0  0  0  0  0  0
   18.8480   20.4111   20.6083 H   0  0  0  0  0  0  0  0  0  0  0  0
   18.2849   19.6667   22.5603 C   0  0  0  0  0  0  0  0  0  0  0  0
   17.4747   19.0555   22.1392 H   0  0  0  0  0  0  0  0  0  0  0  0
   17.8247   20.6257   22.8355 H   0  0  0  0  0  0  0  0  0  0  0  0
   18.8132   18.9755   23.8439 C   0  0  0  0  0  0  0  0  0  0  0  0
   17.9677   18.8478   24.5322 H   0  0  0  0  0  0  0  0  0  0  0  0
   19.1590   17.9637   23.5981 H   0  0  0  0  0  0  0  0  0  0  0  0
   19.9424   19.7727   24.5517 C   0  0  0  0  0  0  0  0  0  0  0  0
   19.6085   20.8061   24.7123 H   0  0  0  0  0  0  0  0  0  0  0  0
   20.8183   19.8350   23.8939 H   0  0  0  0  0  0  0  0  0  0  0  0
   20.3980   19.1872   25.9089 C   0  0  2  0  0  0  0  0  0  0  0  0
   21.1769   19.8475   26.3028 H   0  0  0  0  0  0  0  0  0  0  0  0
   21.0108   17.7842   25.7554 C   0  0  0  0  0  0  0  0  0  0  0  0
   20.2600   17.0447   25.4529 H   0  0  0  0  0  0  0  0  0  0  0  0
   21.8115   17.7885   25.0054 H   0  0  0  0  0  0  0  0  0  0  0  0
   21.4464   17.4501   26.7051 H   0  0  0  0  0  0  0  0  0  0  0  0
   19.2971   19.1854   26.9335 N   0  3  0  0  0  0  0  0  0  0  0  0
   19.6325   18.8538   27.8424 H   0  0  0  0  0  0  0  0  0  0  0  0
   18.5265   18.5756   26.6493 H   0  0  0  0  0  0  0  0  0  0  0  0
   18.9127   20.1243   27.0727 H   0  0  0  0  0  0  0  0  0  0  0  0
  1  2  1  0  0  0  0
  1  3  1  0  0  0  0
  1  4  1  0  0  0  0
  1  5  1  0  0  0  0
  5  6  1  0  0  0  0
  5  7  1  0  0  0  0
  5  8  1  0  0  0  0
  8  9  1  0  0  0  0
  8 10  1  0  0  0  0
  8 11  1  0  0  0  0
 11 12  1  0  0  0  0
 11 13  1  0  0  0  0
 11 14  1  0  0  0  0
 14 15  1  0  0  0  0
 14 16  1  0  0  0  0
 14 17  1  0  0  0  0
 17 18  1  0  0  0  0
 17 19  1  0  0  0  0
 17 20  1  0  0  0  0
 20 21  1  0  0  0  0
 20 22  1  0  0  0  0
 22 23  1  0  0  0  0
 22 24  1  0  0  0  0
 22 25  1  0  0  0  0
 20 26  1  0  0  0  0
 26 27  1  0  0  0  0
 26 28  1  0  0  0  0
 26 29  1  0  0  0  0
M  END
> <VM2 Rank>
44

> <Conf_Id>
659

> <Probability>
0.61

> <Sum Probability>
87.51

> <Delta G>
1.688

> <G>
35.391

> <E>
-2.611

> <-TS>
38.002

> <U+W>
-26.756

> <U>
25.698

> <W>
-52.454

> <W(PB)>
-54.881

> <W(SA)>
2.427

> <Valence>
4.638

> <Coulomb>
19.916

> <VdW>
1.144

> <VdW6>
-10.434

> <VdW12>
11.578

> <Bond>
0.315

> <Angle>
1.852

> <Pdih>
2.471

> <Idih>
0.000

> <Tether>
0.000

$$$$
VeraChem MOL file


 29 28  0  0  0  0  0  0  0  0999 V2000     
   20.4024   20.7305   20.6112 C   0  0  0  0  0  0  0  0  0  0  0  0
   19.5656   21.2554   21.0883 H   0  0  0  0  0  0  0  0  0  0  0  0
   21.2985   20.8788   21.2277 H   0  0  0  0  0  0  0  0  0  0  0  0
   20.5806   21.2086   19.6393 H   0  0  0  0  0  0  0  0  0  0  0  0
   20.0978   19.2266   20.4261 C   0  0  0  0  0  0  0  0  0  0  0  0
   20.9081   18.7705   19.8404 H   0  0  0  0  0  0  0  0  0  0  0  0
   19.1820   19.1050   19.8310 H   0  0  0  0  0  0  0  0  0  0  0  0
   19.9596   18.4606   21.7635 C   0  0  0  0  0  0  0  0  0  0  0  0
   19.8551   17.3891   21.5443 H   0  0  0  0  0  0  0  0  0  0  0  0
   20.8892   18.5717   22.3371 H   0  0  0  0  0  0  0  0  0  0  0  0
   18.7494   18.9233   22.6131 C   0  0  0  0  0  0  0  0  0  0  0  0
   17.8454   18.9013   21.9891 H   0  0  0  0  0  0  0  0  0  0  0  0
   18.8819   19.9687   22.9186 H   0  0  0  0  0  0  0  0  0  0  0  0
   18.5028   18.0410   23.8640 C   0  0  0  0  0  0  0  0  0  0  0  0
   17.6090   18.4071   24.3867 H   0  0  0  0  0  0  0  0  0  0  0  0
   18.2582   17.0202   23.5396 H   0  0  0  0  0  0  0  0  0  0  0  0
   19.6919   17.9760   24.8595 C   0  0  0  0  0  0  0  0  0  0  0  0
   20.5241   17.4350   24.3911 H   0  0  0  0  0  0  0  0  0  0  0  0
   19.3961   17.3755   25.7299 H   0  0  0  0  0  0  0  0  0  0  0  0
   20.1908   19.3577   25.3372 C   0  0  2  0  0  0  0  0  0  0  0  0
   20.4823   19.9406   24.4583 H   0  0  0  0  0  0  0  0  0  0  0  0
   21.4249   19.1997   26.2389 C   0  0  0  0  0  0  0  0  0  0  0  0
   21.1864   18.6228   27.1411 H   0  0  0  0  0  0  0  0  0  0  0  0
   22.2328   18.6827   25.7062 H   0  0  0  0  0  0  0  0  0  0  0  0
   21.8059   20.1800   26.5507 H   0  0  0  0  0  0  0  0  0  0  0  0
   19.1163   20.1405   26.0405 N   0  3  0  0  0  0  0  0  0  0  0  0
   19.4504   21.0664   26.3227 H   0  0  0  0  0  0  0  0  0  0  0  0
   18.7970   19.6585   26.8850 H   0  0  0  0  0  0  0  0  0  0  0  0
   18.3014   20.2769   25.4363 H   0  0  0  0  0  0  0  0  0  0  0  0
  1  2  1  0  0  0  0
  1  3  1  0  0  0  0
  1  4  1  0  0  0  0
  1  5  1  0  0  0  0
  5  6  1  0  0  0  0
  5  7  1  0  0  0  0
  5  8  1  0  0  0  0
  8  9  1  0  0  0  0
  8 10  1  0  0  0  0
  8 11  1  0  0  0  0
 11 12  1  0  0  0  0
 11 13  1  0  0  0  0
 11 14  1  0  0  0  0
 14 15  1  0  0  0  0
 14 16  1  0  0  0  0
 14 17  1  0  0  0  0
 17 18  1  0  0  0  0
 17 19  1  0  0  0  0
 17 20  1  0  0  0  0
 20 21  1  0  0  0  0
 20 22  1  0  0  0  0
 22 23  1  0  0  0  0
 22 24  1  0  0  0  0
 22 25  1  0  0  0  0
 20 26  1  0  0  0  0
 26 27  1  0  0  0  0
 26 28  1  0  0  0  0
 26 29  1  0  0  0  0
M  END
> <VM2 Rank>
45

> <Conf_Id>
185

> <Probability>
0.60

> <Sum Probability>
88.10

> <Delta G>
1.703

> <G>
35.405

> <E>
-2.580

> <-TS>
37.985

> <U+W>
-26.725

> <U>
25.698

> <W>
-52.423

> <W(PB)>
-54.855

> <W(SA)>
2.432

> <Valence>
4.391

> <Coulomb>
20.476

> <VdW>
0.832

> <VdW6>
-10.722

> <VdW12>
11.554

> <Bond>
0.298

> <Angle>
1.586

> <Pdih>
2.506

> <Idih>
0.000

> <Tether>
0.000

$$$$
VeraChem MOL file


 29 28  0  0  0  0  0  0  0  0999 V2000     
   19.6755   20.5817   20.1554 C   0  0  0  0  0  0  0  0  0  0  0  0
   18.8505   20.3280   19.4772 H   0  0  0  0  0  0  0  0  0  0  0  0
   19.2483   20.9925   21.0787 H   0  0  0  0  0  0  0  0  0  0  0  0
   20.2672   21.3763   19.6828 H   0  0  0  0  0  0  0  0  0  0  0  0
   20.5586   19.3463   20.4416 C   0  0  0  0  0  0  0  0  0  0  0  0
   21.3636   19.6192   21.1370 H   0  0  0  0  0  0  0  0  0  0  0  0
   21.0566   19.0441   19.5098 H   0  0  0  0  0  0  0  0  0  0  0  0
   19.7637   18.1345   20.9911 C   0  0  0  0  0  0  0  0  0  0  0  0
   19.0479   17.8035   20.2261 H   0  0  0  0  0  0  0  0  0  0  0  0
   20.4564   17.2943   21.1378 H   0  0  0  0  0  0  0  0  0  0  0  0
   18.9949   18.3904   22.3131 C   0  0  0  0  0  0  0  0  0  0  0  0
   18.4636   17.4686   22.5873 H   0  0  0  0  0  0  0  0  0  0  0  0
   18.2184   19.1500   22.1527 H   0  0  0  0  0  0  0  0  0  0  0  0
   19.9087   18.8134   23.4881 C   0  0  0  0  0  0  0  0  0  0  0  0
   20.7112   18.0729   23.6007 H   0  0  0  0  0  0  0  0  0  0  0  0
   20.3869   19.7754   23.2610 H   0  0  0  0  0  0  0  0  0  0  0  0
   19.1151   18.9432   24.8113 C   0  0  0  0  0  0  0  0  0  0  0  0
   18.6922   17.9680   25.0871 H   0  0  0  0  0  0  0  0  0  0  0  0
   18.2634   19.6155   24.6428 H   0  0  0  0  0  0  0  0  0  0  0  0
   19.9512   19.4985   25.9868 C   0  0  2  0  0  0  0  0  0  0  0  0
   20.3930   20.4498   25.6746 H   0  0  0  0  0  0  0  0  0  0  0  0
   21.0878   18.5434   26.3930 C   0  0  0  0  0  0  0  0  0  0  0  0
   20.6982   17.5517   26.6547 H   0  0  0  0  0  0  0  0  0  0  0  0
   21.8170   18.4240   25.5835 H   0  0  0  0  0  0  0  0  0  0  0  0
   21.6301   18.9359   27.2620 H   0  0  0  0  0  0  0  0  0  0  0  0
   19.0805   19.8047   27.1736 N   0  3  0  0  0  0  0  0  0  0  0  0
   19.6238   20.2100   27.9413 H   0  0  0  0  0  0  0  0  0  0  0  0
   18.6274   18.9600   27.5328 H   0  0  0  0  0  0  0  0  0  0  0  0
   18.3419   20.4734   26.9370 H   0  0  0  0  0  0  0  0  0  0  0  0
  1  2  1  0  0  0  0
  1  3  1  0  0  0  0
  1  4  1  0  0  0  0
  1  5  1  0  0  0  0
  5  6  1  0  0  0  0
  5  7  1  0  0  0  0
  5  8  1  0  0  0  0
  8  9  1  0  0  0  0
  8 10  1  0  0  0  0
  8 11  1  0  0  0  0
 11 12  1  0  0  0  0
 11 13  1  0  0  0  0
 11 14  1  0  0  0  0
 14 15  1  0  0  0  0
 14 16  1  0  0  0  0
 14 17  1  0  0  0  0
 17 18  1  0  0  0  0
 17 19  1  0  0  0  0
 17 20  1  0  0  0  0
 20 21  1  0  0  0  0
 20 22  1  0  0  0  0
 22 23  1  0  0  0  0
 22 24  1  0  0  0  0
 22 25  1  0  0  0  0
 20 26  1  0  0  0  0
 26 27  1  0  0  0  0
 26 28  1  0  0  0  0
 26 29  1  0  0  0  0
M  END
> <VM2 Rank>
46

> <Conf_Id>
333

> <Probability>
0.59

> <Sum Probability>
88.70

> <Delta G>
1.706

> <G>
35.408

> <E>
-2.427

> <-TS>
37.835

> <U+W>
-26.571

> <U>
25.529

> <W>
-52.100

> <W(PB)>
-54.578

> <W(SA)>
2.478

> <Valence>
4.665

> <Coulomb>
19.602

> <VdW>
1.262

> <VdW6>
-9.718

> <VdW12>
10.980

> <Bond>
0.278

> <Angle>
1.798

> <Pdih>
2.589

> <Idih>
0.000

> <Tether>
0.000

$$$$
VeraChem MOL file


 29 28  0  0  0  0  0  0  0  0999 V2000     
   19.9251   17.9845   20.1817 C   0  0  0  0  0  0  0  0  0  0  0  0
   19.4076   17.1432   19.7030 H   0  0  0  0  0  0  0  0  0  0  0  0
   20.6331   18.4020   19.4541 H   0  0  0  0  0  0  0  0  0  0  0  0
   20.4973   17.5826   21.0272 H   0  0  0  0  0  0  0  0  0  0  0  0
   18.9089   19.0532   20.6435 C   0  0  0  0  0  0  0  0  0  0  0  0
   18.2252   18.6187   21.3849 H   0  0  0  0  0  0  0  0  0  0  0  0
   18.2814   19.3377   19.7874 H   0  0  0  0  0  0  0  0  0  0  0  0
   19.5748   20.3319   21.2129 C   0  0  0  0  0  0  0  0  0  0  0  0
   20.1516   20.8170   20.4135 H   0  0  0  0  0  0  0  0  0  0  0  0
   18.7879   21.0463   21.4913 H   0  0  0  0  0  0  0  0  0  0  0  0
   20.5068   20.1084   22.4318 C   0  0  0  0  0  0  0  0  0  0  0  0
   20.9259   21.0799   22.7276 H   0  0  0  0  0  0  0  0  0  0  0  0
   21.3633   19.4870   22.1387 H   0  0  0  0  0  0  0  0  0  0  0  0
   19.7922   19.4751   23.6494 C   0  0  0  0  0  0  0  0  0  0  0  0
   18.9111   20.0785   23.9038 H   0  0  0  0  0  0  0  0  0  0  0  0
   19.4315   18.4752   23.3791 H   0  0  0  0  0  0  0  0  0  0  0  0
   20.7375   19.3727   24.8747 C   0  0  0  0  0  0  0  0  0  0  0  0
   21.1278   20.3706   25.1138 H   0  0  0  0  0  0  0  0  0  0  0  0
   21.6108   18.7625   24.6087 H   0  0  0  0  0  0  0  0  0  0  0  0
   20.0895   18.7838   26.1500 C   0  0  2  0  0  0  0  0  0  0  0  0
   20.8495   18.7993   26.9374 H   0  0  0  0  0  0  0  0  0  0  0  0
   19.6517   17.3217   25.9552 C   0  0  0  0  0  0  0  0  0  0  0  0
   18.8183   17.2382   25.2477 H   0  0  0  0  0  0  0  0  0  0  0  0
   20.4836   16.7121   25.5810 H   0  0  0  0  0  0  0  0  0  0  0  0
   19.3255   16.8891   26.9090 H   0  0  0  0  0  0  0  0  0  0  0  0
   18.9494   19.6247   26.6547 N   0  3  0  0  0  0  0  0  0  0  0  0
   18.5720   19.2554   27.5322 H   0  0  0  0  0  0  0  0  0  0  0  0
   18.1824   19.6540   25.9784 H   0  0  0  0  0  0  0  0  0  0  0  0
   19.2438   20.5897   26.8300 H   0  0  0  0  0  0  0  0  0  0  0  0
  1  2  1  0  0  0  0
  1  3  1  0  0  0  0
  1  4  1  0  0  0  0
  1  5  1  0  0  0  0
  5  6  1  0  0  0  0
  5  7  1  0  0  0  0
  5  8  1  0  0  0  0
  8  9  1  0  0  0  0
  8 10  1  0  0  0  0
  8 11  1  0  0  0  0
 11 12  1  0  0  0  0
 11 13  1  0  0  0  0
 11 14  1  0  0  0  0
 14 15  1  0  0  0  0
 14 16  1  0  0  0  0
 14 17  1  0  0  0  0
 17 18  1  0  0  0  0
 17 19  1  0  0  0  0
 17 20  1  0  0  0  0
 20 21  1  0  0  0  0
 20 22  1  0  0  0  0
 22 23  1  0  0  0  0
 22 24  1  0  0  0  0
 22 25  1  0  0  0  0
 20 26  1  0  0  0  0
 26 27  1  0  0  0  0
 26 28  1  0  0  0  0
 26 29  1  0  0  0  0
M  END
> <VM2 Rank>
47

> <Conf_Id>
1229

> <Probability>
0.58

> <Sum Probability>
89.28

> <Delta G>
1.714

> <G>
35.416

> <E>
-2.556

> <-TS>
37.972

> <U+W>
-26.700

> <U>
25.727

> <W>
-52.428

> <W(PB)>
-54.889

> <W(SA)>
2.461

> <Valence>
4.631

> <Coulomb>
19.868

> <VdW>
1.228

> <VdW6>
-10.252

> <VdW12>
11.480

> <Bond>
0.304

> <Angle>
1.851

> <Pdih>
2.476

> <Idih>
0.000

> <Tether>
0.000

$$$$
VeraChem MOL file


 29 28  0  0  0  0  0  0  0  0999 V2000     
   19.4422   17.9372   20.1469 C   0  0  0  0  0  0  0  0  0  0  0  0
   19.8895   17.0751   19.6355 H   0  0  0  0  0  0  0  0  0  0  0  0
   18.9706   17.5679   21.0661 H   0  0  0  0  0  0  0  0  0  0  0  0
   18.6572   18.3440   19.4964 H   0  0  0  0  0  0  0  0  0  0  0  0
   20.5180   19.0037   20.4522 C   0  0  0  0  0  0  0  0  0  0  0  0
   21.0420   19.2544   19.5193 H   0  0  0  0  0  0  0  0  0  0  0  0
   21.2805   18.5806   21.1197 H   0  0  0  0  0  0  0  0  0  0  0  0
   19.9391   20.3078   21.0578 C   0  0  0  0  0  0  0  0  0  0  0  0
   20.7615   21.0182   21.2194 H   0  0  0  0  0  0  0  0  0  0  0  0
   19.2767   20.7783   20.3182 H   0  0  0  0  0  0  0  0  0  0  0  0
   19.1562   20.1332   22.3849 C   0  0  0  0  0  0  0  0  0  0  0  0
   18.2646   19.5152   22.2150 H   0  0  0  0  0  0  0  0  0  0  0  0
   18.7851   21.1188   22.6976 H   0  0  0  0  0  0  0  0  0  0  0  0
   20.0039   19.5261   23.5285 C   0  0  0  0  0  0  0  0  0  0  0  0
   20.3227   18.5153   23.2465 H   0  0  0  0  0  0  0  0  0  0  0  0
   20.9146   20.1249   23.6674 H   0  0  0  0  0  0  0  0  0  0  0  0
   19.2136   19.4701   24.8589 C   0  0  0  0  0  0  0  0  0  0  0  0
   18.3339   18.8236   24.7397 H   0  0  0  0  0  0  0  0  0  0  0  0
   18.8330   20.4755   25.0823 H   0  0  0  0  0  0  0  0  0  0  0  0
   20.0543   18.9877   26.0631 C   0  0  2  0  0  0  0  0  0  0  0  0
   20.9454   19.6189   26.1344 H   0  0  0  0  0  0  0  0  0  0  0  0
   20.5048   17.5240   25.9083 C   0  0  0  0  0  0  0  0  0  0  0  0
   21.0501   17.1914   26.8002 H   0  0  0  0  0  0  0  0  0  0  0  0
   19.6452   16.8570   25.7670 H   0  0  0  0  0  0  0  0  0  0  0  0
   21.1792   17.4021   25.0529 H   0  0  0  0  0  0  0  0  0  0  0  0
   19.3039   19.1663   27.3535 N   0  3  0  0  0  0  0  0  0  0  0  0
   19.8715   18.8853   28.1582 H   0  0  0  0  0  0  0  0  0  0  0  0
   18.4496   18.6027   27.3705 H   0  0  0  0  0  0  0  0  0  0  0  0
   19.0314   20.1428   27.4993 H   0  0  0  0  0  0  0  0  0  0  0  0
  1  2  1  0  0  0  0
  1  3  1  0  0  0  0
  1  4  1  0  0  0  0
  1  5  1  0  0  0  0
  5  6  1  0  0  0  0
  5  7  1  0  0  0  0
  5  8  1  0  0  0  0
  8  9  1  0  0  0  0
  8 10  1  0  0  0  0
  8 11  1  0  0  0  0
 11 12  1  0  0  0  0
 11 13  1  0  0  0  0
 11 14  1  0  0  0  0
 14 15  1  0  0  0  0
 14 16  1  0  0  0  0
 14 17  1  0  0  0  0
 17 18  1  0  0  0  0
 17 19  1  0  0  0  0
 17 20  1  0  0  0  0
 20 21  1  0  0  0  0
 20 22  1  0  0  0  0
 22 23  1  0  0  0  0
 22 24  1  0  0  0  0
 22 25  1  0  0  0  0
 20 26  1  0  0  0  0
 26 27  1  0  0  0  0
 26 28  1  0  0  0  0
 26 29  1  0  0  0  0
M  END
> <VM2 Rank>
48

> <Conf_Id>
588

> <Probability>
0.57

> <Sum Probability>
89.85

> <Delta G>
1.732

> <G>
35.435

> <E>
-2.402

> <-TS>
37.836

> <U+W>
-26.546

> <U>
25.494

> <W>
-52.040

> <W(PB)>
-54.512

> <W(SA)>
2.472

> <Valence>
4.662

> <Coulomb>
19.569

> <VdW>
1.262

> <VdW6>
-9.758

> <VdW12>
11.020

> <Bond>
0.281

> <Angle>
1.806

> <Pdih>
2.576

> <Idih>
0.000

> <Tether>
0.000

$$$$
VeraChem MOL file


 29 28  0  0  0  0  0  0  0  0999 V2000     
   19.7363   20.2428   19.5956 C   0  0  0  0  0  0  0  0  0  0  0  0
   18.7760   20.5998   19.9880 H   0  0  0  0  0  0  0  0  0  0  0  0
   20.5222   20.9335   19.9276 H   0  0  0  0  0  0  0  0  0  0  0  0
   19.6849   20.2938   18.5003 H   0  0  0  0  0  0  0  0  0  0  0  0
   20.0352   18.7983   20.0564 C   0  0  0  0  0  0  0  0  0  0  0  0
   20.9427   18.4442   19.5477 H   0  0  0  0  0  0  0  0  0  0  0  0
   19.2225   18.1321   19.7347 H   0  0  0  0  0  0  0  0  0  0  0  0
   20.2411   18.6728   21.5851 C   0  0  0  0  0  0  0  0  0  0  0  0
   20.5468   17.6424   21.8130 H   0  0  0  0  0  0  0  0  0  0  0  0
   21.0748   19.3195   21.8884 H   0  0  0  0  0  0  0  0  0  0  0  0
   18.9724   19.0185   22.4051 C   0  0  0  0  0  0  0  0  0  0  0  0
   18.1209   18.4536   22.0016 H   0  0  0  0  0  0  0  0  0  0  0  0
   18.7242   20.0813   22.2847 H   0  0  0  0  0  0  0  0  0  0  0  0
   19.1064   18.6946   23.9133 C   0  0  0  0  0  0  0  0  0  0  0  0
   18.1316   18.8672   24.3877 H   0  0  0  0  0  0  0  0  0  0  0  0
   19.3247   17.6250   24.0322 H   0  0  0  0  0  0  0  0  0  0  0  0
   20.1912   19.5448   24.6291 C   0  0  0  0  0  0  0  0  0  0  0  0
   20.0191   20.6071   24.4123 H   0  0  0  0  0  0  0  0  0  0  0  0
   21.1793   19.3066   24.2160 H   0  0  0  0  0  0  0  0  0  0  0  0
   20.2512   19.3615   26.1640 C   0  0  2  0  0  0  0  0  0  0  0  0
   21.0415   20.0190   26.5393 H   0  0  0  0  0  0  0  0  0  0  0  0
   20.6171   17.9204   26.5596 C   0  0  0  0  0  0  0  0  0  0  0  0
   20.7831   17.8500   27.6416 H   0  0  0  0  0  0  0  0  0  0  0  0
   19.8215   17.2134   26.2960 H   0  0  0  0  0  0  0  0  0  0  0  0
   21.5403   17.6016   26.0599 H   0  0  0  0  0  0  0  0  0  0  0  0
   18.9851   19.8023   26.8457 N   0  3  0  0  0  0  0  0  0  0  0  0
   18.7573   20.7752   26.6216 H   0  0  0  0  0  0  0  0  0  0  0  0
   19.0653   19.7334   27.8643 H   0  0  0  0  0  0  0  0  0  0  0  0
   18.1898   19.2256   26.5607 H   0  0  0  0  0  0  0  0  0  0  0  0
  1  2  1  0  0  0  0
  1  3  1  0  0  0  0
  1  4  1  0  0  0  0
  1  5  1  0  0  0  0
  5  6  1  0  0  0  0
  5  7  1  0  0  0  0
  5  8  1  0  0  0  0
  8  9  1  0  0  0  0
  8 10  1  0  0  0  0
  8 11  1  0  0  0  0
 11 12  1  0  0  0  0
 11 13  1  0  0  0  0
 11 14  1  0  0  0  0
 14 15  1  0  0  0  0
 14 16  1  0  0  0  0
 14 17  1  0  0  0  0
 17 18  1  0  0  0  0
 17 19  1  0  0  0  0
 17 20  1  0  0  0  0
 20 21  1  0  0  0  0
 20 22  1  0  0  0  0
 22 23  1  0  0  0  0
 22 24  1  0  0  0  0
 22 25  1  0  0  0  0
 20 26  1  0  0  0  0
 26 27  1  0  0  0  0
 26 28  1  0  0  0  0
 26 29  1  0  0  0  0
M  END
> <VM2 Rank>
49

> <Conf_Id>
1582

> <Probability>
0.56

> <Sum Probability>
90.40

> <Delta G>
1.744

> <G>
35.447

> <E>
-2.333

> <-TS>
37.780

> <U+W>
-26.477

> <U>
25.725

> <W>
-52.203

> <W(PB)>
-54.669

> <W(SA)>
2.467

> <Valence>
4.677

> <Coulomb>
19.669

> <VdW>
1.379

> <VdW6>
-9.934

> <VdW12>
11.313

> <Bond>
0.305

> <Angle>
1.629

> <Pdih>
2.742

> <Idih>
0.000

> <Tether>
0.000

$$$$
VeraChem MOL file


 29 28  0  0  0  0  0  0  0  0999 V2000     
   18.7258   18.9686   19.5905 C   0  0  0  0  0  0  0  0  0  0  0  0
   18.8308   17.9135   19.8724 H   0  0  0  0  0  0  0  0  0  0  0  0
   17.7941   19.3506   20.0275 H   0  0  0  0  0  0  0  0  0  0  0  0
   18.6264   19.0103   18.4981 H   0  0  0  0  0  0  0  0  0  0  0  0
   19.9406   19.8031   20.0555 C   0  0  0  0  0  0  0  0  0  0  0  0
   19.8469   20.8212   19.6524 H   0  0  0  0  0  0  0  0  0  0  0  0
   20.8619   19.3858   19.6256 H   0  0  0  0  0  0  0  0  0  0  0  0
   20.0726   19.8880   21.5952 C   0  0  0  0  0  0  0  0  0  0  0  0
   20.8945   20.5755   21.8377 H   0  0  0  0  0  0  0  0  0  0  0  0
   19.1593   20.3361   22.0075 H   0  0  0  0  0  0  0  0  0  0  0  0
   20.3443   18.5162   22.2632 C   0  0  0  0  0  0  0  0  0  0  0  0
   21.1789   18.0263   21.7430 H   0  0  0  0  0  0  0  0  0  0  0  0
   19.4739   17.8581   22.1404 H   0  0  0  0  0  0  0  0  0  0  0  0
   20.6979   18.6178   23.7676 C   0  0  0  0  0  0  0  0  0  0  0  0
   21.0040   17.6205   24.1084 H   0  0  0  0  0  0  0  0  0  0  0  0
   21.5717   19.2712   23.8969 H   0  0  0  0  0  0  0  0  0  0  0  0
   19.5261   19.1308   24.6446 C   0  0  0  0  0  0  0  0  0  0  0  0
   18.6567   18.4709   24.5247 H   0  0  0  0  0  0  0  0  0  0  0  0
   19.2183   20.1204   24.2859 H   0  0  0  0  0  0  0  0  0  0  0  0
   19.8799   19.2570   26.1444 C   0  0  2  0  0  0  0  0  0  0  0  0
   20.7832   19.8682   26.2338 H   0  0  0  0  0  0  0  0  0  0  0  0
   20.1490   17.8892   26.7974 C   0  0  0  0  0  0  0  0  0  0  0  0
   19.2927   17.2147   26.6729 H   0  0  0  0  0  0  0  0  0  0  0  0
   21.0331   17.4066   26.3656 H   0  0  0  0  0  0  0  0  0  0  0  0
   20.3368   18.0049   27.8720 H   0  0  0  0  0  0  0  0  0  0  0  0
   18.8000   19.9852   26.8956 N   0  3  0  0  0  0  0  0  0  0  0  0
   18.6335   20.9181   26.5073 H   0  0  0  0  0  0  0  0  0  0  0  0
   19.0471   20.1058   27.8821 H   0  0  0  0  0  0  0  0  0  0  0  0
   17.9130   19.4754   26.8631 H   0  0  0  0  0  0  0  0  0  0  0  0
  1  2  1  0  0  0  0
  1  3  1  0  0  0  0
  1  4  1  0  0  0  0
  1  5  1  0  0  0  0
  5  6  1  0  0  0  0
  5  7  1  0  0  0  0
  5  8  1  0  0  0  0
  8  9  1  0  0  0  0
  8 10  1  0  0  0  0
  8 11  1  0  0  0  0
 11 12  1  0  0  0  0
 11 13  1  0  0  0  0
 11 14  1  0  0  0  0
 14 15  1  0  0  0  0
 14 16  1  0  0  0  0
 14 17  1  0  0  0  0
 17 18  1  0  0  0  0
 17 19  1  0  0  0  0
 17 20  1  0  0  0  0
 20 21  1  0  0  0  0
 20 22  1  0  0  0  0
 22 23  1  0  0  0  0
 22 24  1  0  0  0  0
 22 25  1  0  0  0  0
 20 26  1  0  0  0  0
 26 27  1  0  0  0  0
 26 28  1  0  0  0  0
 26 29  1  0  0  0  0
M  END
> <VM2 Rank>
50

> <Conf_Id>
66

> <Probability>
0.53

> <Sum Probability>
90.93

> <Delta G>
1.771

> <G>
35.473

> <E>
-2.097

> <-TS>
37.570

> <U+W>
-26.241

> <U>
25.974

> <W>
-52.215

> <W(PB)>
-54.707

> <W(SA)>
2.492

> <Valence>
4.812

> <Coulomb>
19.700

> <VdW>
1.463

> <VdW6>
-9.391

> <VdW12>
10.854

> <Bond>
0.285

> <Angle>
1.671

> <Pdih>
2.856

> <Idih>
0.000

> <Tether>
0.000

$$$$
VeraChem MOL file


 29 28  0  0  0  0  0  0  0  0999 V2000     
   20.1403   19.1622   19.2040 C   0  0  0  0  0  0  0  0  0  0  0  0
   20.9556   19.8503   19.4592 H   0  0  0  0  0  0  0  0  0  0  0  0
   20.5414   18.1404   19.1961 H   0  0  0  0  0  0  0  0  0  0  0  0
   19.8141   19.4026   18.1839 H   0  0  0  0  0  0  0  0  0  0  0  0
   18.9588   19.2879   20.1926 C   0  0  0  0  0  0  0  0  0  0  0  0
   18.1232   18.6777   19.8221 H   0  0  0  0  0  0  0  0  0  0  0  0
   18.5980   20.3258   20.2085 H   0  0  0  0  0  0  0  0  0  0  0  0
   19.3051   18.8317   21.6307 C   0  0  0  0  0  0  0  0  0  0  0  0
   18.3775   18.8282   22.2174 H   0  0  0  0  0  0  0  0  0  0  0  0
   19.6631   17.7932   21.6096 H   0  0  0  0  0  0  0  0  0  0  0  0
   20.3553   19.7335   22.3276 C   0  0  0  0  0  0  0  0  0  0  0  0
   19.9965   20.7717   22.3499 H   0  0  0  0  0  0  0  0  0  0  0  0
   21.2810   19.7393   21.7379 H   0  0  0  0  0  0  0  0  0  0  0  0
   20.7068   19.2743   23.7642 C   0  0  0  0  0  0  0  0  0  0  0  0
   21.0789   18.2418   23.7292 H   0  0  0  0  0  0  0  0  0  0  0  0
   21.5375   19.8919   24.1330 H   0  0  0  0  0  0  0  0  0  0  0  0
   19.5203   19.3831   24.7565 C   0  0  0  0  0  0  0  0  0  0  0  0
   18.7357   18.6646   24.4878 H   0  0  0  0  0  0  0  0  0  0  0  0
   19.0759   20.3828   24.6631 H   0  0  0  0  0  0  0  0  0  0  0  0
   19.9267   19.1637   26.2314 C   0  0  2  0  0  0  0  0  0  0  0  0
   20.7325   19.8636   26.4732 H   0  0  0  0  0  0  0  0  0  0  0  0
   20.4321   17.7322   26.4854 C   0  0  0  0  0  0  0  0  0  0  0  0
   21.3476   17.5265   25.9187 H   0  0  0  0  0  0  0  0  0  0  0  0
   20.6685   17.5886   27.5469 H   0  0  0  0  0  0  0  0  0  0  0  0
   19.6771   16.9886   26.2013 H   0  0  0  0  0  0  0  0  0  0  0  0
   18.7906   19.4874   27.1614 N   0  3  0  0  0  0  0  0  0  0  0  0
   17.9895   18.8705   27.0022 H   0  0  0  0  0  0  0  0  0  0  0  0
   18.4663   20.4511   27.0394 H   0  0  0  0  0  0  0  0  0  0  0  0
   19.0680   19.3814   28.1415 H   0  0  0  0  0  0  0  0  0  0  0  0
  1  2  1  0  0  0  0
  1  3  1  0  0  0  0
  1  4  1  0  0  0  0
  1  5  1  0  0  0  0
  5  6  1  0  0  0  0
  5  7  1  0  0  0  0
  5  8  1  0  0  0  0
  8  9  1  0  0  0  0
  8 10  1  0  0  0  0
  8 11  1  0  0  0  0
 11 12  1  0  0  0  0
 11 13  1  0  0  0  0
 11 14  1  0  0  0  0
 14 15  1  0  0  0  0
 14 16  1  0  0  0  0
 14 17  1  0  0  0  0
 17 18  1  0  0  0  0
 17 19  1  0  0  0  0
 17 20  1  0  0  0  0
 20 21  1  0  0  0  0
 20 22  1  0  0  0  0
 22 23  1  0  0  0  0
 22 24  1  0  0  0  0
 22 25  1  0  0  0  0
 20 26  1  0  0  0  0
 26 27  1  0  0  0  0
 26 28  1  0  0  0  0
 26 29  1  0  0  0  0
M  END
> <VM2 Rank>
51

> <Conf_Id>
1341

> <Probability>
0.51

> <Sum Probability>
91.45

> <Delta G>
1.793

> <G>
35.495

> <E>
-2.102

> <-TS>
37.597

> <U+W>
-26.247

> <U>
25.821

> <W>
-52.068

> <W(PB)>
-54.582

> <W(SA)>
2.514

> <Valence>
4.779

> <Coulomb>
19.614

> <VdW>
1.428

> <VdW6>
-9.390

> <VdW12>
10.818

> <Bond>
0.283

> <Angle>
1.640

> <Pdih>
2.856

> <Idih>
0.000

> <Tether>
0.000

$$$$
VeraChem MOL file


 29 28  0  0  0  0  0  0  0  0999 V2000     
   19.3270   20.6259   19.8686 C   0  0  0  0  0  0  0  0  0  0  0  0
   19.9043   21.5085   19.5641 H   0  0  0  0  0  0  0  0  0  0  0  0
   19.1218   20.0309   18.9691 H   0  0  0  0  0  0  0  0  0  0  0  0
   18.3682   20.9736   20.2748 H   0  0  0  0  0  0  0  0  0  0  0  0
   20.1052   19.8003   20.9148 C   0  0  0  0  0  0  0  0  0  0  0  0
   20.3257   20.4393   21.7802 H   0  0  0  0  0  0  0  0  0  0  0  0
   21.0710   19.4916   20.4911 H   0  0  0  0  0  0  0  0  0  0  0  0
   19.3090   18.5522   21.3630 C   0  0  0  0  0  0  0  0  0  0  0  0
   18.3619   18.8613   21.8242 H   0  0  0  0  0  0  0  0  0  0  0  0
   19.0324   17.9683   20.4744 H   0  0  0  0  0  0  0  0  0  0  0  0
   20.0945   17.6261   22.3276 C   0  0  0  0  0  0  0  0  0  0  0  0
   20.9644   17.2179   21.7949 H   0  0  0  0  0  0  0  0  0  0  0  0
   19.4640   16.7617   22.5775 H   0  0  0  0  0  0  0  0  0  0  0  0
   20.5849   18.2870   23.6424 C   0  0  0  0  0  0  0  0  0  0  0  0
   21.1388   17.5279   24.2090 H   0  0  0  0  0  0  0  0  0  0  0  0
   21.3075   19.0821   23.4161 H   0  0  0  0  0  0  0  0  0  0  0  0
   19.4373   18.8548   24.5175 C   0  0  0  0  0  0  0  0  0  0  0  0
   18.7224   18.0561   24.7557 H   0  0  0  0  0  0  0  0  0  0  0  0
   18.8860   19.6053   23.9381 H   0  0  0  0  0  0  0  0  0  0  0  0
   19.9232   19.5254   25.8230 C   0  0  2  0  0  0  0  0  0  0  0  0
   20.6791   20.2732   25.5642 H   0  0  0  0  0  0  0  0  0  0  0  0
   20.5506   18.5144   26.7997 C   0  0  0  0  0  0  0  0  0  0  0  0
   20.8296   19.0074   27.7391 H   0  0  0  0  0  0  0  0  0  0  0  0
   19.8499   17.7040   27.0363 H   0  0  0  0  0  0  0  0  0  0  0  0
   21.4628   18.0705   26.3851 H   0  0  0  0  0  0  0  0  0  0  0  0
   18.8045   20.2700   26.4975 N   0  3  0  0  0  0  0  0  0  0  0  0
   19.1299   20.7483   27.3424 H   0  0  0  0  0  0  0  0  0  0  0  0
   18.0494   19.6376   26.7762 H   0  0  0  0  0  0  0  0  0  0  0  0
   18.3994   20.9811   25.8818 H   0  0  0  0  0  0  0  0  0  0  0  0
  1  2  1  0  0  0  0
  1  3  1  0  0  0  0
  1  4  1  0  0  0  0
  1  5  1  0  0  0  0
  5  6  1  0  0  0  0
  5  7  1  0  0  0  0
  5  8  1  0  0  0  0
  8  9  1  0  0  0  0
  8 10  1  0  0  0  0
  8 11  1  0  0  0  0
 11 12  1  0  0  0  0
 11 13  1  0  0  0  0
 11 14  1  0  0  0  0
 14 15  1  0  0  0  0
 14 16  1  0  0  0  0
 14 17  1  0  0  0  0
 17 18  1  0  0  0  0
 17 19  1  0  0  0  0
 17 20  1  0  0  0  0
 20 21  1  0  0  0  0
 20 22  1  0  0  0  0
 22 23  1  0  0  0  0
 22 24  1  0  0  0  0
 22 25  1  0  0  0  0
 20 26  1  0  0  0  0
 26 27  1  0  0  0  0
 26 28  1  0  0  0  0
 26 29  1  0  0  0  0
M  END
> <VM2 Rank>
52

> <Conf_Id>
1279

> <Probability>
0.47

> <Sum Probability>
91.92

> <Delta G>
1.842

> <G>
35.544

> <E>
-2.258

> <-TS>
37.802

> <U+W>
-26.403

> <U>
26.111

> <W>
-52.514

> <W(PB)>
-54.997

> <W(SA)>
2.483

> <Valence>
4.790

> <Coulomb>
20.049

> <VdW>
1.273

> <VdW6>
-9.803

> <VdW12>
11.076

> <Bond>
0.295

> <Angle>
1.941

> <Pdih>
2.554

> <Idih>
0.000

> <Tether>
0.000

$$$$
VeraChem MOL file


 29 28  0  0  0  0  0  0  0  0999 V2000     
   19.0036   20.4705   20.3786 C   0  0  0  0  0  0  0  0  0  0  0  0
   18.0441   20.8436   19.9979 H   0  0  0  0  0  0  0  0  0  0  0  0
   19.2366   21.0304   21.2929 H   0  0  0  0  0  0  0  0  0  0  0  0
   19.7738   20.6975   19.6301 H   0  0  0  0  0  0  0  0  0  0  0  0
   18.9245   18.9513   20.6502 C   0  0  0  0  0  0  0  0  0  0  0  0
   18.5745   18.4469   19.7387 H   0  0  0  0  0  0  0  0  0  0  0  0
   18.1625   18.7506   21.4151 H   0  0  0  0  0  0  0  0  0  0  0  0
   20.2808   18.3282   21.0682 C   0  0  0  0  0  0  0  0  0  0  0  0
   20.1435   17.2481   21.2149 H   0  0  0  0  0  0  0  0  0  0  0  0
   20.9896   18.4304   20.2349 H   0  0  0  0  0  0  0  0  0  0  0  0
   20.9235   18.9323   22.3434 C   0  0  0  0  0  0  0  0  0  0  0  0
   21.1736   19.9877   22.1720 H   0  0  0  0  0  0  0  0  0  0  0  0
   21.8793   18.4210   22.5231 H   0  0  0  0  0  0  0  0  0  0  0  0
   20.0368   18.8016   23.6048 C   0  0  0  0  0  0  0  0  0  0  0  0
   19.1097   19.3700   23.4611 H   0  0  0  0  0  0  0  0  0  0  0  0
   19.7534   17.7490   23.7346 H   0  0  0  0  0  0  0  0  0  0  0  0
   20.7697   19.3147   24.8716 C   0  0  0  0  0  0  0  0  0  0  0  0
   21.0971   20.3492   24.7041 H   0  0  0  0  0  0  0  0  0  0  0  0
   21.6859   18.7287   25.0233 H   0  0  0  0  0  0  0  0  0  0  0  0
   19.9320   19.2716   26.1714 C   0  0  2  0  0  0  0  0  0  0  0  0
   20.5546   19.6810   26.9730 H   0  0  0  0  0  0  0  0  0  0  0  0
   19.5505   17.8344   26.5667 C   0  0  0  0  0  0  0  0  0  0  0  0
   18.8450   17.3913   25.8539 H   0  0  0  0  0  0  0  0  0  0  0  0
   20.4400   17.1940   26.6142 H   0  0  0  0  0  0  0  0  0  0  0  0
   19.0785   17.8217   27.5568 H   0  0  0  0  0  0  0  0  0  0  0  0
   18.7144   20.1514   26.0992 N   0  3  0  0  0  0  0  0  0  0  0  0
   18.9640   21.1201   25.8801 H   0  0  0  0  0  0  0  0  0  0  0  0
   18.2060   20.1597   26.9880 H   0  0  0  0  0  0  0  0  0  0  0  0
   18.0658   19.8285   25.3771 H   0  0  0  0  0  0  0  0  0  0  0  0
  1  2  1  0  0  0  0
  1  3  1  0  0  0  0
  1  4  1  0  0  0  0
  1  5  1  0  0  0  0
  5  6  1  0  0  0  0
  5  7  1  0  0  0  0
  5  8  1  0  0  0  0
  8  9  1  0  0  0  0
  8 10  1  0  0  0  0
  8 11  1  0  0  0  0
 11 12  1  0  0  0  0
 11 13  1  0  0  0  0
 11 14  1  0  0  0  0
 14 15  1  0  0  0  0
 14 16  1  0  0  0  0
 14 17  1  0  0  0  0
 17 18  1  0  0  0  0
 17 19  1  0  0  0  0
 17 20  1  0  0  0  0
 20 21  1  0  0  0  0
 20 22  1  0  0  0  0
 22 23  1  0  0  0  0
 22 24  1  0  0  0  0
 22 25  1  0  0  0  0
 20 26  1  0  0  0  0
 26 27  1  0  0  0  0
 26 28  1  0  0  0  0
 26 29  1  0  0  0  0
M  END
> <VM2 Rank>
53

> <Conf_Id>
218

> <Probability>
0.47

> <Sum Probability>
92.38

> <Delta G>
1.847

> <G>
35.550

> <E>
-2.422

> <-TS>
37.972

> <U+W>
-26.566

> <U>
25.998

> <W>
-52.564

> <W(PB)>
-55.004

> <W(SA)>
2.440

> <Valence>
4.627

> <Coulomb>
20.145

> <VdW>
1.225

> <VdW6>
-10.242

> <VdW12>
11.467

> <Bond>
0.303

> <Angle>
1.847

> <Pdih>
2.477

> <Idih>
0.000

> <Tether>
0.000

$$$$
VeraChem MOL file


 29 28  0  0  0  0  0  0  0  0999 V2000     
   20.8959   19.0187   19.7979 C   0  0  0  0  0  0  0  0  0  0  0  0
   20.9494   20.0074   19.3238 H   0  0  0  0  0  0  0  0  0  0  0  0
   21.8561   18.8244   20.2933 H   0  0  0  0  0  0  0  0  0  0  0  0
   20.7686   18.2711   19.0042 H   0  0  0  0  0  0  0  0  0  0  0  0
   19.7286   18.9483   20.8049 C   0  0  0  0  0  0  0  0  0  0  0  0
   19.6827   17.9359   21.2273 H   0  0  0  0  0  0  0  0  0  0  0  0
   18.7800   19.1165   20.2762 H   0  0  0  0  0  0  0  0  0  0  0  0
   19.8877   19.9918   21.9354 C   0  0  0  0  0  0  0  0  0  0  0  0
   20.8202   19.8052   22.4842 H   0  0  0  0  0  0  0  0  0  0  0  0
   19.9963   20.9888   21.4868 H   0  0  0  0  0  0  0  0  0  0  0  0
   18.6893   20.0271   22.9185 C   0  0  0  0  0  0  0  0  0  0  0  0
   17.7844   20.3127   22.3648 H   0  0  0  0  0  0  0  0  0  0  0  0
   18.8545   20.8316   23.6474 H   0  0  0  0  0  0  0  0  0  0  0  0
   18.4116   18.6977   23.6710 C   0  0  0  0  0  0  0  0  0  0  0  0
   17.5635   18.8484   24.3520 H   0  0  0  0  0  0  0  0  0  0  0  0
   18.0750   17.9361   22.9552 H   0  0  0  0  0  0  0  0  0  0  0  0
   19.6188   18.1375   24.4692 C   0  0  0  0  0  0  0  0  0  0  0  0
   20.4013   17.8251   23.7657 H   0  0  0  0  0  0  0  0  0  0  0  0
   19.3069   17.2259   24.9958 H   0  0  0  0  0  0  0  0  0  0  0  0
   20.2190   19.1347   25.4845 C   0  0  2  0  0  0  0  0  0  0  0  0
   20.5210   20.0364   24.9435 H   0  0  0  0  0  0  0  0  0  0  0  0
   21.4666   18.5346   26.1514 C   0  0  0  0  0  0  0  0  0  0  0  0
   21.2181   17.6253   26.7130 H   0  0  0  0  0  0  0  0  0  0  0  0
   22.2235   18.2764   25.4004 H   0  0  0  0  0  0  0  0  0  0  0  0
   21.9187   19.2529   26.8464 H   0  0  0  0  0  0  0  0  0  0  0  0
   19.2184   19.5657   26.5213 N   0  3  0  0  0  0  0  0  0  0  0  0
   18.8931   18.7707   27.0777 H   0  0  0  0  0  0  0  0  0  0  0  0
   18.3970   19.9956   26.0875 H   0  0  0  0  0  0  0  0  0  0  0  0
   19.6198   20.2502   27.1684 H   0  0  0  0  0  0  0  0  0  0  0  0
  1  2  1  0  0  0  0
  1  3  1  0  0  0  0
  1  4  1  0  0  0  0
  1  5  1  0  0  0  0
  5  6  1  0  0  0  0
  5  7  1  0  0  0  0
  5  8  1  0  0  0  0
  8  9  1  0  0  0  0
  8 10  1  0  0  0  0
  8 11  1  0  0  0  0
 11 12  1  0  0  0  0
 11 13  1  0  0  0  0
 11 14  1  0  0  0  0
 14 15  1  0  0  0  0
 14 16  1  0  0  0  0
 14 17  1  0  0  0  0
 17 18  1  0  0  0  0
 17 19  1  0  0  0  0
 17 20  1  0  0  0  0
 20 21  1  0  0  0  0
 20 22  1  0  0  0  0
 22 23  1  0  0  0  0
 22 24  1  0  0  0  0
 22 25  1  0  0  0  0
 20 26  1  0  0  0  0
 26 27  1  0  0  0  0
 26 28  1  0  0  0  0
 26 29  1  0  0  0  0
M  END
> <VM2 Rank>
54

> <Conf_Id>
926

> <Probability>
0.44

> <Sum Probability>
92.82

> <Delta G>
1.884

> <G>
35.587

> <E>
-2.611

> <-TS>
38.197

> <U+W>
-26.755

> <U>
25.507

> <W>
-52.262

> <W(PB)>
-54.690

> <W(SA)>
2.428

> <Valence>
4.386

> <Coulomb>
20.418

> <VdW>
0.702

> <VdW6>
-10.963

> <VdW12>
11.666

> <Bond>
0.307

> <Angle>
1.748

> <Pdih>
2.331

> <Idih>
0.000

> <Tether>
0.000

$$$$
VeraChem MOL file


 29 28  0  0  0  0  0  0  0  0999 V2000     
   20.6062   19.2826   19.5164 C   0  0  0  0  0  0  0  0  0  0  0  0
   21.3968   19.9694   19.8456 H   0  0  0  0  0  0  0  0  0  0  0  0
   20.8958   18.2632   19.8001 H   0  0  0  0  0  0  0  0  0  0  0  0
   20.5630   19.3207   18.4202 H   0  0  0  0  0  0  0  0  0  0  0  0
   19.2410   19.6744   20.1255 C   0  0  0  0  0  0  0  0  0  0  0  0
   18.4728   18.9581   19.8021 H   0  0  0  0  0  0  0  0  0  0  0  0
   18.9397   20.6513   19.7221 H   0  0  0  0  0  0  0  0  0  0  0  0
   19.2608   19.7591   21.6706 C   0  0  0  0  0  0  0  0  0  0  0  0
   20.0098   20.5004   21.9784 H   0  0  0  0  0  0  0  0  0  0  0  0
   18.2879   20.1384   22.0121 H   0  0  0  0  0  0  0  0  0  0  0  0
   19.5435   18.3980   22.3553 C   0  0  0  0  0  0  0  0  0  0  0  0
   20.5641   18.0649   22.1247 H   0  0  0  0  0  0  0  0  0  0  0  0
   18.8679   17.6402   21.9353 H   0  0  0  0  0  0  0  0  0  0  0  0
   19.3524   18.4273   23.8917 C   0  0  0  0  0  0  0  0  0  0  0  0
   18.3260   18.7423   24.1218 H   0  0  0  0  0  0  0  0  0  0  0  0
   19.4524   17.3995   24.2635 H   0  0  0  0  0  0  0  0  0  0  0  0
   20.3709   19.3463   24.6202 C   0  0  0  0  0  0  0  0  0  0  0  0
   20.2509   20.3786   24.2697 H   0  0  0  0  0  0  0  0  0  0  0  0
   21.3912   19.0489   24.3442 H   0  0  0  0  0  0  0  0  0  0  0  0
   20.2542   19.3522   26.1628 C   0  0  2  0  0  0  0  0  0  0  0  0
   20.9838   20.0753   26.5404 H   0  0  0  0  0  0  0  0  0  0  0  0
   20.5978   17.9840   26.7772 C   0  0  0  0  0  0  0  0  0  0  0  0
   21.5753   17.6323   26.4244 H   0  0  0  0  0  0  0  0  0  0  0  0
   20.6460   18.0567   27.8707 H   0  0  0  0  0  0  0  0  0  0  0  0
   19.8477   17.2250   26.5259 H   0  0  0  0  0  0  0  0  0  0  0  0
   18.9092   19.8322   26.6343 N   0  3  0  0  0  0  0  0  0  0  0  0
   18.1636   19.2004   26.3319 H   0  0  0  0  0  0  0  0  0  0  0  0
   18.6931   20.7633   26.2670 H   0  0  0  0  0  0  0  0  0  0  0  0
   18.8691   19.8886   27.6560 H   0  0  0  0  0  0  0  0  0  0  0  0
  1  2  1  0  0  0  0
  1  3  1  0  0  0  0
  1  4  1  0  0  0  0
  1  5  1  0  0  0  0
  5  6  1  0  0  0  0
  5  7  1  0  0  0  0
  5  8  1  0  0  0  0
  8  9  1  0  0  0  0
  8 10  1  0  0  0  0
  8 11  1  0  0  0  0
 11 12  1  0  0  0  0
 11 13  1  0  0  0  0
 11 14  1  0  0  0  0
 14 15  1  0  0  0  0
 14 16  1  0  0  0  0
 14 17  1  0  0  0  0
 17 18  1  0  0  0  0
 17 19  1  0  0  0  0
 17 20  1  0  0  0  0
 20 21  1  0  0  0  0
 20 22  1  0  0  0  0
 22 23  1  0  0  0  0
 22 24  1  0  0  0  0
 22 25  1  0  0  0  0
 20 26  1  0  0  0  0
 26 27  1  0  0  0  0
 26 28  1  0  0  0  0
 26 29  1  0  0  0  0
M  END
> <VM2 Rank>
55

> <Conf_Id>
505

> <Probability>
0.44

> <Sum Probability>
93.26

> <Delta G>
1.890

> <G>
35.592

> <E>
-2.143

> <-TS>
37.735

> <U+W>
-26.287

> <U>
25.995

> <W>
-52.282

> <W(PB)>
-54.749

> <W(SA)>
2.466

> <Valence>
4.756

> <Coulomb>
19.829

> <VdW>
1.410

> <VdW6>
-9.885

> <VdW12>
11.295

> <Bond>
0.310

> <Angle>
1.687

> <Pdih>
2.759

> <Idih>
0.000

> <Tether>
0.000

$$$$
VeraChem MOL file


 29 28  0  0  0  0  0  0  0  0999 V2000     
   20.1785   20.3229   20.0797 C   0  0  0  0  0  0  0  0  0  0  0  0
   19.5753   20.0028   19.2203 H   0  0  0  0  0  0  0  0  0  0  0  0
   19.5730   21.0046   20.6897 H   0  0  0  0  0  0  0  0  0  0  0  0
   21.0344   20.8932   19.6962 H   0  0  0  0  0  0  0  0  0  0  0  0
   20.6624   19.1068   20.9013 C   0  0  0  0  0  0  0  0  0  0  0  0
   21.2531   19.4512   21.7606 H   0  0  0  0  0  0  0  0  0  0  0  0
   21.3490   18.5125   20.2826 H   0  0  0  0  0  0  0  0  0  0  0  0
   19.5077   18.1899   21.3781 C   0  0  0  0  0  0  0  0  0  0  0  0
   18.9965   17.7781   20.4971 H   0  0  0  0  0  0  0  0  0  0  0  0
   19.9327   17.3232   21.9013 H   0  0  0  0  0  0  0  0  0  0  0  0
   18.4511   18.8754   22.2861 C   0  0  0  0  0  0  0  0  0  0  0  0
   17.7059   18.1254   22.5847 H   0  0  0  0  0  0  0  0  0  0  0  0
   17.8987   19.6201   21.6977 H   0  0  0  0  0  0  0  0  0  0  0  0
   19.0115   19.5601   23.5595 C   0  0  0  0  0  0  0  0  0  0  0  0
   19.6859   20.3796   23.2775 H   0  0  0  0  0  0  0  0  0  0  0  0
   18.1708   20.0280   24.0880 H   0  0  0  0  0  0  0  0  0  0  0  0
   19.7448   18.5833   24.5141 C   0  0  0  0  0  0  0  0  0  0  0  0
   20.5939   18.1313   23.9865 H   0  0  0  0  0  0  0  0  0  0  0  0
   19.0728   17.7607   24.7922 H   0  0  0  0  0  0  0  0  0  0  0  0
   20.2767   19.2736   25.7887 C   0  0  2  0  0  0  0  0  0  0  0  0
   20.9129   20.1108   25.4854 H   0  0  0  0  0  0  0  0  0  0  0  0
   21.1284   18.2935   26.6112 C   0  0  0  0  0  0  0  0  0  0  0  0
   21.9732   17.9195   26.0196 H   0  0  0  0  0  0  0  0  0  0  0  0
   21.5384   18.7874   27.5008 H   0  0  0  0  0  0  0  0  0  0  0  0
   20.5344   17.4321   26.9414 H   0  0  0  0  0  0  0  0  0  0  0  0
   19.1749   19.8505   26.6351 N   0  3  0  0  0  0  0  0  0  0  0  0
   18.5315   19.1222   26.9563 H   0  0  0  0  0  0  0  0  0  0  0  0
   18.6258   20.5401   26.1150 H   0  0  0  0  0  0  0  0  0  0  0  0
   19.5476   20.3191   27.4659 H   0  0  0  0  0  0  0  0  0  0  0  0
  1  2  1  0  0  0  0
  1  3  1  0  0  0  0
  1  4  1  0  0  0  0
  1  5  1  0  0  0  0
  5  6  1  0  0  0  0
  5  7  1  0  0  0  0
  5  8  1  0  0  0  0
  8  9  1  0  0  0  0
  8 10  1  0  0  0  0
  8 11  1  0  0  0  0
 11 12  1  0  0  0  0
 11 13  1  0  0  0  0
 11 14  1  0  0  0  0
 14 15  1  0  0  0  0
 14 16  1  0  0  0  0
 14 17  1  0  0  0  0
 17 18  1  0  0  0  0
 17 19  1  0  0  0  0
 17 20  1  0  0  0  0
 20 21  1  0  0  0  0
 20 22  1  0  0  0  0
 22 23  1  0  0  0  0
 22 24  1  0  0  0  0
 22 25  1  0  0  0  0
 20 26  1  0  0  0  0
 26 27  1  0  0  0  0
 26 28  1  0  0  0  0
 26 29  1  0  0  0  0
M  END
> <VM2 Rank>
56

> <Conf_Id>
507

> <Probability>
0.43

> <Sum Probability>
93.69

> <Delta G>
1.899

> <G>
35.601

> <E>
-2.555

> <-TS>
38.156

> <U+W>
-26.699

> <U>
25.696

> <W>
-52.395

> <W(PB)>
-54.863

> <W(SA)>
2.468

> <Valence>
4.599

> <Coulomb>
20.006

> <VdW>
1.091

> <VdW6>
-10.569

> <VdW12>
11.659

> <Bond>
0.319

> <Angle>
1.895

> <Pdih>
2.384

> <Idih>
0.000

> <Tether>
0.000

$$$$
VeraChem MOL file


 29 28  0  0  0  0  0  0  0  0999 V2000     
   19.6875   19.9153   19.6069 C   0  0  0  0  0  0  0  0  0  0  0  0
   18.8684   20.5444   19.9763 H   0  0  0  0  0  0  0  0  0  0  0  0
   20.1801   20.4615   18.7921 H   0  0  0  0  0  0  0  0  0  0  0  0
   19.2549   18.9995   19.1835 H   0  0  0  0  0  0  0  0  0  0  0  0
   20.7011   19.5852   20.7260 C   0  0  0  0  0  0  0  0  0  0  0  0
   21.0931   20.5170   21.1571 H   0  0  0  0  0  0  0  0  0  0  0  0
   21.5616   19.0671   20.2802 H   0  0  0  0  0  0  0  0  0  0  0  0
   20.1146   18.6950   21.8482 C   0  0  0  0  0  0  0  0  0  0  0  0
   19.7276   17.7633   21.4132 H   0  0  0  0  0  0  0  0  0  0  0  0
   20.9368   18.4078   22.5161 H   0  0  0  0  0  0  0  0  0  0  0  0
   18.9998   19.3919   22.6686 C   0  0  0  0  0  0  0  0  0  0  0  0
   18.1794   19.6792   21.9985 H   0  0  0  0  0  0  0  0  0  0  0  0
   19.3849   20.3277   23.0945 H   0  0  0  0  0  0  0  0  0  0  0  0
   18.4065   18.4996   23.7899 C   0  0  0  0  0  0  0  0  0  0  0  0
   17.5891   19.0448   24.2807 H   0  0  0  0  0  0  0  0  0  0  0  0
   17.9395   17.6159   23.3336 H   0  0  0  0  0  0  0  0  0  0  0  0
   19.4243   18.0274   24.8625 C   0  0  0  0  0  0  0  0  0  0  0  0
   20.1270   17.3188   24.4060 H   0  0  0  0  0  0  0  0  0  0  0  0
   18.8891   17.4608   25.6359 H   0  0  0  0  0  0  0  0  0  0  0  0
   20.2186   19.1735   25.5269 C   0  0  2  0  0  0  0  0  0  0  0  0
   20.7475   19.7245   24.7435 H   0  0  0  0  0  0  0  0  0  0  0  0
   21.2618   18.6073   26.5028 C   0  0  0  0  0  0  0  0  0  0  0  0
   21.9552   17.9337   25.9840 H   0  0  0  0  0  0  0  0  0  0  0  0
   21.8542   19.4152   26.9496 H   0  0  0  0  0  0  0  0  0  0  0  0
   20.7825   18.0456   27.3145 H   0  0  0  0  0  0  0  0  0  0  0  0
   19.3220   20.1607   26.2223 N   0  3  0  0  0  0  0  0  0  0  0  0
   18.7971   19.7168   26.9805 H   0  0  0  0  0  0  0  0  0  0  0  0
   18.6427   20.5659   25.5726 H   0  0  0  0  0  0  0  0  0  0  0  0
   19.8581   20.9320   26.6299 H   0  0  0  0  0  0  0  0  0  0  0  0
  1  2  1  0  0  0  0
  1  3  1  0  0  0  0
  1  4  1  0  0  0  0
  1  5  1  0  0  0  0
  5  6  1  0  0  0  0
  5  7  1  0  0  0  0
  5  8  1  0  0  0  0
  8  9  1  0  0  0  0
  8 10  1  0  0  0  0
  8 11  1  0  0  0  0
 11 12  1  0  0  0  0
 11 13  1  0  0  0  0
 11 14  1  0  0  0  0
 14 15  1  0  0  0  0
 14 16  1  0  0  0  0
 14 17  1  0  0  0  0
 17 18  1  0  0  0  0
 17 19  1  0  0  0  0
 17 20  1  0  0  0  0
 20 21  1  0  0  0  0
 20 22  1  0  0  0  0
 22 23  1  0  0  0  0
 22 24  1  0  0  0  0
 22 25  1  0  0  0  0
 20 26  1  0  0  0  0
 26 27  1  0  0  0  0
 26 28  1  0  0  0  0
 26 29  1  0  0  0  0
M  END
> <VM2 Rank>
57

> <Conf_Id>
807

> <Probability>
0.42

> <Sum Probability>
94.10

> <Delta G>
1.914

> <G>
35.617

> <E>
-2.321

> <-TS>
37.938

> <U+W>
-26.466

> <U>
25.816

> <W>
-52.282

> <W(PB)>
-54.729

> <W(SA)>
2.446

> <Valence>
4.504

> <Coulomb>
20.342

> <VdW>
0.971

> <VdW6>
-10.532

> <VdW12>
11.503

> <Bond>
0.307

> <Angle>
1.716

> <Pdih>
2.481

> <Idih>
0.000

> <Tether>
0.000

$$$$
VeraChem MOL file


 29 28  0  0  0  0  0  0  0  0999 V2000     
   19.1549   19.0739   19.2955 C   0  0  0  0  0  0  0  0  0  0  0  0
   18.9936   17.9882   19.3098 H   0  0  0  0  0  0  0  0  0  0  0  0
   18.2441   19.5623   19.6632 H   0  0  0  0  0  0  0  0  0  0  0  0
   19.2925   19.3789   18.2501 H   0  0  0  0  0  0  0  0  0  0  0  0
   20.3901   19.4635   20.1389 C   0  0  0  0  0  0  0  0  0  0  0  0
   20.5097   20.5559   20.1379 H   0  0  0  0  0  0  0  0  0  0  0  0
   21.2891   19.0557   19.6558 H   0  0  0  0  0  0  0  0  0  0  0  0
   20.3326   18.9442   21.5960 C   0  0  0  0  0  0  0  0  0  0  0  0
   20.2139   17.8520   21.5914 H   0  0  0  0  0  0  0  0  0  0  0  0
   21.3028   19.1489   22.0662 H   0  0  0  0  0  0  0  0  0  0  0  0
   19.2021   19.5903   22.4367 C   0  0  0  0  0  0  0  0  0  0  0  0
   18.2339   19.3912   21.9596 H   0  0  0  0  0  0  0  0  0  0  0  0
   19.3235   20.6822   22.4452 H   0  0  0  0  0  0  0  0  0  0  0  0
   19.1339   19.0637   23.8915 C   0  0  0  0  0  0  0  0  0  0  0  0
   18.2275   19.4707   24.3582 H   0  0  0  0  0  0  0  0  0  0  0  0
   19.0100   17.9729   23.8724 H   0  0  0  0  0  0  0  0  0  0  0  0
   20.3728   19.4470   24.7465 C   0  0  0  0  0  0  0  0  0  0  0  0
   20.5503   20.5271   24.6625 H   0  0  0  0  0  0  0  0  0  0  0  0
   21.2679   18.9593   24.3413 H   0  0  0  0  0  0  0  0  0  0  0  0
   20.2632   19.0840   26.2463 C   0  0  2  0  0  0  0  0  0  0  0  0
   21.1891   19.4120   26.7287 H   0  0  0  0  0  0  0  0  0  0  0  0
   20.1361   17.5664   26.4652 C   0  0  0  0  0  0  0  0  0  0  0  0
   20.9488   17.0302   25.9597 H   0  0  0  0  0  0  0  0  0  0  0  0
   20.1939   17.3268   27.5341 H   0  0  0  0  0  0  0  0  0  0  0  0
   19.1819   17.1809   26.0866 H   0  0  0  0  0  0  0  0  0  0  0  0
   19.1503   19.8230   26.9373 N   0  3  0  0  0  0  0  0  0  0  0  0
   19.1324   19.6191   27.9406 H   0  0  0  0  0  0  0  0  0  0  0  0
   18.2380   19.5626   26.5548 H   0  0  0  0  0  0  0  0  0  0  0  0
   19.2512   20.8367   26.8325 H   0  0  0  0  0  0  0  0  0  0  0  0
  1  2  1  0  0  0  0
  1  3  1  0  0  0  0
  1  4  1  0  0  0  0
  1  5  1  0  0  0  0
  5  6  1  0  0  0  0
  5  7  1  0  0  0  0
  5  8  1  0  0  0  0
  8  9  1  0  0  0  0
  8 10  1  0  0  0  0
  8 11  1  0  0  0  0
 11 12  1  0  0  0  0
 11 13  1  0  0  0  0
 11 14  1  0  0  0  0
 14 15  1  0  0  0  0
 14 16  1  0  0  0  0
 14 17  1  0  0  0  0
 17 18  1  0  0  0  0
 17 19  1  0  0  0  0
 17 20  1  0  0  0  0
 20 21  1  0  0  0  0
 20 22  1  0  0  0  0
 22 23  1  0  0  0  0
 22 24  1  0  0  0  0
 22 25  1  0  0  0  0
 20 26  1  0  0  0  0
 26 27  1  0  0  0  0
 26 28  1  0  0  0  0
 26 29  1  0  0  0  0
M  END
> <VM2 Rank>
58

> <Conf_Id>
1552

> <Probability>
0.40

> <Sum Probability>
94.51

> <Delta G>
1.935

> <G>
35.637

> <E>
-2.059

> <-TS>
37.696

> <U+W>
-26.204

> <U>
25.894

> <W>
-52.098

> <W(PB)>
-54.601

> <W(SA)>
2.503

> <Valence>
4.780

> <Coulomb>
19.659

> <VdW>
1.455

> <VdW6>
-9.843

> <VdW12>
11.298

> <Bond>
0.315

> <Angle>
1.725

> <Pdih>
2.740

> <Idih>
0.000

> <Tether>
0.000

$$$$
VeraChem MOL file


 29 28  0  0  0  0  0  0  0  0999 V2000     
   18.8950   20.2134   20.2476 C   0  0  0  0  0  0  0  0  0  0  0  0
   19.3801   21.0223   20.8079 H   0  0  0  0  0  0  0  0  0  0  0  0
   19.4549   20.0562   19.3166 H   0  0  0  0  0  0  0  0  0  0  0  0
   17.8865   20.5543   19.9801 H   0  0  0  0  0  0  0  0  0  0  0  0
   18.8244   18.9125   21.0786 C   0  0  0  0  0  0  0  0  0  0  0  0
   18.2379   18.1685   20.5219 H   0  0  0  0  0  0  0  0  0  0  0  0
   18.2712   19.0967   22.0091 H   0  0  0  0  0  0  0  0  0  0  0  0
   20.2165   18.3088   21.3937 C   0  0  0  0  0  0  0  0  0  0  0  0
   20.0808   17.3634   21.9354 H   0  0  0  0  0  0  0  0  0  0  0  0
   20.7067   18.0380   20.4485 H   0  0  0  0  0  0  0  0  0  0  0  0
   21.1706   19.2322   22.1982 C   0  0  0  0  0  0  0  0  0  0  0  0
   21.4454   20.0970   21.5797 H   0  0  0  0  0  0  0  0  0  0  0  0
   22.1094   18.6919   22.3817 H   0  0  0  0  0  0  0  0  0  0  0  0
   20.6111   19.7406   23.5516 C   0  0  0  0  0  0  0  0  0  0  0  0
   21.3663   20.3894   24.0164 H   0  0  0  0  0  0  0  0  0  0  0  0
   19.7346   20.3756   23.3706 H   0  0  0  0  0  0  0  0  0  0  0  0
   20.2533   18.5984   24.5362 C   0  0  0  0  0  0  0  0  0  0  0  0
   21.1186   17.9292   24.6324 H   0  0  0  0  0  0  0  0  0  0  0  0
   19.4312   17.9944   24.1319 H   0  0  0  0  0  0  0  0  0  0  0  0
   19.8645   19.1158   25.9376 C   0  0  2  0  0  0  0  0  0  0  0  0
   20.6870   19.7300   26.3169 H   0  0  0  0  0  0  0  0  0  0  0  0
   19.6558   17.9384   26.9033 C   0  0  0  0  0  0  0  0  0  0  0  0
   19.4152   18.3003   27.9105 H   0  0  0  0  0  0  0  0  0  0  0  0
   18.8364   17.2903   26.5679 H   0  0  0  0  0  0  0  0  0  0  0  0
   20.5652   17.3290   26.9771 H   0  0  0  0  0  0  0  0  0  0  0  0
   18.6448   19.9958   25.9073 N   0  3  0  0  0  0  0  0  0  0  0  0
   17.8269   19.4874   25.5611 H   0  0  0  0  0  0  0  0  0  0  0  0
   18.7852   20.8072   25.2993 H   0  0  0  0  0  0  0  0  0  0  0  0
   18.4150   20.3481   26.8409 H   0  0  0  0  0  0  0  0  0  0  0  0
  1  2  1  0  0  0  0
  1  3  1  0  0  0  0
  1  4  1  0  0  0  0
  1  5  1  0  0  0  0
  5  6  1  0  0  0  0
  5  7  1  0  0  0  0
  5  8  1  0  0  0  0
  8  9  1  0  0  0  0
  8 10  1  0  0  0  0
  8 11  1  0  0  0  0
 11 12  1  0  0  0  0
 11 13  1  0  0  0  0
 11 14  1  0  0  0  0
 14 15  1  0  0  0  0
 14 16  1  0  0  0  0
 14 17  1  0  0  0  0
 17 18  1  0  0  0  0
 17 19  1  0  0  0  0
 17 20  1  0  0  0  0
 20 21  1  0  0  0  0
 20 22  1  0  0  0  0
 22 23  1  0  0  0  0
 22 24  1  0  0  0  0
 22 25  1  0  0  0  0
 20 26  1  0  0  0  0
 26 27  1  0  0  0  0
 26 28  1  0  0  0  0
 26 29  1  0  0  0  0
M  END
> <VM2 Rank>
59

> <Conf_Id>
1201

> <Probability>
0.38

> <Sum Probability>
94.89

> <Delta G>
1.970

> <G>
35.672

> <E>
-2.499

> <-TS>
38.171

> <U+W>
-26.643

> <U>
26.015

> <W>
-52.659

> <W(PB)>
-55.102

> <W(SA)>
2.443

> <Valence>
4.552

> <Coulomb>
20.495

> <VdW>
0.968

> <VdW6>
-10.659

> <VdW12>
11.627

> <Bond>
0.311

> <Angle>
1.812

> <Pdih>
2.429

> <Idih>
0.000

> <Tether>
0.000

$$$$
VeraChem MOL file


 29 28  0  0  0  0  0  0  0  0999 V2000     
   19.0901   19.1741   19.3075 C   0  0  0  0  0  0  0  0  0  0  0  0
   18.8425   18.1375   19.5671 H   0  0  0  0  0  0  0  0  0  0  0  0
   18.1918   19.7889   19.4490 H   0  0  0  0  0  0  0  0  0  0  0  0
   19.3454   19.1938   18.2400 H   0  0  0  0  0  0  0  0  0  0  0  0
   20.2679   19.7075   20.1544 C   0  0  0  0  0  0  0  0  0  0  0  0
   20.5594   20.6947   19.7695 H   0  0  0  0  0  0  0  0  0  0  0  0
   21.1432   19.0560   20.0234 H   0  0  0  0  0  0  0  0  0  0  0  0
   19.9356   19.8420   21.6603 C   0  0  0  0  0  0  0  0  0  0  0  0
   20.7759   20.3531   22.1468 H   0  0  0  0  0  0  0  0  0  0  0  0
   19.0607   20.4945   21.7854 H   0  0  0  0  0  0  0  0  0  0  0  0
   19.6791   18.4822   22.3588 C   0  0  0  0  0  0  0  0  0  0  0  0
   20.5553   17.8308   22.2374 H   0  0  0  0  0  0  0  0  0  0  0  0
   18.8437   17.9712   21.8631 H   0  0  0  0  0  0  0  0  0  0  0  0
   19.3324   18.6122   23.8627 C   0  0  0  0  0  0  0  0  0  0  0  0
   18.4654   19.2761   23.9771 H   0  0  0  0  0  0  0  0  0  0  0  0
   19.0159   17.6242   24.2205 H   0  0  0  0  0  0  0  0  0  0  0  0
   20.5168   19.1217   24.7293 C   0  0  0  0  0  0  0  0  0  0  0  0
   20.8126   20.1241   24.3975 H   0  0  0  0  0  0  0  0  0  0  0  0
   21.3908   18.4776   24.5657 H   0  0  0  0  0  0  0  0  0  0  0  0
   20.2282   19.1924   26.2476 C   0  0  2  0  0  0  0  0  0  0  0  0
   21.1155   19.6175   26.7268 H   0  0  0  0  0  0  0  0  0  0  0  0
   19.9934   17.8007   26.8607 C   0  0  0  0  0  0  0  0  0  0  0  0
   19.0590   17.3513   26.5043 H   0  0  0  0  0  0  0  0  0  0  0  0
   20.8186   17.1213   26.6138 H   0  0  0  0  0  0  0  0  0  0  0  0
   19.9352   17.8690   27.9539 H   0  0  0  0  0  0  0  0  0  0  0  0
   19.0926   20.1231   26.5728 N   0  3  0  0  0  0  0  0  0  0  0  0
   18.2136   19.7903   26.1688 H   0  0  0  0  0  0  0  0  0  0  0  0
   19.2631   21.0648   26.2084 H   0  0  0  0  0  0  0  0  0  0  0  0
   18.9545   20.2060   27.5841 H   0  0  0  0  0  0  0  0  0  0  0  0
  1  2  1  0  0  0  0
  1  3  1  0  0  0  0
  1  4  1  0  0  0  0
  1  5  1  0  0  0  0
  5  6  1  0  0  0  0
  5  7  1  0  0  0  0
  5  8  1  0  0  0  0
  8  9  1  0  0  0  0
  8 10  1  0  0  0  0
  8 11  1  0  0  0  0
 11 12  1  0  0  0  0
 11 13  1  0  0  0  0
 11 14  1  0  0  0  0
 14 15  1  0  0  0  0
 14 16  1  0  0  0  0
 14 17  1  0  0  0  0
 17 18  1  0  0  0  0
 17 19  1  0  0  0  0
 17 20  1  0  0  0  0
 20 21  1  0  0  0  0
 20 22  1  0  0  0  0
 22 23  1  0  0  0  0
 22 24  1  0  0  0  0
 22 25  1  0  0  0  0
 20 26  1  0  0  0  0
 26 27  1  0  0  0  0
 26 28  1  0  0  0  0
 26 29  1  0  0  0  0
M  END
> <VM2 Rank>
60

> <Conf_Id>
946

> <Probability>
0.38

> <Sum Probability>
95.27

> <Delta G>
1.973

> <G>
35.675

> <E>
-1.955

> <-TS>
37.630

> <U+W>
-26.099

> <U>
26.189

> <W>
-52.288

> <W(PB)>
-54.798

> <W(SA)>
2.510

> <Valence>
4.871

> <Coulomb>
19.831

> <VdW>
1.486

> <VdW6>
-9.787

> <VdW12>
11.273

> <Bond>
0.320

> <Angle>
1.789

> <Pdih>
2.762

> <Idih>
0.000

> <Tether>
0.000

$$$$
VeraChem MOL file


 29 28  0  0  0  0  0  0  0  0999 V2000     
   20.2866   18.5943   19.8204 C   0  0  0  0  0  0  0  0  0  0  0  0
   19.9414   18.0306   18.9441 H   0  0  0  0  0  0  0  0  0  0  0  0
   21.1545   19.1929   19.5149 H   0  0  0  0  0  0  0  0  0  0  0  0
   20.6173   17.8667   20.5720 H   0  0  0  0  0  0  0  0  0  0  0  0
   19.1550   19.4949   20.3649 C   0  0  0  0  0  0  0  0  0  0  0  0
   18.3073   18.8738   20.6832 H   0  0  0  0  0  0  0  0  0  0  0  0
   18.7762   20.1209   19.5450 H   0  0  0  0  0  0  0  0  0  0  0  0
   19.6069   20.4211   21.5228 C   0  0  0  0  0  0  0  0  0  0  0  0
   20.3637   21.1201   21.1411 H   0  0  0  0  0  0  0  0  0  0  0  0
   18.7547   21.0413   21.8327 H   0  0  0  0  0  0  0  0  0  0  0  0
   20.1837   19.6983   22.7676 C   0  0  0  0  0  0  0  0  0  0  0  0
   20.4916   20.4663   23.4890 H   0  0  0  0  0  0  0  0  0  0  0  0
   21.0989   19.1566   22.4947 H   0  0  0  0  0  0  0  0  0  0  0  0
   19.1803   18.7267   23.4392 C   0  0  0  0  0  0  0  0  0  0  0  0
   18.2550   19.2618   23.6901 H   0  0  0  0  0  0  0  0  0  0  0  0
   18.8954   17.9442   22.7241 H   0  0  0  0  0  0  0  0  0  0  0  0
   19.7535   18.0331   24.7017 C   0  0  0  0  0  0  0  0  0  0  0  0
   20.6249   17.4322   24.4092 H   0  0  0  0  0  0  0  0  0  0  0  0
   19.0089   17.3246   25.0883 H   0  0  0  0  0  0  0  0  0  0  0  0
   20.1672   19.0036   25.8307 C   0  0  2  0  0  0  0  0  0  0  0  0
   20.9283   19.6848   25.4393 H   0  0  0  0  0  0  0  0  0  0  0  0
   20.7807   18.2262   27.0059 C   0  0  0  0  0  0  0  0  0  0  0  0
   21.6540   17.6489   26.6775 H   0  0  0  0  0  0  0  0  0  0  0  0
   21.1129   18.9128   27.7943 H   0  0  0  0  0  0  0  0  0  0  0  0
   20.0549   17.5291   27.4432 H   0  0  0  0  0  0  0  0  0  0  0  0
   19.0221   19.8578   26.3007 N   0  3  0  0  0  0  0  0  0  0  0  0
   18.6304   20.4082   25.5316 H   0  0  0  0  0  0  0  0  0  0  0  0
   19.3177   20.5131   27.0298 H   0  0  0  0  0  0  0  0  0  0  0  0
   18.2662   19.2869   26.6884 H   0  0  0  0  0  0  0  0  0  0  0  0
  1  2  1  0  0  0  0
  1  3  1  0  0  0  0
  1  4  1  0  0  0  0
  1  5  1  0  0  0  0
  5  6  1  0  0  0  0
  5  7  1  0  0  0  0
  5  8  1  0  0  0  0
  8  9  1  0  0  0  0
  8 10  1  0  0  0  0
  8 11  1  0  0  0  0
 11 12  1  0  0  0  0
 11 13  1  0  0  0  0
 11 14  1  0  0  0  0
 14 15  1  0  0  0  0
 14 16  1  0  0  0  0
 14 17  1  0  0  0  0
 17 18  1  0  0  0  0
 17 19  1  0  0  0  0
 17 20  1  0  0  0  0
 20 21  1  0  0  0  0
 20 22  1  0  0  0  0
 22 23  1  0  0  0  0
 22 24  1  0  0  0  0
 22 25  1  0  0  0  0
 20 26  1  0  0  0  0
 26 27  1  0  0  0  0
 26 28  1  0  0  0  0
 26 29  1  0  0  0  0
M  END
> <VM2 Rank>
61

> <Conf_Id>
1247

> <Probability>
0.37

> <Sum Probability>
95.64

> <Delta G>
1.984

> <G>
35.686

> <E>
-2.309

> <-TS>
37.996

> <U+W>
-26.454

> <U>
25.812

> <W>
-52.266

> <W(PB)>
-54.734

> <W(SA)>
2.468

> <Valence>
4.469

> <Coulomb>
20.262

> <VdW>
1.081

> <VdW6>
-10.395

> <VdW12>
11.476

> <Bond>
0.305

> <Angle>
1.804

> <Pdih>
2.359

> <Idih>
0.000

> <Tether>
0.000

$$$$
VeraChem MOL file


 29 28  0  0  0  0  0  0  0  0999 V2000     
   21.1727   20.0444   20.7710 C   0  0  0  0  0  0  0  0  0  0  0  0
   20.7881   21.0244   20.4601 H   0  0  0  0  0  0  0  0  0  0  0  0
   21.4396   20.1008   21.8334 H   0  0  0  0  0  0  0  0  0  0  0  0
   22.0952   19.8512   20.2083 H   0  0  0  0  0  0  0  0  0  0  0  0
   20.1341   18.9312   20.5062 C   0  0  0  0  0  0  0  0  0  0  0  0
   20.5326   17.9646   20.8421 H   0  0  0  0  0  0  0  0  0  0  0  0
   19.9883   18.8350   19.4213 H   0  0  0  0  0  0  0  0  0  0  0  0
   18.7580   19.2025   21.1660 C   0  0  0  0  0  0  0  0  0  0  0  0
   18.3286   20.1144   20.7289 H   0  0  0  0  0  0  0  0  0  0  0  0
   18.0703   18.3886   20.8982 H   0  0  0  0  0  0  0  0  0  0  0  0
   18.7830   19.3544   22.7086 C   0  0  0  0  0  0  0  0  0  0  0  0
   17.7607   19.5649   23.0515 H   0  0  0  0  0  0  0  0  0  0  0  0
   19.3812   20.2331   22.9813 H   0  0  0  0  0  0  0  0  0  0  0  0
   19.3118   18.0966   23.4425 C   0  0  0  0  0  0  0  0  0  0  0  0
   18.7578   17.2158   23.0902 H   0  0  0  0  0  0  0  0  0  0  0  0
   20.3624   17.9186   23.1811 H   0  0  0  0  0  0  0  0  0  0  0  0
   19.1651   18.1863   24.9833 C   0  0  0  0  0  0  0  0  0  0  0  0
   19.5429   17.2587   25.4333 H   0  0  0  0  0  0  0  0  0  0  0  0
   18.0955   18.2293   25.2275 H   0  0  0  0  0  0  0  0  0  0  0  0
   19.8723   19.3966   25.6376 C   0  0  2  0  0  0  0  0  0  0  0  0
   19.4885   20.3115   25.1768 H   0  0  0  0  0  0  0  0  0  0  0  0
   21.3977   19.3528   25.4378 C   0  0  0  0  0  0  0  0  0  0  0  0
   21.8236   18.4247   25.8388 H   0  0  0  0  0  0  0  0  0  0  0  0
   21.6622   19.4216   24.3764 H   0  0  0  0  0  0  0  0  0  0  0  0
   21.8787   20.1965   25.9478 H   0  0  0  0  0  0  0  0  0  0  0  0
   19.5412   19.4911   27.1010 N   0  3  0  0  0  0  0  0  0  0  0  0
   18.5314   19.5642   27.2552 H   0  0  0  0  0  0  0  0  0  0  0  0
   19.9754   20.3132   27.5305 H   0  0  0  0  0  0  0  0  0  0  0  0
   19.8719   18.6687   27.6129 H   0  0  0  0  0  0  0  0  0  0  0  0
  1  2  1  0  0  0  0
  1  3  1  0  0  0  0
  1  4  1  0  0  0  0
  1  5  1  0  0  0  0
  5  6  1  0  0  0  0
  5  7  1  0  0  0  0
  5  8  1  0  0  0  0
  8  9  1  0  0  0  0
  8 10  1  0  0  0  0
  8 11  1  0  0  0  0
 11 12  1  0  0  0  0
 11 13  1  0  0  0  0
 11 14  1  0  0  0  0
 14 15  1  0  0  0  0
 14 16  1  0  0  0  0
 14 17  1  0  0  0  0
 17 18  1  0  0  0  0
 17 19  1  0  0  0  0
 17 20  1  0  0  0  0
 20 21  1  0  0  0  0
 20 22  1  0  0  0  0
 22 23  1  0  0  0  0
 22 24  1  0  0  0  0
 22 25  1  0  0  0  0
 20 26  1  0  0  0  0
 26 27  1  0  0  0  0
 26 28  1  0  0  0  0
 26 29  1  0  0  0  0
M  END
> <VM2 Rank>
62

> <Conf_Id>
284

> <Probability>
0.36

> <Sum Probability>
96.00

> <Delta G>
2.004

> <G>
35.707

> <E>
-2.506

> <-TS>
38.212

> <U+W>
-26.650

> <U>
25.905

> <W>
-52.555

> <W(PB)>
-54.967

> <W(SA)>
2.412

> <Valence>
4.893

> <Coulomb>
20.129

> <VdW>
0.883

> <VdW6>
-10.962

> <VdW12>
11.845

> <Bond>
0.307

> <Angle>
2.002

> <Pdih>
2.583

> <Idih>
0.000

> <Tether>
0.000

$$$$
VeraChem MOL file


 29 28  0  0  0  0  0  0  0  0999 V2000     
   20.3681   20.7351   20.6175 C   0  0  0  0  0  0  0  0  0  0  0  0
   19.9153   21.4743   21.2909 H   0  0  0  0  0  0  0  0  0  0  0  0
   21.3520   20.4614   21.0183 H   0  0  0  0  0  0  0  0  0  0  0  0
   20.5308   21.2205   19.6466 H   0  0  0  0  0  0  0  0  0  0  0  0
   19.4563   19.4975   20.4572 C   0  0  0  0  0  0  0  0  0  0  0  0
   19.9435   18.7612   19.8028 H   0  0  0  0  0  0  0  0  0  0  0  0
   18.5332   19.8016   19.9443 H   0  0  0  0  0  0  0  0  0  0  0  0
   19.0810   18.8347   21.8041 C   0  0  0  0  0  0  0  0  0  0  0  0
   18.5754   19.5746   22.4384 H   0  0  0  0  0  0  0  0  0  0  0  0
   18.3491   18.0384   21.6108 H   0  0  0  0  0  0  0  0  0  0  0  0
   20.2975   18.2326   22.5513 C   0  0  0  0  0  0  0  0  0  0  0  0
   20.9990   19.0281   22.8324 H   0  0  0  0  0  0  0  0  0  0  0  0
   20.8462   17.5713   21.8668 H   0  0  0  0  0  0  0  0  0  0  0  0
   19.9045   17.4178   23.8103 C   0  0  0  0  0  0  0  0  0  0  0  0
   19.2941   16.5572   23.5040 H   0  0  0  0  0  0  0  0  0  0  0  0
   20.8128   16.9905   24.2556 H   0  0  0  0  0  0  0  0  0  0  0  0
   19.1283   18.2206   24.8888 C   0  0  0  0  0  0  0  0  0  0  0  0
   18.9616   17.5757   25.7617 H   0  0  0  0  0  0  0  0  0  0  0  0
   18.1303   18.4599   24.5003 H   0  0  0  0  0  0  0  0  0  0  0  0
   19.8141   19.5298   25.3444 C   0  0  2  0  0  0  0  0  0  0  0  0
   19.9868   20.1531   24.4619 H   0  0  0  0  0  0  0  0  0  0  0  0
   21.1676   19.2636   26.0266 C   0  0  0  0  0  0  0  0  0  0  0  0
   21.0506   18.6042   26.8956 H   0  0  0  0  0  0  0  0  0  0  0  0
   21.8769   18.7957   25.3341 H   0  0  0  0  0  0  0  0  0  0  0  0
   21.6187   20.2027   26.3700 H   0  0  0  0  0  0  0  0  0  0  0  0
   18.9186   20.3243   26.2538 N   0  3  0  0  0  0  0  0  0  0  0  0
   18.0268   20.5490   25.8034 H   0  0  0  0  0  0  0  0  0  0  0  0
   19.3541   21.2100   26.5270 H   0  0  0  0  0  0  0  0  0  0  0  0
   18.7083   19.8099   27.1134 H   0  0  0  0  0  0  0  0  0  0  0  0
  1  2  1  0  0  0  0
  1  3  1  0  0  0  0
  1  4  1  0  0  0  0
  1  5  1  0  0  0  0
  5  6  1  0  0  0  0
  5  7  1  0  0  0  0
  5  8  1  0  0  0  0
  8  9  1  0  0  0  0
  8 10  1  0  0  0  0
  8 11  1  0  0  0  0
 11 12  1  0  0  0  0
 11 13  1  0  0  0  0
 11 14  1  0  0  0  0
 14 15  1  0  0  0  0
 14 16  1  0  0  0  0
 14 17  1  0  0  0  0
 17 18  1  0  0  0  0
 17 19  1  0  0  0  0
 17 20  1  0  0  0  0
 20 21  1  0  0  0  0
 20 22  1  0  0  0  0
 22 23  1  0  0  0  0
 22 24  1  0  0  0  0
 22 25  1  0  0  0  0
 20 26  1  0  0  0  0
 26 27  1  0  0  0  0
 26 28  1  0  0  0  0
 26 29  1  0  0  0  0
M  END
> <VM2 Rank>
63

> <Conf_Id>
1228

> <Probability>
0.34

> <Sum Probability>
96.34

> <Delta G>
2.034

> <G>
35.737

> <E>
-2.371

> <-TS>
38.107

> <U+W>
-26.515

> <U>
26.272

> <W>
-52.788

> <W(PB)>
-55.204

> <W(SA)>
2.416

> <Valence>
4.867

> <Coulomb>
20.504

> <VdW>
0.902

> <VdW6>
-10.948

> <VdW12>
11.850

> <Bond>
0.308

> <Angle>
1.874

> <Pdih>
2.685

> <Idih>
0.000

> <Tether>
0.000

$$$$
VeraChem MOL file


 29 28  0  0  0  0  0  0  0  0999 V2000     
   19.3218   20.6436   19.9376 C   0  0  0  0  0  0  0  0  0  0  0  0
   18.3871   21.1786   19.7252 H   0  0  0  0  0  0  0  0  0  0  0  0
   20.0739   21.3849   20.2376 H   0  0  0  0  0  0  0  0  0  0  0  0
   19.6591   20.1718   19.0055 H   0  0  0  0  0  0  0  0  0  0  0  0
   19.1075   19.5917   21.0463 C   0  0  0  0  0  0  0  0  0  0  0  0
   18.3300   18.8821   20.7308 H   0  0  0  0  0  0  0  0  0  0  0  0
   18.7334   20.0956   21.9473 H   0  0  0  0  0  0  0  0  0  0  0  0
   20.4133   18.8270   21.3666 C   0  0  0  0  0  0  0  0  0  0  0  0
   20.8107   18.3960   20.4374 H   0  0  0  0  0  0  0  0  0  0  0  0
   21.1782   19.5301   21.7215 H   0  0  0  0  0  0  0  0  0  0  0  0
   20.2267   17.6800   22.3935 C   0  0  0  0  0  0  0  0  0  0  0  0
   21.1934   17.1793   22.5420 H   0  0  0  0  0  0  0  0  0  0  0  0
   19.5602   16.9217   21.9600 H   0  0  0  0  0  0  0  0  0  0  0  0
   19.6632   18.1044   23.7746 C   0  0  0  0  0  0  0  0  0  0  0  0
   18.6453   18.4955   23.6527 H   0  0  0  0  0  0  0  0  0  0  0  0
   19.5685   17.1998   24.3886 H   0  0  0  0  0  0  0  0  0  0  0  0
   20.5532   19.1422   24.5115 C   0  0  0  0  0  0  0  0  0  0  0  0
   20.6244   20.0570   23.9106 H   0  0  0  0  0  0  0  0  0  0  0  0
   21.5760   18.7514   24.5924 H   0  0  0  0  0  0  0  0  0  0  0  0
   20.0580   19.5392   25.9223 C   0  0  2  0  0  0  0  0  0  0  0  0
   20.7396   20.3071   26.3010 H   0  0  0  0  0  0  0  0  0  0  0  0
   20.0992   18.3575   26.9070 C   0  0  0  0  0  0  0  0  0  0  0  0
   21.0931   17.8933   26.9179 H   0  0  0  0  0  0  0  0  0  0  0  0
   19.8816   18.7006   27.9259 H   0  0  0  0  0  0  0  0  0  0  0  0
   19.3624   17.5875   26.6497 H   0  0  0  0  0  0  0  0  0  0  0  0
   18.6932   20.1703   25.8946 N   0  3  0  0  0  0  0  0  0  0  0  0
   18.4068   20.4820   26.8271 H   0  0  0  0  0  0  0  0  0  0  0  0
   17.9866   19.5102   25.5608 H   0  0  0  0  0  0  0  0  0  0  0  0
   18.6700   20.9873   25.2778 H   0  0  0  0  0  0  0  0  0  0  0  0
  1  2  1  0  0  0  0
  1  3  1  0  0  0  0
  1  4  1  0  0  0  0
  1  5  1  0  0  0  0
  5  6  1  0  0  0  0
  5  7  1  0  0  0  0
  5  8  1  0  0  0  0
  8  9  1  0  0  0  0
  8 10  1  0  0  0  0
  8 11  1  0  0  0  0
 11 12  1  0  0  0  0
 11 13  1  0  0  0  0
 11 14  1  0  0  0  0
 14 15  1  0  0  0  0
 14 16  1  0  0  0  0
 14 17  1  0  0  0  0
 17 18  1  0  0  0  0
 17 19  1  0  0  0  0
 17 20  1  0  0  0  0
 20 21  1  0  0  0  0
 20 22  1  0  0  0  0
 22 23  1  0  0  0  0
 22 24  1  0  0  0  0
 22 25  1  0  0  0  0
 20 26  1  0  0  0  0
 26 27  1  0  0  0  0
 26 28  1  0  0  0  0
 26 29  1  0  0  0  0
M  END
> <VM2 Rank>
64

> <Conf_Id>
1022

> <Probability>
0.34

> <Sum Probability>
96.67

> <Delta G>
2.043

> <G>
35.745

> <E>
-2.216

> <-TS>
37.961

> <U+W>
-26.361

> <U>
26.386

> <W>
-52.747

> <W(PB)>
-55.195

> <W(SA)>
2.448

> <Valence>
4.726

> <Coulomb>
20.483

> <VdW>
1.177

> <VdW6>
-10.349

> <VdW12>
11.526

> <Bond>
0.319

> <Angle>
1.933

> <Pdih>
2.474

> <Idih>
0.000

> <Tether>
0.000

$$$$
VeraChem MOL file


 29 28  0  0  0  0  0  0  0  0999 V2000     
   20.2370   19.5313   19.5739 C   0  0  0  0  0  0  0  0  0  0  0  0
   20.5161   20.2317   18.7761 H   0  0  0  0  0  0  0  0  0  0  0  0
   21.1312   18.9490   19.8280 H   0  0  0  0  0  0  0  0  0  0  0  0
   19.4822   18.8448   19.1689 H   0  0  0  0  0  0  0  0  0  0  0  0
   19.6901   20.2984   20.7992 C   0  0  0  0  0  0  0  0  0  0  0  0
   18.8798   20.9620   20.4664 H   0  0  0  0  0  0  0  0  0  0  0  0
   20.4741   20.9515   21.2072 H   0  0  0  0  0  0  0  0  0  0  0  0
   19.1457   19.3736   21.9146 C   0  0  0  0  0  0  0  0  0  0  0  0
   18.6637   20.0050   22.6719 H   0  0  0  0  0  0  0  0  0  0  0  0
   18.3590   18.7262   21.5034 H   0  0  0  0  0  0  0  0  0  0  0  0
   20.2406   18.5052   22.5843 C   0  0  0  0  0  0  0  0  0  0  0  0
   21.0327   19.1517   22.9845 H   0  0  0  0  0  0  0  0  0  0  0  0
   20.7199   17.8733   21.8256 H   0  0  0  0  0  0  0  0  0  0  0  0
   19.6975   17.5768   23.7014 C   0  0  0  0  0  0  0  0  0  0  0  0
   18.9772   16.8729   23.2624 H   0  0  0  0  0  0  0  0  0  0  0  0
   20.5216   16.9567   24.0787 H   0  0  0  0  0  0  0  0  0  0  0  0
   19.0182   18.3079   24.8908 C   0  0  0  0  0  0  0  0  0  0  0  0
   18.7428   17.5669   25.6529 H   0  0  0  0  0  0  0  0  0  0  0  0
   18.0722   18.7434   24.5450 H   0  0  0  0  0  0  0  0  0  0  0  0
   19.8716   19.4192   25.5450 C   0  0  2  0  0  0  0  0  0  0  0  0
   20.1507   20.1399   24.7706 H   0  0  0  0  0  0  0  0  0  0  0  0
   21.1581   18.8598   26.1779 C   0  0  0  0  0  0  0  0  0  0  0  0
   20.9292   18.0982   26.9337 H   0  0  0  0  0  0  0  0  0  0  0  0
   21.8094   18.4071   25.4212 H   0  0  0  0  0  0  0  0  0  0  0  0
   21.7298   19.6602   26.6633 H   0  0  0  0  0  0  0  0  0  0  0  0
   19.0772   20.1839   26.5669 N   0  3  0  0  0  0  0  0  0  0  0  0
   18.2366   20.6009   26.1568 H   0  0  0  0  0  0  0  0  0  0  0  0
   19.6273   20.9452   26.9750 H   0  0  0  0  0  0  0  0  0  0  0  0
   18.7767   19.5786   27.3357 H   0  0  0  0  0  0  0  0  0  0  0  0
  1  2  1  0  0  0  0
  1  3  1  0  0  0  0
  1  4  1  0  0  0  0
  1  5  1  0  0  0  0
  5  6  1  0  0  0  0
  5  7  1  0  0  0  0
  5  8  1  0  0  0  0
  8  9  1  0  0  0  0
  8 10  1  0  0  0  0
  8 11  1  0  0  0  0
 11 12  1  0  0  0  0
 11 13  1  0  0  0  0
 11 14  1  0  0  0  0
 14 15  1  0  0  0  0
 14 16  1  0  0  0  0
 14 17  1  0  0  0  0
 17 18  1  0  0  0  0
 17 19  1  0  0  0  0
 17 20  1  0  0  0  0
 20 21  1  0  0  0  0
 20 22  1  0  0  0  0
 22 23  1  0  0  0  0
 22 24  1  0  0  0  0
 22 25  1  0  0  0  0
 20 26  1  0  0  0  0
 26 27  1  0  0  0  0
 26 28  1  0  0  0  0
 26 29  1  0  0  0  0
M  END
> <VM2 Rank>
65

> <Conf_Id>
927

> <Probability>
0.27

> <Sum Probability>
96.95

> <Delta G>
2.168

> <G>
35.870

> <E>
-2.192

> <-TS>
38.062

> <U+W>
-26.336

> <U>
26.391

> <W>
-52.727

> <W(PB)>
-55.164

> <W(SA)>
2.436

> <Valence>
4.975

> <Coulomb>
20.373

> <VdW>
1.044

> <VdW6>
-10.751

> <VdW12>
11.795

> <Bond>
0.316

> <Angle>
1.997

> <Pdih>
2.662

> <Idih>
0.000

> <Tether>
0.000

$$$$
VeraChem MOL file


 29 28  0  0  0  0  0  0  0  0999 V2000     
   18.9463   20.2664   19.9134 C   0  0  0  0  0  0  0  0  0  0  0  0
   18.4084   21.0251   20.4967 H   0  0  0  0  0  0  0  0  0  0  0  0
   19.7809   20.7593   19.3980 H   0  0  0  0  0  0  0  0  0  0  0  0
   18.2599   19.8793   19.1492 H   0  0  0  0  0  0  0  0  0  0  0  0
   19.4509   19.1247   20.8210 C   0  0  0  0  0  0  0  0  0  0  0  0
   19.9576   18.3673   20.2069 H   0  0  0  0  0  0  0  0  0  0  0  0
   18.5876   18.6315   21.2869 H   0  0  0  0  0  0  0  0  0  0  0  0
   20.4186   19.6469   21.9087 C   0  0  0  0  0  0  0  0  0  0  0  0
   21.2395   20.1921   21.4229 H   0  0  0  0  0  0  0  0  0  0  0  0
   19.9033   20.3804   22.5425 H   0  0  0  0  0  0  0  0  0  0  0  0
   21.0301   18.5230   22.7843 C   0  0  0  0  0  0  0  0  0  0  0  0
   21.7484   18.9709   23.4840 H   0  0  0  0  0  0  0  0  0  0  0  0
   21.6213   17.8550   22.1429 H   0  0  0  0  0  0  0  0  0  0  0  0
   20.0038   17.6697   23.5772 C   0  0  0  0  0  0  0  0  0  0  0  0
   19.3941   17.0856   22.8752 H   0  0  0  0  0  0  0  0  0  0  0  0
   20.5485   16.9250   24.1725 H   0  0  0  0  0  0  0  0  0  0  0  0
   19.0612   18.4823   24.5047 C   0  0  0  0  0  0  0  0  0  0  0  0
   18.4182   17.7856   25.0585 H   0  0  0  0  0  0  0  0  0  0  0  0
   18.3850   19.0821   23.8823 H   0  0  0  0  0  0  0  0  0  0  0  0
   19.7813   19.4172   25.5042 C   0  0  2  0  0  0  0  0  0  0  0  0
   20.4331   20.0894   24.9385 H   0  0  0  0  0  0  0  0  0  0  0  0
   20.6436   18.6324   26.5086 C   0  0  0  0  0  0  0  0  0  0  0  0
   21.4479   18.0868   26.0014 H   0  0  0  0  0  0  0  0  0  0  0  0
   21.1153   19.3131   27.2279 H   0  0  0  0  0  0  0  0  0  0  0  0
   20.0391   17.9092   27.0700 H   0  0  0  0  0  0  0  0  0  0  0  0
   18.8001   20.2934   26.2320 N   0  3  0  0  0  0  0  0  0  0  0  0
   18.1493   19.7382   26.7941 H   0  0  0  0  0  0  0  0  0  0  0  0
   18.2433   20.8567   25.5829 H   0  0  0  0  0  0  0  0  0  0  0  0
   19.2762   20.9407   26.8668 H   0  0  0  0  0  0  0  0  0  0  0  0
  1  2  1  0  0  0  0
  1  3  1  0  0  0  0
  1  4  1  0  0  0  0
  1  5  1  0  0  0  0
  5  6  1  0  0  0  0
  5  7  1  0  0  0  0
  5  8  1  0  0  0  0
  8  9  1  0  0  0  0
  8 10  1  0  0  0  0
  8 11  1  0  0  0  0
 11 12  1  0  0  0  0
 11 13  1  0  0  0  0
 11 14  1  0  0  0  0
 14 15  1  0  0  0  0
 14 16  1  0  0  0  0
 14 17  1  0  0  0  0
 17 18  1  0  0  0  0
 17 19  1  0  0  0  0
 17 20  1  0  0  0  0
 20 21  1  0  0  0  0
 20 22  1  0  0  0  0
 22 23  1  0  0  0  0
 22 24  1  0  0  0  0
 22 25  1  0  0  0  0
 20 26  1  0  0  0  0
 26 27  1  0  0  0  0
 26 28  1  0  0  0  0
 26 29  1  0  0  0  0
M  END
> <VM2 Rank>
66

> <Conf_Id>
839

> <Probability>
0.27

> <Sum Probability>
97.22

> <Delta G>
2.177

> <G>
35.879

> <E>
-2.424

> <-TS>
38.303

> <U+W>
-26.569

> <U>
26.205

> <W>
-52.774

> <W(PB)>
-55.195

> <W(SA)>
2.421

> <Valence>
4.871

> <Coulomb>
20.548

> <VdW>
0.786

> <VdW6>
-11.159

> <VdW12>
11.945

> <Bond>
0.316

> <Angle>
2.038

> <Pdih>
2.517

> <Idih>
0.000

> <Tether>
0.000

$$$$
VeraChem MOL file


 29 28  0  0  0  0  0  0  0  0999 V2000     
   20.1690   18.1861   20.0852 C   0  0  0  0  0  0  0  0  0  0  0  0
   20.2328   18.8573   19.2190 H   0  0  0  0  0  0  0  0  0  0  0  0
   21.1412   18.1877   20.5936 H   0  0  0  0  0  0  0  0  0  0  0  0
   19.9929   17.1694   19.7107 H   0  0  0  0  0  0  0  0  0  0  0  0
   19.0314   18.6169   21.0380 C   0  0  0  0  0  0  0  0  0  0  0  0
   18.9947   17.9394   21.9016 H   0  0  0  0  0  0  0  0  0  0  0  0
   18.0703   18.4956   20.5191 H   0  0  0  0  0  0  0  0  0  0  0  0
   19.1533   20.0865   21.5148 C   0  0  0  0  0  0  0  0  0  0  0  0
   19.0842   20.7489   20.6410 H   0  0  0  0  0  0  0  0  0  0  0  0
   18.2838   20.3319   22.1389 H   0  0  0  0  0  0  0  0  0  0  0  0
   20.4558   20.4240   22.2893 C   0  0  0  0  0  0  0  0  0  0  0  0
   20.4184   21.4782   22.5961 H   0  0  0  0  0  0  0  0  0  0  0  0
   21.3135   20.3465   21.6080 H   0  0  0  0  0  0  0  0  0  0  0  0
   20.7259   19.5463   23.5383 C   0  0  0  0  0  0  0  0  0  0  0  0
   20.8770   18.5055   23.2259 H   0  0  0  0  0  0  0  0  0  0  0  0
   21.6734   19.8692   23.9913 H   0  0  0  0  0  0  0  0  0  0  0  0
   19.6026   19.6321   24.6031 C   0  0  0  0  0  0  0  0  0  0  0  0
   18.6723   19.2077   24.2045 H   0  0  0  0  0  0  0  0  0  0  0  0
   19.3997   20.6907   24.8119 H   0  0  0  0  0  0  0  0  0  0  0  0
   19.9555   18.9278   25.9326 C   0  0  2  0  0  0  0  0  0  0  0  0
   20.9061   19.3322   26.2938 H   0  0  0  0  0  0  0  0  0  0  0  0
   20.1074   17.4060   25.7583 C   0  0  0  0  0  0  0  0  0  0  0  0
   19.1963   16.9617   25.3385 H   0  0  0  0  0  0  0  0  0  0  0  0
   20.9457   17.1622   25.0956 H   0  0  0  0  0  0  0  0  0  0  0  0
   20.3069   16.9247   26.7237 H   0  0  0  0  0  0  0  0  0  0  0  0
   18.9351   19.2305   26.9944 N   0  3  0  0  0  0  0  0  0  0  0  0
   18.8483   20.2378   27.1575 H   0  0  0  0  0  0  0  0  0  0  0  0
   19.1858   18.7978   27.8880 H   0  0  0  0  0  0  0  0  0  0  0  0
   18.0093   18.8798   26.7342 H   0  0  0  0  0  0  0  0  0  0  0  0
  1  2  1  0  0  0  0
  1  3  1  0  0  0  0
  1  4  1  0  0  0  0
  1  5  1  0  0  0  0
  5  6  1  0  0  0  0
  5  7  1  0  0  0  0
  5  8  1  0  0  0  0
  8  9  1  0  0  0  0
  8 10  1  0  0  0  0
  8 11  1  0  0  0  0
 11 12  1  0  0  0  0
 11 13  1  0  0  0  0
 11 14  1  0  0  0  0
 14 15  1  0  0  0  0
 14 16  1  0  0  0  0
 14 17  1  0  0  0  0
 17 18  1  0  0  0  0
 17 19  1  0  0  0  0
 17 20  1  0  0  0  0
 20 21  1  0  0  0  0
 20 22  1  0  0  0  0
 22 23  1  0  0  0  0
 22 24  1  0  0  0  0
 22 25  1  0  0  0  0
 20 26  1  0  0  0  0
 26 27  1  0  0  0  0
 26 28  1  0  0  0  0
 26 29  1  0  0  0  0
M  END
> <VM2 Rank>
67

> <Conf_Id>
138

> <Probability>
0.26

> <Sum Probability>
97.48

> <Delta G>
2.187

> <G>
35.889

> <E>
-2.306

> <-TS>
38.195

> <U+W>
-26.451

> <U>
26.061

> <W>
-52.512

> <W(PB)>
-54.927

> <W(SA)>
2.416

> <Valence>
5.062

> <Coulomb>
19.918

> <VdW>
1.081

> <VdW6>
-10.858

> <VdW12>
11.938

> <Bond>
0.323

> <Angle>
2.057

> <Pdih>
2.682

> <Idih>
0.000

> <Tether>
0.000

$$$$
VeraChem MOL file


 29 28  0  0  0  0  0  0  0  0999 V2000     
   18.9690   18.3290   20.1947 C   0  0  0  0  0  0  0  0  0  0  0  0
   18.1025   18.5138   20.8416 H   0  0  0  0  0  0  0  0  0  0  0  0
   18.9190   19.0236   19.3462 H   0  0  0  0  0  0  0  0  0  0  0  0
   18.8763   17.3089   19.8002 H   0  0  0  0  0  0  0  0  0  0  0  0
   20.2972   18.4922   20.9675 C   0  0  0  0  0  0  0  0  0  0  0  0
   21.1270   18.1937   20.3118 H   0  0  0  0  0  0  0  0  0  0  0  0
   20.3197   17.7965   21.8169 H   0  0  0  0  0  0  0  0  0  0  0  0
   20.5495   19.9415   21.4551 C   0  0  0  0  0  0  0  0  0  0  0  0
   21.5323   19.9878   21.9423 H   0  0  0  0  0  0  0  0  0  0  0  0
   20.6247   20.6011   20.5798 H   0  0  0  0  0  0  0  0  0  0  0  0
   19.4704   20.5136   22.4136 C   0  0  0  0  0  0  0  0  0  0  0  0
   18.5274   20.6365   21.8644 H   0  0  0  0  0  0  0  0  0  0  0  0
   19.7697   21.5271   22.7140 H   0  0  0  0  0  0  0  0  0  0  0  0
   19.2023   19.6709   23.6869 C   0  0  0  0  0  0  0  0  0  0  0  0
   18.4091   20.1666   24.2614 H   0  0  0  0  0  0  0  0  0  0  0  0
   18.8014   18.6913   23.3979 H   0  0  0  0  0  0  0  0  0  0  0  0
   20.4589   19.4952   24.5822 C   0  0  0  0  0  0  0  0  0  0  0  0
   20.8898   20.4819   24.7964 H   0  0  0  0  0  0  0  0  0  0  0  0
   21.2295   18.9404   24.0326 H   0  0  0  0  0  0  0  0  0  0  0  0
   20.2037   18.7690   25.9238 C   0  0  2  0  0  0  0  0  0  0  0  0
   21.1576   18.7300   26.4589 H   0  0  0  0  0  0  0  0  0  0  0  0
   19.7279   17.3208   25.7145 C   0  0  0  0  0  0  0  0  0  0  0  0
   18.7281   17.2832   25.2661 H   0  0  0  0  0  0  0  0  0  0  0  0
   20.4189   16.7739   25.0611 H   0  0  0  0  0  0  0  0  0  0  0  0
   19.6853   16.7889   26.6729 H   0  0  0  0  0  0  0  0  0  0  0  0
   19.2570   19.5240   26.8157 N   0  3  0  0  0  0  0  0  0  0  0  0
   19.1487   19.0615   27.7229 H   0  0  0  0  0  0  0  0  0  0  0  0
   18.3276   19.5955   26.3943 H   0  0  0  0  0  0  0  0  0  0  0  0
   19.5891   20.4760   26.9947 H   0  0  0  0  0  0  0  0  0  0  0  0
  1  2  1  0  0  0  0
  1  3  1  0  0  0  0
  1  4  1  0  0  0  0
  1  5  1  0  0  0  0
  5  6  1  0  0  0  0
  5  7  1  0  0  0  0
  5  8  1  0  0  0  0
  8  9  1  0  0  0  0
  8 10  1  0  0  0  0
  8 11  1  0  0  0  0
 11 12  1  0  0  0  0
 11 13  1  0  0  0  0
 11 14  1  0  0  0  0
 14 15  1  0  0  0  0
 14 16  1  0  0  0  0
 14 17  1  0  0  0  0
 17 18  1  0  0  0  0
 17 19  1  0  0  0  0
 17 20  1  0  0  0  0
 20 21  1  0  0  0  0
 20 22  1  0  0  0  0
 22 23  1  0  0  0  0
 22 24  1  0  0  0  0
 22 25  1  0  0  0  0
 20 26  1  0  0  0  0
 26 27  1  0  0  0  0
 26 28  1  0  0  0  0
 26 29  1  0  0  0  0
M  END
> <VM2 Rank>
68

> <Conf_Id>
203

> <Probability>
0.23

> <Sum Probability>
97.71

> <Delta G>
2.281

> <G>
35.983

> <E>
-2.346

> <-TS>
38.329

> <U+W>
-26.491

> <U>
26.082

> <W>
-52.573

> <W(PB)>
-54.969

> <W(SA)>
2.396

> <Valence>
5.054

> <Coulomb>
19.931

> <VdW>
1.097

> <VdW6>
-11.342

> <VdW12>
12.439

> <Bond>
0.355

> <Angle>
2.147

> <Pdih>
2.552

> <Idih>
0.000

> <Tether>
0.000

$$$$
VeraChem MOL file


 29 28  0  0  0  0  0  0  0  0999 V2000     
   20.5014   20.1300   20.0753 C   0  0  0  0  0  0  0  0  0  0  0  0
   20.6681   21.1621   19.7410 H   0  0  0  0  0  0  0  0  0  0  0  0
   21.4065   19.8022   20.6016 H   0  0  0  0  0  0  0  0  0  0  0  0
   20.3767   19.5033   19.1828 H   0  0  0  0  0  0  0  0  0  0  0  0
   19.2564   20.0505   20.9872 C   0  0  0  0  0  0  0  0  0  0  0  0
   18.3997   20.4869   20.4550 H   0  0  0  0  0  0  0  0  0  0  0  0
   19.4079   20.6756   21.8773 H   0  0  0  0  0  0  0  0  0  0  0  0
   18.8934   18.6030   21.4049 C   0  0  0  0  0  0  0  0  0  0  0  0
   17.9704   18.6235   21.9990 H   0  0  0  0  0  0  0  0  0  0  0  0
   18.6475   18.0261   20.5029 H   0  0  0  0  0  0  0  0  0  0  0  0
   19.9979   17.8446   22.1896 C   0  0  0  0  0  0  0  0  0  0  0  0
   20.8506   17.6600   21.5227 H   0  0  0  0  0  0  0  0  0  0  0  0
   19.6163   16.8506   22.4603 H   0  0  0  0  0  0  0  0  0  0  0  0
   20.5109   18.5511   23.4714 C   0  0  0  0  0  0  0  0  0  0  0  0
   21.3079   17.9290   23.8981 H   0  0  0  0  0  0  0  0  0  0  0  0
   20.9808   19.5082   23.2092 H   0  0  0  0  0  0  0  0  0  0  0  0
   19.4062   18.7828   24.5347 C   0  0  0  0  0  0  0  0  0  0  0  0
   18.9530   17.8224   24.8137 H   0  0  0  0  0  0  0  0  0  0  0  0
   18.6065   19.3883   24.0912 H   0  0  0  0  0  0  0  0  0  0  0  0
   19.9065   19.5107   25.8035 C   0  0  2  0  0  0  0  0  0  0  0  0
   20.4052   20.4347   25.4951 H   0  0  0  0  0  0  0  0  0  0  0  0
   20.9069   18.6607   26.6074 C   0  0  0  0  0  0  0  0  0  0  0  0
   21.1970   19.1766   27.5310 H   0  0  0  0  0  0  0  0  0  0  0  0
   20.4732   17.6910   26.8817 H   0  0  0  0  0  0  0  0  0  0  0  0
   21.8253   18.4783   26.0378 H   0  0  0  0  0  0  0  0  0  0  0  0
   18.7563   19.9226   26.6799 N   0  3  0  0  0  0  0  0  0  0  0  0
   18.0983   20.5272   26.1796 H   0  0  0  0  0  0  0  0  0  0  0  0
   19.0796   20.4394   27.5027 H   0  0  0  0  0  0  0  0  0  0  0  0
   18.2329   19.1096   27.0161 H   0  0  0  0  0  0  0  0  0  0  0  0
  1  2  1  0  0  0  0
  1  3  1  0  0  0  0
  1  4  1  0  0  0  0
  1  5  1  0  0  0  0
  5  6  1  0  0  0  0
  5  7  1  0  0  0  0
  5  8  1  0  0  0  0
  8  9  1  0  0  0  0
  8 10  1  0  0  0  0
  8 11  1  0  0  0  0
 11 12  1  0  0  0  0
 11 13  1  0  0  0  0
 11 14  1  0  0  0  0
 14 15  1  0  0  0  0
 14 16  1  0  0  0  0
 14 17  1  0  0  0  0
 17 18  1  0  0  0  0
 17 19  1  0  0  0  0
 17 20  1  0  0  0  0
 20 21  1  0  0  0  0
 20 22  1  0  0  0  0
 22 23  1  0  0  0  0
 22 24  1  0  0  0  0
 22 25  1  0  0  0  0
 20 26  1  0  0  0  0
 26 27  1  0  0  0  0
 26 28  1  0  0  0  0
 26 29  1  0  0  0  0
M  END
> <VM2 Rank>
69

> <Conf_Id>
159

> <Probability>
0.19

> <Sum Probability>
97.89

> <Delta G>
2.392

> <G>
36.094

> <E>
-2.044

> <-TS>
38.138

> <U+W>
-26.188

> <U>
26.466

> <W>
-52.654

> <W(PB)>
-55.087

> <W(SA)>
2.432

> <Valence>
5.199

> <Coulomb>
20.030

> <VdW>
1.237

> <VdW6>
-10.692

> <VdW12>
11.929

> <Bond>
0.334

> <Angle>
2.222

> <Pdih>
2.643

> <Idih>
0.000

> <Tether>
0.000

$$$$
VeraChem MOL file


 29 28  0  0  0  0  0  0  0  0999 V2000     
   19.3668   19.1964   19.7879 C   0  0  0  0  0  0  0  0  0  0  0  0
   19.7743   20.1075   19.3309 H   0  0  0  0  0  0  0  0  0  0  0  0
   19.2237   18.4554   18.9909 H   0  0  0  0  0  0  0  0  0  0  0  0
   18.3785   19.4317   20.2020 H   0  0  0  0  0  0  0  0  0  0  0  0
   20.3189   18.6466   20.8737 C   0  0  0  0  0  0  0  0  0  0  0  0
   21.2524   18.3215   20.3937 H   0  0  0  0  0  0  0  0  0  0  0  0
   19.8831   17.7459   21.3261 H   0  0  0  0  0  0  0  0  0  0  0  0
   20.6637   19.6850   21.9713 C   0  0  0  0  0  0  0  0  0  0  0  0
   21.3897   19.2418   22.6656 H   0  0  0  0  0  0  0  0  0  0  0  0
   21.1827   20.5335   21.5046 H   0  0  0  0  0  0  0  0  0  0  0  0
   19.4486   20.2273   22.7706 C   0  0  0  0  0  0  0  0  0  0  0  0
   18.8002   20.8035   22.0973 H   0  0  0  0  0  0  0  0  0  0  0  0
   19.8110   20.9523   23.5113 H   0  0  0  0  0  0  0  0  0  0  0  0
   18.5936   19.1452   23.4832 C   0  0  0  0  0  0  0  0  0  0  0  0
   17.7731   19.6399   24.0198 H   0  0  0  0  0  0  0  0  0  0  0  0
   18.1063   18.5116   22.7302 H   0  0  0  0  0  0  0  0  0  0  0  0
   19.3808   18.2400   24.4677 C   0  0  0  0  0  0  0  0  0  0  0  0
   20.0880   17.6214   23.9006 H   0  0  0  0  0  0  0  0  0  0  0  0
   18.6827   17.5389   24.9440 H   0  0  0  0  0  0  0  0  0  0  0  0
   20.1500   19.0164   25.5591 C   0  0  2  0  0  0  0  0  0  0  0  0
   20.8394   19.7089   25.0671 H   0  0  0  0  0  0  0  0  0  0  0  0
   20.9755   18.0501   26.4229 C   0  0  0  0  0  0  0  0  0  0  0  0
   21.5532   18.5997   27.1762 H   0  0  0  0  0  0  0  0  0  0  0  0
   20.3294   17.3325   26.9440 H   0  0  0  0  0  0  0  0  0  0  0  0
   21.6853   17.4853   25.8057 H   0  0  0  0  0  0  0  0  0  0  0  0
   19.2382   19.8490   26.4177 N   0  3  0  0  0  0  0  0  0  0  0  0
   18.7070   20.5180   25.8538 H   0  0  0  0  0  0  0  0  0  0  0  0
   19.7640   20.3823   27.1160 H   0  0  0  0  0  0  0  0  0  0  0  0
   18.5644   19.2651   26.9201 H   0  0  0  0  0  0  0  0  0  0  0  0
  1  2  1  0  0  0  0
  1  3  1  0  0  0  0
  1  4  1  0  0  0  0
  1  5  1  0  0  0  0
  5  6  1  0  0  0  0
  5  7  1  0  0  0  0
  5  8  1  0  0  0  0
  8  9  1  0  0  0  0
  8 10  1  0  0  0  0
  8 11  1  0  0  0  0
 11 12  1  0  0  0  0
 11 13  1  0  0  0  0
 11 14  1  0  0  0  0
 14 15  1  0  0  0  0
 14 16  1  0  0  0  0
 14 17  1  0  0  0  0
 17 18  1  0  0  0  0
 17 19  1  0  0  0  0
 17 20  1  0  0  0  0
 20 21  1  0  0  0  0
 20 22  1  0  0  0  0
 22 23  1  0  0  0  0
 22 24  1  0  0  0  0
 22 25  1  0  0  0  0
 20 26  1  0  0  0  0
 26 27  1  0  0  0  0
 26 28  1  0  0  0  0
 26 29  1  0  0  0  0
M  END
> <VM2 Rank>
70

> <Conf_Id>
182

> <Probability>
0.17

> <Sum Probability>
98.07

> <Delta G>
2.438

> <G>
36.140

> <E>
-2.351

> <-TS>
38.491

> <U+W>
-26.495

> <U>
25.928

> <W>
-52.423

> <W(PB)>
-54.828

> <W(SA)>
2.405

> <Valence>
4.806

> <Coulomb>
20.407

> <VdW>
0.715

> <VdW6>
-11.781

> <VdW12>
12.496

> <Bond>
0.347

> <Angle>
2.053

> <Pdih>
2.406

> <Idih>
0.000

> <Tether>
0.000

$$$$
VeraChem MOL file


 29 28  0  0  0  0  0  0  0  0999 V2000     
   19.2036   20.8701   20.9114 C   0  0  0  0  0  0  0  0  0  0  0  0
   20.1180   21.3571   20.5485 H   0  0  0  0  0  0  0  0  0  0  0  0
   18.3471   21.3723   20.4434 H   0  0  0  0  0  0  0  0  0  0  0  0
   19.1325   21.0350   21.9932 H   0  0  0  0  0  0  0  0  0  0  0  0
   19.2030   19.3640   20.5655 C   0  0  0  0  0  0  0  0  0  0  0  0
   19.1590   19.2529   19.4731 H   0  0  0  0  0  0  0  0  0  0  0  0
   18.2882   18.8947   20.9513 H   0  0  0  0  0  0  0  0  0  0  0  0
   20.4536   18.6112   21.0867 C   0  0  0  0  0  0  0  0  0  0  0  0
   20.3955   17.5623   20.7647 H   0  0  0  0  0  0  0  0  0  0  0  0
   21.3462   19.0261   20.5987 H   0  0  0  0  0  0  0  0  0  0  0  0
   20.6600   18.6565   22.6224 C   0  0  0  0  0  0  0  0  0  0  0  0
   20.8255   19.6937   22.9401 H   0  0  0  0  0  0  0  0  0  0  0  0
   21.5855   18.1153   22.8623 H   0  0  0  0  0  0  0  0  0  0  0  0
   19.4891   18.0281   23.4193 C   0  0  0  0  0  0  0  0  0  0  0  0
   18.5681   18.6016   23.2556 H   0  0  0  0  0  0  0  0  0  0  0  0
   19.2929   17.0187   23.0324 H   0  0  0  0  0  0  0  0  0  0  0  0
   19.7755   17.9262   24.9392 C   0  0  0  0  0  0  0  0  0  0  0  0
   20.6399   17.2665   25.0926 H   0  0  0  0  0  0  0  0  0  0  0  0
   18.9251   17.4365   25.4322 H   0  0  0  0  0  0  0  0  0  0  0  0
   20.0502   19.2843   25.6227 C   0  0  2  0  0  0  0  0  0  0  0  0
   20.9077   19.7514   25.1295 H   0  0  0  0  0  0  0  0  0  0  0  0
   20.4043   19.0763   27.1036 C   0  0  0  0  0  0  0  0  0  0  0  0
   20.6382   20.0338   27.5851 H   0  0  0  0  0  0  0  0  0  0  0  0
   19.5729   18.6131   27.6495 H   0  0  0  0  0  0  0  0  0  0  0  0
   21.2838   18.4284   27.2064 H   0  0  0  0  0  0  0  0  0  0  0  0
   18.8967   20.2393   25.4831 N   0  3  0  0  0  0  0  0  0  0  0  0
   18.6725   20.4079   24.4988 H   0  0  0  0  0  0  0  0  0  0  0  0
   19.1060   21.1450   25.9130 H   0  0  0  0  0  0  0  0  0  0  0  0
   18.0542   19.8728   25.9342 H   0  0  0  0  0  0  0  0  0  0  0  0
  1  2  1  0  0  0  0
  1  3  1  0  0  0  0
  1  4  1  0  0  0  0
  1  5  1  0  0  0  0
  5  6  1  0  0  0  0
  5  7  1  0  0  0  0
  5  8  1  0  0  0  0
  8  9  1  0  0  0  0
  8 10  1  0  0  0  0
  8 11  1  0  0  0  0
 11 12  1  0  0  0  0
 11 13  1  0  0  0  0
 11 14  1  0  0  0  0
 14 15  1  0  0  0  0
 14 16  1  0  0  0  0
 14 17  1  0  0  0  0
 17 18  1  0  0  0  0
 17 19  1  0  0  0  0
 17 20  1  0  0  0  0
 20 21  1  0  0  0  0
 20 22  1  0  0  0  0
 22 23  1  0  0  0  0
 22 24  1  0  0  0  0
 22 25  1  0  0  0  0
 20 26  1  0  0  0  0
 26 27  1  0  0  0  0
 26 28  1  0  0  0  0
 26 29  1  0  0  0  0
M  END
> <VM2 Rank>
71

> <Conf_Id>
276

> <Probability>
0.17

> <Sum Probability>
98.23

> <Delta G>
2.463

> <G>
36.165

> <E>
-1.827

> <-TS>
37.992

> <U+W>
-25.971

> <U>
26.280

> <W>
-52.252

> <W(PB)>
-54.676

> <W(SA)>
2.424

> <Valence>
4.387

> <Coulomb>
21.061

> <VdW>
0.832

> <VdW6>
-10.644

> <VdW12>
11.476

> <Bond>
0.296

> <Angle>
1.681

> <Pdih>
2.411

> <Idih>
0.000

> <Tether>
0.000

$$$$
VeraChem MOL file


 29 28  0  0  0  0  0  0  0  0999 V2000     
   19.3102   19.9825   19.0027 C   0  0  0  0  0  0  0  0  0  0  0  0
   18.4686   19.9102   18.3016 H   0  0  0  0  0  0  0  0  0  0  0  0
   19.5683   21.0441   19.1112 H   0  0  0  0  0  0  0  0  0  0  0  0
   20.1685   19.4661   18.5534 H   0  0  0  0  0  0  0  0  0  0  0  0
   18.9395   19.3599   20.3653 C   0  0  0  0  0  0  0  0  0  0  0  0
   18.6539   18.3085   20.2200 H   0  0  0  0  0  0  0  0  0  0  0  0
   18.0582   19.8744   20.7732 H   0  0  0  0  0  0  0  0  0  0  0  0
   20.1083   19.4486   21.3713 C   0  0  0  0  0  0  0  0  0  0  0  0
   20.9872   18.9356   20.9568 H   0  0  0  0  0  0  0  0  0  0  0  0
   20.3915   20.5009   21.5116 H   0  0  0  0  0  0  0  0  0  0  0  0
   19.7416   18.8254   22.7371 C   0  0  0  0  0  0  0  0  0  0  0  0
   19.4636   17.7722   22.5926 H   0  0  0  0  0  0  0  0  0  0  0  0
   18.8554   19.3336   23.1326 H   0  0  0  0  0  0  0  0  0  0  0  0
   20.9186   18.9137   23.7398 C   0  0  0  0  0  0  0  0  0  0  0  0
   21.7869   18.4135   23.2888 H   0  0  0  0  0  0  0  0  0  0  0  0
   21.2167   19.9607   23.8897 H   0  0  0  0  0  0  0  0  0  0  0  0
   20.6343   18.2427   25.1096 C   0  0  0  0  0  0  0  0  0  0  0  0
   21.5963   17.9107   25.5223 H   0  0  0  0  0  0  0  0  0  0  0  0
   20.0362   17.3321   24.9720 H   0  0  0  0  0  0  0  0  0  0  0  0
   19.9710   19.1707   26.1543 C   0  0  2  0  0  0  0  0  0  0  0  0
   20.5915   20.0663   26.2565 H   0  0  0  0  0  0  0  0  0  0  0  0
   19.9105   18.4714   27.5219 C   0  0  0  0  0  0  0  0  0  0  0  0
   19.2976   17.5624   27.4760 H   0  0  0  0  0  0  0  0  0  0  0  0
   20.9150   18.1893   27.8613 H   0  0  0  0  0  0  0  0  0  0  0  0
   19.4788   19.1367   28.2798 H   0  0  0  0  0  0  0  0  0  0  0  0
   18.6021   19.6411   25.7520 N   0  3  0  0  0  0  0  0  0  0  0  0
   17.9608   18.8540   25.6235 H   0  0  0  0  0  0  0  0  0  0  0  0
   18.6360   20.1637   24.8729 H   0  0  0  0  0  0  0  0  0  0  0  0
   18.1955   20.2579   26.4612 H   0  0  0  0  0  0  0  0  0  0  0  0
  1  2  1  0  0  0  0
  1  3  1  0  0  0  0
  1  4  1  0  0  0  0
  1  5  1  0  0  0  0
  5  6  1  0  0  0  0
  5  7  1  0  0  0  0
  5  8  1  0  0  0  0
  8  9  1  0  0  0  0
  8 10  1  0  0  0  0
  8 11  1  0  0  0  0
 11 12  1  0  0  0  0
 11 13  1  0  0  0  0
 11 14  1  0  0  0  0
 14 15  1  0  0  0  0
 14 16  1  0  0  0  0
 14 17  1  0  0  0  0
 17 18  1  0  0  0  0
 17 19  1  0  0  0  0
 17 20  1  0  0  0  0
 20 21  1  0  0  0  0
 20 22  1  0  0  0  0
 22 23  1  0  0  0  0
 22 24  1  0  0  0  0
 22 25  1  0  0  0  0
 20 26  1  0  0  0  0
 26 27  1  0  0  0  0
 26 28  1  0  0  0  0
 26 29  1  0  0  0  0
M  END
> <VM2 Rank>
72

> <Conf_Id>
1307

> <Probability>
0.13

> <Sum Probability>
98.36

> <Delta G>
2.614

> <G>
36.316

> <E>
-0.878

> <-TS>
37.193

> <U+W>
-25.022

> <U>
27.084

> <W>
-52.106

> <W(PB)>
-54.623

> <W(SA)>
2.517

> <Valence>
5.156

> <Coulomb>
20.851

> <VdW>
1.077

> <VdW6>
-8.818

> <VdW12>
9.894

> <Bond>
0.258

> <Angle>
1.436

> <Pdih>
3.462

> <Idih>
0.000

> <Tether>
0.000

$$$$
VeraChem MOL file


 29 28  0  0  0  0  0  0  0  0999 V2000     
   19.6332   18.9835   19.7668 C   0  0  0  0  0  0  0  0  0  0  0  0
   18.8563   18.8041   19.0126 H   0  0  0  0  0  0  0  0  0  0  0  0
   20.4451   19.5448   19.2865 H   0  0  0  0  0  0  0  0  0  0  0  0
   20.0261   18.0069   20.0758 H   0  0  0  0  0  0  0  0  0  0  0  0
   19.0526   19.7651   20.9668 C   0  0  0  0  0  0  0  0  0  0  0  0
   18.2545   19.1776   21.4395 H   0  0  0  0  0  0  0  0  0  0  0  0
   18.5726   20.6805   20.5936 H   0  0  0  0  0  0  0  0  0  0  0  0
   20.1212   20.1611   22.0170 C   0  0  0  0  0  0  0  0  0  0  0  0
   20.8556   20.8252   21.5411 H   0  0  0  0  0  0  0  0  0  0  0  0
   19.6440   20.7636   22.8010 H   0  0  0  0  0  0  0  0  0  0  0  0
   20.8780   18.9721   22.6677 C   0  0  0  0  0  0  0  0  0  0  0  0
   21.6072   19.3697   23.3861 H   0  0  0  0  0  0  0  0  0  0  0  0
   21.4771   18.4613   21.9023 H   0  0  0  0  0  0  0  0  0  0  0  0
   19.9761   17.9266   23.3766 C   0  0  0  0  0  0  0  0  0  0  0  0
   19.3499   17.4196   22.6306 H   0  0  0  0  0  0  0  0  0  0  0  0
   20.6130   17.1392   23.8007 H   0  0  0  0  0  0  0  0  0  0  0  0
   19.0617   18.5061   24.4891 C   0  0  0  0  0  0  0  0  0  0  0  0
   18.5075   17.6833   24.9596 H   0  0  0  0  0  0  0  0  0  0  0  0
   18.3041   19.1491   24.0237 H   0  0  0  0  0  0  0  0  0  0  0  0
   19.7997   19.3150   25.5811 C   0  0  2  0  0  0  0  0  0  0  0  0
   20.3614   20.1178   25.0945 H   0  0  0  0  0  0  0  0  0  0  0  0
   20.7863   18.4424   26.3771 C   0  0  0  0  0  0  0  0  0  0  0  0
   20.2747   17.5932   26.8468 H   0  0  0  0  0  0  0  0  0  0  0  0
   21.5807   18.0501   25.7315 H   0  0  0  0  0  0  0  0  0  0  0  0
   21.2697   19.0288   27.1682 H   0  0  0  0  0  0  0  0  0  0  0  0
   18.8270   19.9841   26.5118 N   0  3  0  0  0  0  0  0  0  0  0  0
   19.3110   20.5520   27.2132 H   0  0  0  0  0  0  0  0  0  0  0  0
   18.2586   19.2973   27.0146 H   0  0  0  0  0  0  0  0  0  0  0  0
   18.1866   20.6034   26.0069 H   0  0  0  0  0  0  0  0  0  0  0  0
  1  2  1  0  0  0  0
  1  3  1  0  0  0  0
  1  4  1  0  0  0  0
  1  5  1  0  0  0  0
  5  6  1  0  0  0  0
  5  7  1  0  0  0  0
  5  8  1  0  0  0  0
  8  9  1  0  0  0  0
  8 10  1  0  0  0  0
  8 11  1  0  0  0  0
 11 12  1  0  0  0  0
 11 13  1  0  0  0  0
 11 14  1  0  0  0  0
 14 15  1  0  0  0  0
 14 16  1  0  0  0  0
 14 17  1  0  0  0  0
 17 18  1  0  0  0  0
 17 19  1  0  0  0  0
 17 20  1  0  0  0  0
 20 21  1  0  0  0  0
 20 22  1  0  0  0  0
 22 23  1  0  0  0  0
 22 24  1  0  0  0  0
 22 25  1  0  0  0  0
 20 26  1  0  0  0  0
 26 27  1  0  0  0  0
 26 28  1  0  0  0  0
 26 29  1  0  0  0  0
M  END
> <VM2 Rank>
73

> <Conf_Id>
338

> <Probability>
0.10

> <Sum Probability>
98.46

> <Delta G>
2.763

> <G>
36.466

> <E>
-2.130

> <-TS>
38.596

> <U+W>
-26.275

> <U>
26.596

> <W>
-52.871

> <W(PB)>
-55.273

> <W(SA)>
2.403

> <Valence>
5.292

> <Coulomb>
20.508

> <VdW>
0.796

> <VdW6>
-11.980

> <VdW12>
12.776

> <Bond>
0.357

> <Angle>
2.346

> <Pdih>
2.589

> <Idih>
0.000

> <Tether>
0.000

$$$$
VeraChem MOL file


 29 28  0  0  0  0  0  0  0  0999 V2000     
   18.4973   19.6738   20.3136 C   0  0  0  0  0  0  0  0  0  0  0  0
   17.8176   20.4956   20.0539 H   0  0  0  0  0  0  0  0  0  0  0  0
   18.8047   19.1839   19.3806 H   0  0  0  0  0  0  0  0  0  0  0  0
   17.9287   18.9500   20.9106 H   0  0  0  0  0  0  0  0  0  0  0  0
   19.7225   20.2087   21.0887 C   0  0  0  0  0  0  0  0  0  0  0  0
   19.3923   20.6843   22.0217 H   0  0  0  0  0  0  0  0  0  0  0  0
   20.1960   21.0042   20.4965 H   0  0  0  0  0  0  0  0  0  0  0  0
   20.7824   19.1189   21.3890 C   0  0  0  0  0  0  0  0  0  0  0  0
   21.1715   18.7323   20.4371 H   0  0  0  0  0  0  0  0  0  0  0  0
   21.6419   19.5849   21.8886 H   0  0  0  0  0  0  0  0  0  0  0  0
   20.2772   17.9213   22.2383 C   0  0  0  0  0  0  0  0  0  0  0  0
   21.1178   17.2358   22.4132 H   0  0  0  0  0  0  0  0  0  0  0  0
   19.5468   17.3469   21.6531 H   0  0  0  0  0  0  0  0  0  0  0  0
   19.6421   18.2949   23.6025 C   0  0  0  0  0  0  0  0  0  0  0  0
   18.7408   18.8978   23.4354 H   0  0  0  0  0  0  0  0  0  0  0  0
   19.3027   17.3664   24.0792 H   0  0  0  0  0  0  0  0  0  0  0  0
   20.6191   19.0399   24.5525 C   0  0  0  0  0  0  0  0  0  0  0  0
   20.9453   19.9761   24.0833 H   0  0  0  0  0  0  0  0  0  0  0  0
   21.5260   18.4359   24.6870 H   0  0  0  0  0  0  0  0  0  0  0  0
   20.0378   19.3835   25.9443 C   0  0  2  0  0  0  0  0  0  0  0  0
   20.8054   19.9440   26.4869 H   0  0  0  0  0  0  0  0  0  0  0  0
   19.7158   18.1238   26.7670 C   0  0  0  0  0  0  0  0  0  0  0  0
   18.8790   17.5604   26.3377 H   0  0  0  0  0  0  0  0  0  0  0  0
   20.5872   17.4594   26.8202 H   0  0  0  0  0  0  0  0  0  0  0  0
   19.4429   18.3966   27.7938 H   0  0  0  0  0  0  0  0  0  0  0  0
   18.8418   20.2911   25.8581 N   0  3  0  0  0  0  0  0  0  0  0  0
   18.0663   19.8364   25.3699 H   0  0  0  0  0  0  0  0  0  0  0  0
   19.0617   21.1547   25.3537 H   0  0  0  0  0  0  0  0  0  0  0  0
   18.5063   20.5565   26.7885 H   0  0  0  0  0  0  0  0  0  0  0  0
  1  2  1  0  0  0  0
  1  3  1  0  0  0  0
  1  4  1  0  0  0  0
  1  5  1  0  0  0  0
  5  6  1  0  0  0  0
  5  7  1  0  0  0  0
  5  8  1  0  0  0  0
  8  9  1  0  0  0  0
  8 10  1  0  0  0  0
  8 11  1  0  0  0  0
 11 12  1  0  0  0  0
 11 13  1  0  0  0  0
 11 14  1  0  0  0  0
 14 15  1  0  0  0  0
 14 16  1  0  0  0  0
 14 17  1  0  0  0  0
 17 18  1  0  0  0  0
 17 19  1  0  0  0  0
 17 20  1  0  0  0  0
 20 21  1  0  0  0  0
 20 22  1  0  0  0  0
 22 23  1  0  0  0  0
 22 24  1  0  0  0  0
 22 25  1  0  0  0  0
 20 26  1  0  0  0  0
 26 27  1  0  0  0  0
 26 28  1  0  0  0  0
 26 29  1  0  0  0  0
M  END
> <VM2 Rank>
74

> <Conf_Id>
609

> <Probability>
0.10

> <Sum Probability>
98.56

> <Delta G>
2.784

> <G>
36.486

> <E>
-1.809

> <-TS>
38.296

> <U+W>
-25.954

> <U>
26.775

> <W>
-52.729

> <W(PB)>
-55.142

> <W(SA)>
2.414

> <Valence>
5.136

> <Coulomb>
20.511

> <VdW>
1.129

> <VdW6>
-11.262

> <VdW12>
12.391

> <Bond>
0.358

> <Angle>
2.222

> <Pdih>
2.556

> <Idih>
0.000

> <Tether>
0.000

$$$$
VeraChem MOL file


 29 28  0  0  0  0  0  0  0  0999 V2000     
   20.6177   20.6595   20.1226 C   0  0  0  0  0  0  0  0  0  0  0  0
   21.6126   20.7130   20.5838 H   0  0  0  0  0  0  0  0  0  0  0  0
   20.7482   20.7052   19.0336 H   0  0  0  0  0  0  0  0  0  0  0  0
   20.0494   21.5464   20.4315 H   0  0  0  0  0  0  0  0  0  0  0  0
   19.8864   19.3628   20.5297 C   0  0  0  0  0  0  0  0  0  0  0  0
   20.4614   18.4941   20.1793 H   0  0  0  0  0  0  0  0  0  0  0  0
   18.9107   19.3217   20.0256 H   0  0  0  0  0  0  0  0  0  0  0  0
   19.6890   19.2747   22.0590 C   0  0  0  0  0  0  0  0  0  0  0  0
   20.6724   19.3249   22.5434 H   0  0  0  0  0  0  0  0  0  0  0  0
   19.1082   20.1415   22.4032 H   0  0  0  0  0  0  0  0  0  0  0  0
   18.9715   17.9682   22.4712 C   0  0  0  0  0  0  0  0  0  0  0  0
   19.6168   17.1098   22.2388 H   0  0  0  0  0  0  0  0  0  0  0  0
   18.0701   17.8468   21.8547 H   0  0  0  0  0  0  0  0  0  0  0  0
   18.5463   17.9062   23.9612 C   0  0  0  0  0  0  0  0  0  0  0  0
   17.8044   18.6872   24.1712 H   0  0  0  0  0  0  0  0  0  0  0  0
   18.0185   16.9543   24.1117 H   0  0  0  0  0  0  0  0  0  0  0  0
   19.7174   17.9680   24.9794 C   0  0  0  0  0  0  0  0  0  0  0  0
   20.5682   17.3978   24.5834 H   0  0  0  0  0  0  0  0  0  0  0  0
   19.4118   17.4517   25.8992 H   0  0  0  0  0  0  0  0  0  0  0  0
   20.1724   19.3976   25.3549 C   0  0  2  0  0  0  0  0  0  0  0  0
   20.4087   19.9472   24.4412 H   0  0  0  0  0  0  0  0  0  0  0  0
   21.4416   19.3421   26.2195 C   0  0  0  0  0  0  0  0  0  0  0  0
   21.2593   18.8050   27.1588 H   0  0  0  0  0  0  0  0  0  0  0  0
   22.2541   18.8325   25.6866 H   0  0  0  0  0  0  0  0  0  0  0  0
   21.7885   20.3533   26.4657 H   0  0  0  0  0  0  0  0  0  0  0  0
   19.0937   20.1768   26.0566 N   0  3  0  0  0  0  0  0  0  0  0  0
   18.8193   19.7261   26.9336 H   0  0  0  0  0  0  0  0  0  0  0  0
   18.2544   20.2596   25.4769 H   0  0  0  0  0  0  0  0  0  0  0  0
   19.4048   21.1255   26.2839 H   0  0  0  0  0  0  0  0  0  0  0  0
  1  2  1  0  0  0  0
  1  3  1  0  0  0  0
  1  4  1  0  0  0  0
  1  5  1  0  0  0  0
  5  6  1  0  0  0  0
  5  7  1  0  0  0  0
  5  8  1  0  0  0  0
  8  9  1  0  0  0  0
  8 10  1  0  0  0  0
  8 11  1  0  0  0  0
 11 12  1  0  0  0  0
 11 13  1  0  0  0  0
 11 14  1  0  0  0  0
 14 15  1  0  0  0  0
 14 16  1  0  0  0  0
 14 17  1  0  0  0  0
 17 18  1  0  0  0  0
 17 19  1  0  0  0  0
 17 20  1  0  0  0  0
 20 21  1  0  0  0  0
 20 22  1  0  0  0  0
 22 23  1  0  0  0  0
 22 24  1  0  0  0  0
 22 25  1  0  0  0  0
 20 26  1  0  0  0  0
 26 27  1  0  0  0  0
 26 28  1  0  0  0  0
 26 29  1  0  0  0  0
M  END
> <VM2 Rank>
75

> <Conf_Id>
698

> <Probability>
0.06

> <Sum Probability>
98.63

> <Delta G>
3.025

> <G>
36.727

> <E>
-0.999

> <-TS>
37.726

> <U+W>
-25.143

> <U>
27.273

> <W>
-52.417

> <W(PB)>
-54.885

> <W(SA)>
2.468

> <Valence>
5.665

> <Coulomb>
20.783

> <VdW>
0.825

> <VdW6>
-9.945

> <VdW12>
10.770

> <Bond>
0.273

> <Angle>
1.789

> <Pdih>
3.603

> <Idih>
0.000

> <Tether>
0.000

$$$$
VeraChem MOL file


 29 28  0  0  0  0  0  0  0  0999 V2000     
   20.3029   19.1879   18.9158 C   0  0  0  0  0  0  0  0  0  0  0  0
   19.6853   20.0401   18.6035 H   0  0  0  0  0  0  0  0  0  0  0  0
   21.3424   19.5310   18.9986 H   0  0  0  0  0  0  0  0  0  0  0  0
   20.2599   18.4314   18.1214 H   0  0  0  0  0  0  0  0  0  0  0  0
   19.8040   18.6021   20.2536 C   0  0  0  0  0  0  0  0  0  0  0  0
   20.4192   17.7320   20.5225 H   0  0  0  0  0  0  0  0  0  0  0  0
   18.7747   18.2371   20.1305 H   0  0  0  0  0  0  0  0  0  0  0  0
   19.8543   19.6476   21.3896 C   0  0  0  0  0  0  0  0  0  0  0  0
   20.8846   20.0109   21.5072 H   0  0  0  0  0  0  0  0  0  0  0  0
   19.2401   20.5164   21.1152 H   0  0  0  0  0  0  0  0  0  0  0  0
   19.3560   19.0648   22.7312 C   0  0  0  0  0  0  0  0  0  0  0  0
   19.9641   18.1909   22.9939 H   0  0  0  0  0  0  0  0  0  0  0  0
   18.3253   18.7035   22.6105 H   0  0  0  0  0  0  0  0  0  0  0  0
   19.4003   20.1176   23.8658 C   0  0  0  0  0  0  0  0  0  0  0  0
   20.4097   20.5417   23.9583 H   0  0  0  0  0  0  0  0  0  0  0  0
   18.7460   20.9535   23.5814 H   0  0  0  0  0  0  0  0  0  0  0  0
   18.9261   19.5669   25.2369 C   0  0  0  0  0  0  0  0  0  0  0  0
   18.2158   18.7422   25.0916 H   0  0  0  0  0  0  0  0  0  0  0  0
   18.3607   20.3627   25.7396 H   0  0  0  0  0  0  0  0  0  0  0  0
   20.0636   19.1309   26.1917 C   0  0  2  0  0  0  0  0  0  0  0  0
   20.7217   19.9905   26.3515 H   0  0  0  0  0  0  0  0  0  0  0  0
   20.9100   17.9780   25.6264 C   0  0  0  0  0  0  0  0  0  0  0  0
   21.4649   18.2974   24.7367 H   0  0  0  0  0  0  0  0  0  0  0  0
   21.6497   17.6432   26.3640 H   0  0  0  0  0  0  0  0  0  0  0  0
   20.2831   17.1186   25.3581 H   0  0  0  0  0  0  0  0  0  0  0  0
   19.5190   18.7603   27.5432 N   0  3  0  0  0  0  0  0  0  0  0  0
   18.8914   17.9537   27.4849 H   0  0  0  0  0  0  0  0  0  0  0  0
   18.9910   19.5316   27.9617 H   0  0  0  0  0  0  0  0  0  0  0  0
   20.2702   18.5165   28.1950 H   0  0  0  0  0  0  0  0  0  0  0  0
  1  2  1  0  0  0  0
  1  3  1  0  0  0  0
  1  4  1  0  0  0  0
  1  5  1  0  0  0  0
  5  6  1  0  0  0  0
  5  7  1  0  0  0  0
  5  8  1  0  0  0  0
  8  9  1  0  0  0  0
  8 10  1  0  0  0  0
  8 11  1  0  0  0  0
 11 12  1  0  0  0  0
 11 13  1  0  0  0  0
 11 14  1  0  0  0  0
 14 15  1  0  0  0  0
 14 16  1  0  0  0  0
 14 17  1  0  0  0  0
 17 18  1  0  0  0  0
 17 19  1  0  0  0  0
 17 20  1  0  0  0  0
 20 21  1  0  0  0  0
 20 22  1  0  0  0  0
 22 23  1  0  0  0  0
 22 24  1  0  0  0  0
 22 25  1  0  0  0  0
 20 26  1  0  0  0  0
 26 27  1  0  0  0  0
 26 28  1  0  0  0  0
 26 29  1  0  0  0  0
M  END
> <VM2 Rank>
76

> <Conf_Id>
1687

> <Probability>
0.05

> <Sum Probability>
98.67

> <Delta G>
3.195

> <G>
36.897

> <E>
-0.779

> <-TS>
37.675

> <U+W>
-24.923

> <U>
27.070

> <W>
-51.993

> <W(PB)>
-54.494

> <W(SA)>
2.501

> <Valence>
6.259

> <Coulomb>
19.668

> <VdW>
1.143

> <VdW6>
-9.081

> <VdW12>
10.224

> <Bond>
0.251

> <Angle>
1.657

> <Pdih>
4.351

> <Idih>
0.000

> <Tether>
0.000

$$$$
VeraChem MOL file


 29 28  0  0  0  0  0  0  0  0999 V2000     
   19.1961   19.1629   19.1305 C   0  0  0  0  0  0  0  0  0  0  0  0
   18.3354   19.4466   18.5112 H   0  0  0  0  0  0  0  0  0  0  0  0
   20.0757   19.6997   18.7516 H   0  0  0  0  0  0  0  0  0  0  0  0
   19.3681   18.0870   18.9962 H   0  0  0  0  0  0  0  0  0  0  0  0
   18.9358   19.5020   20.6134 C   0  0  0  0  0  0  0  0  0  0  0  0
   18.0319   18.9776   20.9537 H   0  0  0  0  0  0  0  0  0  0  0  0
   18.7344   20.5780   20.7114 H   0  0  0  0  0  0  0  0  0  0  0  0
   20.1335   19.1121   21.5077 C   0  0  0  0  0  0  0  0  0  0  0  0
   20.3321   18.0362   21.4056 H   0  0  0  0  0  0  0  0  0  0  0  0
   21.0347   19.6361   21.1603 H   0  0  0  0  0  0  0  0  0  0  0  0
   19.8772   19.4515   22.9933 C   0  0  0  0  0  0  0  0  0  0  0  0
   18.9718   18.9266   23.3208 H   0  0  0  0  0  0  0  0  0  0  0  0
   19.6888   20.5293   23.0942 H   0  0  0  0  0  0  0  0  0  0  0  0
   21.0731   19.0460   23.8873 C   0  0  0  0  0  0  0  0  0  0  0  0
   21.1994   17.9553   23.8634 H   0  0  0  0  0  0  0  0  0  0  0  0
   21.9927   19.4603   23.4516 H   0  0  0  0  0  0  0  0  0  0  0  0
   20.9823   19.5405   25.3586 C   0  0  0  0  0  0  0  0  0  0  0  0
   20.9822   20.6382   25.3727 H   0  0  0  0  0  0  0  0  0  0  0  0
   21.9087   19.2435   25.8676 H   0  0  0  0  0  0  0  0  0  0  0  0
   19.7954   19.0268   26.2131 C   0  0  2  0  0  0  0  0  0  0  0  0
   20.0168   19.2916   27.2517 H   0  0  0  0  0  0  0  0  0  0  0  0
   19.6453   17.4968   26.1524 C   0  0  0  0  0  0  0  0  0  0  0  0
   18.8947   17.1555   26.8757 H   0  0  0  0  0  0  0  0  0  0  0  0
   19.3301   17.1598   25.1576 H   0  0  0  0  0  0  0  0  0  0  0  0
   20.5937   17.0034   26.3987 H   0  0  0  0  0  0  0  0  0  0  0  0
   18.4973   19.7175   25.8976 N   0  3  0  0  0  0  0  0  0  0  0  0
   17.7453   19.3992   26.5157 H   0  0  0  0  0  0  0  0  0  0  0  0
   18.2043   19.5359   24.9355 H   0  0  0  0  0  0  0  0  0  0  0  0
   18.5765   20.7323   26.0103 H   0  0  0  0  0  0  0  0  0  0  0  0
  1  2  1  0  0  0  0
  1  3  1  0  0  0  0
  1  4  1  0  0  0  0
  1  5  1  0  0  0  0
  5  6  1  0  0  0  0
  5  7  1  0  0  0  0
  5  8  1  0  0  0  0
  8  9  1  0  0  0  0
  8 10  1  0  0  0  0
  8 11  1  0  0  0  0
 11 12  1  0  0  0  0
 11 13  1  0  0  0  0
 11 14  1  0  0  0  0
 14 15  1  0  0  0  0
 14 16  1  0  0  0  0
 14 17  1  0  0  0  0
 17 18  1  0  0  0  0
 17 19  1  0  0  0  0
 17 20  1  0  0  0  0
 20 21  1  0  0  0  0
 20 22  1  0  0  0  0
 22 23  1  0  0  0  0
 22 24  1  0  0  0  0
 22 25  1  0  0  0  0
 20 26  1  0  0  0  0
 26 27  1  0  0  0  0
 26 28  1  0  0  0  0
 26 29  1  0  0  0  0
M  END
> <VM2 Rank>
77

> <Conf_Id>
1304

> <Probability>
0.05

> <Sum Probability>
98.72

> <Delta G>
3.232

> <G>
36.934

> <E>
-1.034

> <-TS>
37.968

> <U+W>
-25.179

> <U>
27.314

> <W>
-52.492

> <W(PB)>
-54.962

> <W(SA)>
2.469

> <Valence>
5.056

> <Coulomb>
21.358

> <VdW>
0.900

> <VdW6>
-10.072

> <VdW12>
10.972

> <Bond>
0.294

> <Angle>
2.163

> <Pdih>
2.600

> <Idih>
0.000

> <Tether>
0.000

$$$$
VeraChem MOL file


 29 28  0  0  0  0  0  0  0  0999 V2000     
   20.7633   20.3648   20.5802 C   0  0  0  0  0  0  0  0  0  0  0  0
   20.2283   21.2256   21.0018 H   0  0  0  0  0  0  0  0  0  0  0  0
   21.4112   19.9401   21.3568 H   0  0  0  0  0  0  0  0  0  0  0  0
   21.4139   20.7340   19.7769 H   0  0  0  0  0  0  0  0  0  0  0  0
   19.7777   19.3092   20.0337 C   0  0  0  0  0  0  0  0  0  0  0  0
   20.3405   18.4336   19.6810 H   0  0  0  0  0  0  0  0  0  0  0  0
   19.2734   19.7230   19.1493 H   0  0  0  0  0  0  0  0  0  0  0  0
   18.6970   18.8577   21.0490 C   0  0  0  0  0  0  0  0  0  0  0  0
   18.0622   19.7097   21.3286 H   0  0  0  0  0  0  0  0  0  0  0  0
   18.0330   18.1514   20.5317 H   0  0  0  0  0  0  0  0  0  0  0  0
   19.2506   18.1584   22.3179 C   0  0  0  0  0  0  0  0  0  0  0  0
   20.1960   17.6498   22.0844 H   0  0  0  0  0  0  0  0  0  0  0  0
   18.5462   17.3689   22.6145 H   0  0  0  0  0  0  0  0  0  0  0  0
   19.4333   19.1172   23.5198 C   0  0  0  0  0  0  0  0  0  0  0  0
   20.1082   19.9393   23.2536 H   0  0  0  0  0  0  0  0  0  0  0  0
   18.4641   19.5720   23.7632 H   0  0  0  0  0  0  0  0  0  0  0  0
   19.9944   18.3787   24.7592 C   0  0  0  0  0  0  0  0  0  0  0  0
   20.9351   17.8848   24.4814 H   0  0  0  0  0  0  0  0  0  0  0  0
   19.3009   17.5837   25.0641 H   0  0  0  0  0  0  0  0  0  0  0  0
   20.2612   19.3214   25.9525 C   0  0  2  0  0  0  0  0  0  0  0  0
   20.9336   20.1171   25.6174 H   0  0  0  0  0  0  0  0  0  0  0  0
   20.9496   18.5566   27.0942 C   0  0  0  0  0  0  0  0  0  0  0  0
   21.8967   18.1189   26.7548 H   0  0  0  0  0  0  0  0  0  0  0  0
   21.1750   19.2287   27.9313 H   0  0  0  0  0  0  0  0  0  0  0  0
   20.3130   17.7452   27.4689 H   0  0  0  0  0  0  0  0  0  0  0  0
   19.0089   19.9920   26.4474 N   0  3  0  0  0  0  0  0  0  0  0  0
   18.3249   19.3064   26.7785 H   0  0  0  0  0  0  0  0  0  0  0  0
   18.5625   20.5418   25.7085 H   0  0  0  0  0  0  0  0  0  0  0  0
   19.2074   20.6278   27.2253 H   0  0  0  0  0  0  0  0  0  0  0  0
  1  2  1  0  0  0  0
  1  3  1  0  0  0  0
  1  4  1  0  0  0  0
  1  5  1  0  0  0  0
  5  6  1  0  0  0  0
  5  7  1  0  0  0  0
  5  8  1  0  0  0  0
  8  9  1  0  0  0  0
  8 10  1  0  0  0  0
  8 11  1  0  0  0  0
 11 12  1  0  0  0  0
 11 13  1  0  0  0  0
 11 14  1  0  0  0  0
 14 15  1  0  0  0  0
 14 16  1  0  0  0  0
 14 17  1  0  0  0  0
 17 18  1  0  0  0  0
 17 19  1  0  0  0  0
 17 20  1  0  0  0  0
 20 21  1  0  0  0  0
 20 22  1  0  0  0  0
 22 23  1  0  0  0  0
 22 24  1  0  0  0  0
 22 25  1  0  0  0  0
 20 26  1  0  0  0  0
 26 27  1  0  0  0  0
 26 28  1  0  0  0  0
 26 29  1  0  0  0  0
M  END
> <VM2 Rank>
78

> <Conf_Id>
488

> <Probability>
0.04

> <Sum Probability>
98.76

> <Delta G>
3.253

> <G>
36.955

> <E>
-0.781

> <-TS>
37.736

> <U+W>
-24.926

> <U>
27.363

> <W>
-52.288

> <W(PB)>
-54.778

> <W(SA)>
2.489

> <Valence>
6.134

> <Coulomb>
20.079

> <VdW>
1.150

> <VdW6>
-9.534

> <VdW12>
10.684

> <Bond>
0.272

> <Angle>
1.638

> <Pdih>
4.224

> <Idih>
0.000

> <Tether>
0.000

$$$$
VeraChem MOL file


 29 28  0  0  0  0  0  0  0  0999 V2000     
   18.6806   18.8396   19.7185 C   0  0  0  0  0  0  0  0  0  0  0  0
   19.4348   18.1617   19.2982 H   0  0  0  0  0  0  0  0  0  0  0  0
   18.1115   18.2919   20.4798 H   0  0  0  0  0  0  0  0  0  0  0  0
   17.9832   19.1063   18.9139 H   0  0  0  0  0  0  0  0  0  0  0  0
   19.3395   20.1083   20.3055 C   0  0  0  0  0  0  0  0  0  0  0  0
   18.5681   20.7550   20.7464 H   0  0  0  0  0  0  0  0  0  0  0  0
   19.7915   20.6841   19.4858 H   0  0  0  0  0  0  0  0  0  0  0  0
   20.4320   19.8031   21.3587 C   0  0  0  0  0  0  0  0  0  0  0  0
   21.2134   19.1778   20.9051 H   0  0  0  0  0  0  0  0  0  0  0  0
   20.9172   20.7476   21.6412 H   0  0  0  0  0  0  0  0  0  0  0  0
   19.8856   19.1147   22.6324 C   0  0  0  0  0  0  0  0  0  0  0  0
   19.4687   18.1330   22.3721 H   0  0  0  0  0  0  0  0  0  0  0  0
   19.0606   19.7135   23.0328 H   0  0  0  0  0  0  0  0  0  0  0  0
   20.9945   18.9256   23.6970 C   0  0  0  0  0  0  0  0  0  0  0  0
   21.8106   18.3504   23.2379 H   0  0  0  0  0  0  0  0  0  0  0  0
   21.4279   19.8960   23.9760 H   0  0  0  0  0  0  0  0  0  0  0  0
   20.5287   18.1688   24.9690 C   0  0  0  0  0  0  0  0  0  0  0  0
   21.4066   17.6641   25.3942 H   0  0  0  0  0  0  0  0  0  0  0  0
   19.8236   17.3706   24.7018 H   0  0  0  0  0  0  0  0  0  0  0  0
   19.9277   19.0725   26.0710 C   0  0  2  0  0  0  0  0  0  0  0  0
   20.6539   19.8583   26.3006 H   0  0  0  0  0  0  0  0  0  0  0  0
   19.6840   18.2568   27.3510 C   0  0  0  0  0  0  0  0  0  0  0  0
   19.2955   18.8976   28.1522 H   0  0  0  0  0  0  0  0  0  0  0  0
   18.9599   17.4511   27.1762 H   0  0  0  0  0  0  0  0  0  0  0  0
   20.6173   17.8054   27.7102 H   0  0  0  0  0  0  0  0  0  0  0  0
   18.6633   19.7666   25.6510 N   0  3  0  0  0  0  0  0  0  0  0  0
   17.9329   19.0931   25.4052 H   0  0  0  0  0  0  0  0  0  0  0  0
   18.8247   20.3641   24.8361 H   0  0  0  0  0  0  0  0  0  0  0  0
   18.2962   20.3603   26.4002 H   0  0  0  0  0  0  0  0  0  0  0  0
  1  2  1  0  0  0  0
  1  3  1  0  0  0  0
  1  4  1  0  0  0  0
  1  5  1  0  0  0  0
  5  6  1  0  0  0  0
  5  7  1  0  0  0  0
  5  8  1  0  0  0  0
  8  9  1  0  0  0  0
  8 10  1  0  0  0  0
  8 11  1  0  0  0  0
 11 12  1  0  0  0  0
 11 13  1  0  0  0  0
 11 14  1  0  0  0  0
 14 15  1  0  0  0  0
 14 16  1  0  0  0  0
 14 17  1  0  0  0  0
 17 18  1  0  0  0  0
 17 19  1  0  0  0  0
 17 20  1  0  0  0  0
 20 21  1  0  0  0  0
 20 22  1  0  0  0  0
 22 23  1  0  0  0  0
 22 24  1  0  0  0  0
 22 25  1  0  0  0  0
 20 26  1  0  0  0  0
 26 27  1  0  0  0  0
 26 28  1  0  0  0  0
 26 29  1  0  0  0  0
M  END
> <VM2 Rank>
79

> <Conf_Id>
1185

> <Probability>
0.04

> <Sum Probability>
98.81

> <Delta G>
3.256

> <G>
36.958

> <E>
-0.312

> <-TS>
37.269

> <U+W>
-24.456

> <U>
27.677

> <W>
-52.133

> <W(PB)>
-54.613

> <W(SA)>
2.480

> <Valence>
5.648

> <Coulomb>
20.828

> <VdW>
1.200

> <VdW6>
-9.461

> <VdW12>
10.661

> <Bond>
0.293

> <Angle>
1.687

> <Pdih>
3.669

> <Idih>
0.000

> <Tether>
0.000

$$$$
VeraChem MOL file


 29 28  0  0  0  0  0  0  0  0999 V2000     
   18.4957   18.4801   19.9649 C   0  0  0  0  0  0  0  0  0  0  0  0
   18.3581   17.4472   19.6197 H   0  0  0  0  0  0  0  0  0  0  0  0
   17.5633   18.8015   20.4472 H   0  0  0  0  0  0  0  0  0  0  0  0
   18.6594   19.1116   19.0820 H   0  0  0  0  0  0  0  0  0  0  0  0
   19.6860   18.5739   20.9427 C   0  0  0  0  0  0  0  0  0  0  0  0
   20.5952   18.2139   20.4413 H   0  0  0  0  0  0  0  0  0  0  0  0
   19.5090   17.8991   21.7886 H   0  0  0  0  0  0  0  0  0  0  0  0
   19.9061   20.0248   21.4348 C   0  0  0  0  0  0  0  0  0  0  0  0
   20.1074   20.6550   20.5574 H   0  0  0  0  0  0  0  0  0  0  0  0
   18.9860   20.4202   21.8866 H   0  0  0  0  0  0  0  0  0  0  0  0
   21.0916   20.1699   22.4243 C   0  0  0  0  0  0  0  0  0  0  0  0
   21.5799   21.1355   22.2326 H   0  0  0  0  0  0  0  0  0  0  0  0
   21.8555   19.4072   22.2194 H   0  0  0  0  0  0  0  0  0  0  0  0
   20.6934   20.1391   23.9224 C   0  0  0  0  0  0  0  0  0  0  0  0
   21.5954   20.3242   24.5221 H   0  0  0  0  0  0  0  0  0  0  0  0
   20.0103   20.9742   24.1277 H   0  0  0  0  0  0  0  0  0  0  0  0
   20.0492   18.8079   24.3819 C   0  0  0  0  0  0  0  0  0  0  0  0
   20.6799   17.9730   24.0488 H   0  0  0  0  0  0  0  0  0  0  0  0
   19.0699   18.6822   23.9033 H   0  0  0  0  0  0  0  0  0  0  0  0
   19.8784   18.7225   25.9137 C   0  0  2  0  0  0  0  0  0  0  0  0
   20.8592   18.8674   26.3769 H   0  0  0  0  0  0  0  0  0  0  0  0
   19.3544   17.3349   26.3164 C   0  0  0  0  0  0  0  0  0  0  0  0
   20.0393   16.5468   25.9795 H   0  0  0  0  0  0  0  0  0  0  0  0
   19.2658   17.2548   27.4069 H   0  0  0  0  0  0  0  0  0  0  0  0
   18.3676   17.1404   25.8779 H   0  0  0  0  0  0  0  0  0  0  0  0
   18.9812   19.8028   26.4529 N   0  3  0  0  0  0  0  0  0  0  0  0
   18.0376   19.7333   26.0626 H   0  0  0  0  0  0  0  0  0  0  0  0
   19.3411   20.7340   26.2269 H   0  0  0  0  0  0  0  0  0  0  0  0
   18.8971   19.7454   27.4718 H   0  0  0  0  0  0  0  0  0  0  0  0
  1  2  1  0  0  0  0
  1  3  1  0  0  0  0
  1  4  1  0  0  0  0
  1  5  1  0  0  0  0
  5  6  1  0  0  0  0
  5  7  1  0  0  0  0
  5  8  1  0  0  0  0
  8  9  1  0  0  0  0
  8 10  1  0  0  0  0
  8 11  1  0  0  0  0
 11 12  1  0  0  0  0
 11 13  1  0  0  0  0
 11 14  1  0  0  0  0
 14 15  1  0  0  0  0
 14 16  1  0  0  0  0
 14 17  1  0  0  0  0
 17 18  1  0  0  0  0
 17 19  1  0  0  0  0
 17 20  1  0  0  0  0
 20 21  1  0  0  0  0
 20 22  1  0  0  0  0
 22 23  1  0  0  0  0
 22 24  1  0  0  0  0
 22 25  1  0  0  0  0
 20 26  1  0  0  0  0
 26 27  1  0  0  0  0
 26 28  1  0  0  0  0
 26 29  1  0  0  0  0
M  END
> <VM2 Rank>
80

> <Conf_Id>
1633

> <Probability>
0.04

> <Sum Probability>
98.85

> <Delta G>
3.308

> <G>
37.010

> <E>
-0.768

> <-TS>
37.778

> <U+W>
-24.912

> <U>
27.426

> <W>
-52.338

> <W(PB)>
-54.832

> <W(SA)>
2.495

> <Valence>
6.169

> <Coulomb>
20.212

> <VdW>
1.045

> <VdW6>
-9.697

> <VdW12>
10.742

> <Bond>
0.273

> <Angle>
1.616

> <Pdih>
4.280

> <Idih>
0.000

> <Tether>
0.000

$$$$
VeraChem MOL file


 29 28  0  0  0  0  0  0  0  0999 V2000     
   19.0342   19.2829   19.0640 C   0  0  0  0  0  0  0  0  0  0  0  0
   19.5637   20.1942   18.7567 H   0  0  0  0  0  0  0  0  0  0  0  0
   19.0605   18.5780   18.2229 H   0  0  0  0  0  0  0  0  0  0  0  0
   17.9847   19.5442   19.2523 H   0  0  0  0  0  0  0  0  0  0  0  0
   19.6841   18.6600   20.3175 C   0  0  0  0  0  0  0  0  0  0  0  0
   20.7215   18.3785   20.0887 H   0  0  0  0  0  0  0  0  0  0  0  0
   19.1546   17.7334   20.5803 H   0  0  0  0  0  0  0  0  0  0  0  0
   19.6603   19.6326   21.5172 C   0  0  0  0  0  0  0  0  0  0  0  0
   20.1883   20.5581   21.2488 H   0  0  0  0  0  0  0  0  0  0  0  0
   18.6215   19.9127   21.7406 H   0  0  0  0  0  0  0  0  0  0  0  0
   20.3098   19.0123   22.7747 C   0  0  0  0  0  0  0  0  0  0  0  0
   21.3485   18.7346   22.5480 H   0  0  0  0  0  0  0  0  0  0  0  0
   19.7860   18.0834   23.0293 H   0  0  0  0  0  0  0  0  0  0  0  0
   20.2900   19.9925   23.9732 C   0  0  0  0  0  0  0  0  0  0  0  0
   20.8454   20.8950   23.6825 H   0  0  0  0  0  0  0  0  0  0  0  0
   19.2633   20.3236   24.1755 H   0  0  0  0  0  0  0  0  0  0  0  0
   20.9426   19.4127   25.2593 C   0  0  0  0  0  0  0  0  0  0  0  0
   21.4639   20.2279   25.7782 H   0  0  0  0  0  0  0  0  0  0  0  0
   21.7278   18.6945   24.9889 H   0  0  0  0  0  0  0  0  0  0  0  0
   19.9763   18.7586   26.2778 C   0  0  2  0  0  0  0  0  0  0  0  0
   20.5859   18.3956   27.1111 H   0  0  0  0  0  0  0  0  0  0  0  0
   19.2218   17.5514   25.6982 C   0  0  0  0  0  0  0  0  0  0  0  0
   19.9192   16.8353   25.2462 H   0  0  0  0  0  0  0  0  0  0  0  0
   18.6733   17.0267   26.4901 H   0  0  0  0  0  0  0  0  0  0  0  0
   18.4949   17.8596   24.9374 H   0  0  0  0  0  0  0  0  0  0  0  0
   19.0169   19.7531   26.8722 N   0  3  0  0  0  0  0  0  0  0  0  0
   18.3954   20.1425   26.1590 H   0  0  0  0  0  0  0  0  0  0  0  0
   19.5109   20.5353   27.3111 H   0  0  0  0  0  0  0  0  0  0  0  0
   18.4283   19.3213   27.5904 H   0  0  0  0  0  0  0  0  0  0  0  0
  1  2  1  0  0  0  0
  1  3  1  0  0  0  0
  1  4  1  0  0  0  0
  1  5  1  0  0  0  0
  5  6  1  0  0  0  0
  5  7  1  0  0  0  0
  5  8  1  0  0  0  0
  8  9  1  0  0  0  0
  8 10  1  0  0  0  0
  8 11  1  0  0  0  0
 11 12  1  0  0  0  0
 11 13  1  0  0  0  0
 11 14  1  0  0  0  0
 14 15  1  0  0  0  0
 14 16  1  0  0  0  0
 14 17  1  0  0  0  0
 17 18  1  0  0  0  0
 17 19  1  0  0  0  0
 17 20  1  0  0  0  0
 20 21  1  0  0  0  0
 20 22  1  0  0  0  0
 22 23  1  0  0  0  0
 22 24  1  0  0  0  0
 22 25  1  0  0  0  0
 20 26  1  0  0  0  0
 26 27  1  0  0  0  0
 26 28  1  0  0  0  0
 26 29  1  0  0  0  0
M  END
> <VM2 Rank>
81

> <Conf_Id>
1332

> <Probability>
0.04

> <Sum Probability>
98.89

> <Delta G>
3.340

> <G>
37.042

> <E>
-0.699

> <-TS>
37.741

> <U+W>
-24.844

> <U>
27.319

> <W>
-52.162

> <W(PB)>
-54.656

> <W(SA)>
2.494

> <Valence>
6.250

> <Coulomb>
19.964

> <VdW>
1.105

> <VdW6>
-9.528

> <VdW12>
10.633

> <Bond>
0.282

> <Angle>
1.801

> <Pdih>
4.166

> <Idih>
0.000

> <Tether>
0.000

$$$$
VeraChem MOL file


 29 28  0  0  0  0  0  0  0  0999 V2000     
   19.7802   20.8984   20.5899 C   0  0  0  0  0  0  0  0  0  0  0  0
   19.7852   21.1305   21.6605 H   0  0  0  0  0  0  0  0  0  0  0  0
   20.4968   21.5709   20.1009 H   0  0  0  0  0  0  0  0  0  0  0  0
   18.7822   21.1339   20.1980 H   0  0  0  0  0  0  0  0  0  0  0  0
   20.1477   19.4222   20.3117 C   0  0  0  0  0  0  0  0  0  0  0  0
   21.1736   19.2142   20.6461 H   0  0  0  0  0  0  0  0  0  0  0  0
   20.1490   19.2739   19.2227 H   0  0  0  0  0  0  0  0  0  0  0  0
   19.1585   18.4109   20.9460 C   0  0  0  0  0  0  0  0  0  0  0  0
   18.1540   18.8514   21.0108 H   0  0  0  0  0  0  0  0  0  0  0  0
   19.0620   17.5544   20.2644 H   0  0  0  0  0  0  0  0  0  0  0  0
   19.5888   17.8583   22.3293 C   0  0  0  0  0  0  0  0  0  0  0  0
   20.5452   17.3269   22.2279 H   0  0  0  0  0  0  0  0  0  0  0  0
   18.8523   17.1054   22.6422 H   0  0  0  0  0  0  0  0  0  0  0  0
   19.7113   18.9319   23.4352 C   0  0  0  0  0  0  0  0  0  0  0  0
   20.5379   19.6134   23.1955 H   0  0  0  0  0  0  0  0  0  0  0  0
   18.7906   19.5294   23.4614 H   0  0  0  0  0  0  0  0  0  0  0  0
   19.9718   18.2972   24.8228 C   0  0  0  0  0  0  0  0  0  0  0  0
   20.8611   17.6560   24.7580 H   0  0  0  0  0  0  0  0  0  0  0  0
   19.1329   17.6435   25.0964 H   0  0  0  0  0  0  0  0  0  0  0  0
   20.1947   19.3474   25.9324 C   0  0  2  0  0  0  0  0  0  0  0  0
   21.0181   20.0001   25.6265 H   0  0  0  0  0  0  0  0  0  0  0  0
   20.5882   18.6587   27.2489 C   0  0  0  0  0  0  0  0  0  0  0  0
   19.7917   17.9914   27.6013 H   0  0  0  0  0  0  0  0  0  0  0  0
   21.5007   18.0633   27.1198 H   0  0  0  0  0  0  0  0  0  0  0  0
   20.7837   19.4013   28.0323 H   0  0  0  0  0  0  0  0  0  0  0  0
   18.9947   20.2309   26.1379 N   0  3  0  0  0  0  0  0  0  0  0  0
   18.7468   20.7301   25.2794 H   0  0  0  0  0  0  0  0  0  0  0  0
   19.1674   20.9337   26.8625 H   0  0  0  0  0  0  0  0  0  0  0  0
   18.1769   19.6874   26.4264 H   0  0  0  0  0  0  0  0  0  0  0  0
  1  2  1  0  0  0  0
  1  3  1  0  0  0  0
  1  4  1  0  0  0  0
  1  5  1  0  0  0  0
  5  6  1  0  0  0  0
  5  7  1  0  0  0  0
  5  8  1  0  0  0  0
  8  9  1  0  0  0  0
  8 10  1  0  0  0  0
  8 11  1  0  0  0  0
 11 12  1  0  0  0  0
 11 13  1  0  0  0  0
 11 14  1  0  0  0  0
 14 15  1  0  0  0  0
 14 16  1  0  0  0  0
 14 17  1  0  0  0  0
 17 18  1  0  0  0  0
 17 19  1  0  0  0  0
 17 20  1  0  0  0  0
 20 21  1  0  0  0  0
 20 22  1  0  0  0  0
 22 23  1  0  0  0  0
 22 24  1  0  0  0  0
 22 25  1  0  0  0  0
 20 26  1  0  0  0  0
 26 27  1  0  0  0  0
 26 28  1  0  0  0  0
 26 29  1  0  0  0  0
M  END
> <VM2 Rank>
82

> <Conf_Id>
318

> <Probability>
0.04

> <Sum Probability>
98.92

> <Delta G>
3.375

> <G>
37.078

> <E>
-0.651

> <-TS>
37.728

> <U+W>
-24.795

> <U>
27.548

> <W>
-52.343

> <W(PB)>
-54.804

> <W(SA)>
2.461

> <Valence>
6.159

> <Coulomb>
20.244

> <VdW>
1.144

> <VdW6>
-9.545

> <VdW12>
10.689

> <Bond>
0.271

> <Angle>
1.675

> <Pdih>
4.213

> <Idih>
0.000

> <Tether>
0.000

$$$$
VeraChem MOL file


 29 28  0  0  0  0  0  0  0  0999 V2000     
   20.1098   20.7973   20.0429 C   0  0  0  0  0  0  0  0  0  0  0  0
   20.0150   21.6542   20.7226 H   0  0  0  0  0  0  0  0  0  0  0  0
   21.1780   20.6237   19.8583 H   0  0  0  0  0  0  0  0  0  0  0  0
   19.6429   21.0713   19.0880 H   0  0  0  0  0  0  0  0  0  0  0  0
   19.4384   19.5409   20.6369 C   0  0  0  0  0  0  0  0  0  0  0  0
   19.5189   18.7116   19.9203 H   0  0  0  0  0  0  0  0  0  0  0  0
   18.3659   19.7339   20.7797 H   0  0  0  0  0  0  0  0  0  0  0  0
   20.0781   19.1331   21.9824 C   0  0  0  0  0  0  0  0  0  0  0  0
   21.1489   18.9394   21.8312 H   0  0  0  0  0  0  0  0  0  0  0  0
   20.0051   19.9756   22.6786 H   0  0  0  0  0  0  0  0  0  0  0  0
   19.4048   17.8723   22.5777 C   0  0  0  0  0  0  0  0  0  0  0  0
   19.4726   17.0680   21.8321 H   0  0  0  0  0  0  0  0  0  0  0  0
   18.3319   18.0501   22.7339 H   0  0  0  0  0  0  0  0  0  0  0  0
   20.0573   17.3661   23.8909 C   0  0  0  0  0  0  0  0  0  0  0  0
   19.9076   16.2786   23.9402 H   0  0  0  0  0  0  0  0  0  0  0  0
   21.1458   17.5051   23.8584 H   0  0  0  0  0  0  0  0  0  0  0  0
   19.4581   17.9682   25.1912 C   0  0  0  0  0  0  0  0  0  0  0  0
   19.9066   17.4578   26.0538 H   0  0  0  0  0  0  0  0  0  0  0  0
   18.3879   17.7250   25.2221 H   0  0  0  0  0  0  0  0  0  0  0  0
   19.6240   19.4937   25.3736 C   0  0  2  0  0  0  0  0  0  0  0  0
   19.1801   19.9957   24.5102 H   0  0  0  0  0  0  0  0  0  0  0  0
   21.1037   19.9037   25.4838 C   0  0  0  0  0  0  0  0  0  0  0  0
   21.5923   19.3992   26.3266 H   0  0  0  0  0  0  0  0  0  0  0  0
   21.6574   19.6564   24.5710 H   0  0  0  0  0  0  0  0  0  0  0  0
   21.1942   20.9862   25.6367 H   0  0  0  0  0  0  0  0  0  0  0  0
   18.8618   19.9807   26.5745 N   0  3  0  0  0  0  0  0  0  0  0  0
   17.8653   19.7547   26.5060 H   0  0  0  0  0  0  0  0  0  0  0  0
   18.9375   20.9965   26.6791 H   0  0  0  0  0  0  0  0  0  0  0  0
   19.2144   19.5580   27.4375 H   0  0  0  0  0  0  0  0  0  0  0  0
  1  2  1  0  0  0  0
  1  3  1  0  0  0  0
  1  4  1  0  0  0  0
  1  5  1  0  0  0  0
  5  6  1  0  0  0  0
  5  7  1  0  0  0  0
  5  8  1  0  0  0  0
  8  9  1  0  0  0  0
  8 10  1  0  0  0  0
  8 11  1  0  0  0  0
 11 12  1  0  0  0  0
 11 13  1  0  0  0  0
 11 14  1  0  0  0  0
 14 15  1  0  0  0  0
 14 16  1  0  0  0  0
 14 17  1  0  0  0  0
 17 18  1  0  0  0  0
 17 19  1  0  0  0  0
 17 20  1  0  0  0  0
 20 21  1  0  0  0  0
 20 22  1  0  0  0  0
 22 23  1  0  0  0  0
 22 24  1  0  0  0  0
 22 25  1  0  0  0  0
 20 26  1  0  0  0  0
 26 27  1  0  0  0  0
 26 28  1  0  0  0  0
 26 29  1  0  0  0  0
M  END
> <VM2 Rank>
83

> <Conf_Id>
283

> <Probability>
0.04

> <Sum Probability>
98.96

> <Delta G>
3.389

> <G>
37.092

> <E>
-0.941

> <-TS>
38.033

> <U+W>
-25.086

> <U>
27.495

> <W>
-52.581

> <W(PB)>
-55.042

> <W(SA)>
2.460

> <Valence>
6.350

> <Coulomb>
20.401

> <VdW>
0.745

> <VdW6>
-10.334

> <VdW12>
11.079

> <Bond>
0.286

> <Angle>
2.246

> <Pdih>
3.817

> <Idih>
0.000

> <Tether>
0.000

$$$$
VeraChem MOL file


 29 28  0  0  0  0  0  0  0  0999 V2000     
   21.0713   19.4455   19.7786 C   0  0  0  0  0  0  0  0  0  0  0  0
   20.5673   18.9462   18.9408 H   0  0  0  0  0  0  0  0  0  0  0  0
   21.0171   20.5295   19.6135 H   0  0  0  0  0  0  0  0  0  0  0  0
   22.1293   19.1536   19.7571 H   0  0  0  0  0  0  0  0  0  0  0  0
   20.4263   19.0571   21.1258 C   0  0  0  0  0  0  0  0  0  0  0  0
   20.9813   19.5457   21.9374 H   0  0  0  0  0  0  0  0  0  0  0  0
   20.5193   17.9724   21.2749 H   0  0  0  0  0  0  0  0  0  0  0  0
   18.9373   19.4679   21.1842 C   0  0  0  0  0  0  0  0  0  0  0  0
   18.8578   20.5615   21.1141 H   0  0  0  0  0  0  0  0  0  0  0  0
   18.4223   19.0673   20.3002 H   0  0  0  0  0  0  0  0  0  0  0  0
   18.1854   18.9771   22.4484 C   0  0  0  0  0  0  0  0  0  0  0  0
   18.1676   17.8789   22.4752 H   0  0  0  0  0  0  0  0  0  0  0  0
   17.1358   19.2871   22.3489 H   0  0  0  0  0  0  0  0  0  0  0  0
   18.7309   19.5406   23.7865 C   0  0  0  0  0  0  0  0  0  0  0  0
   19.2053   20.5172   23.6178 H   0  0  0  0  0  0  0  0  0  0  0  0
   17.8771   19.7268   24.4516 H   0  0  0  0  0  0  0  0  0  0  0  0
   19.7145   18.5775   24.5009 C   0  0  0  0  0  0  0  0  0  0  0  0
   20.5185   18.2912   23.8136 H   0  0  0  0  0  0  0  0  0  0  0  0
   19.1920   17.6488   24.7662 H   0  0  0  0  0  0  0  0  0  0  0  0
   20.3452   19.1953   25.7674 C   0  0  2  0  0  0  0  0  0  0  0  0
   20.8376   20.1306   25.4837 H   0  0  0  0  0  0  0  0  0  0  0  0
   21.4063   18.2496   26.3522 C   0  0  0  0  0  0  0  0  0  0  0  0
   22.1929   18.0430   25.6158 H   0  0  0  0  0  0  0  0  0  0  0  0
   21.8839   18.6984   27.2319 H   0  0  0  0  0  0  0  0  0  0  0  0
   20.9619   17.2931   26.6550 H   0  0  0  0  0  0  0  0  0  0  0  0
   19.3189   19.5454   26.8101 N   0  3  0  0  0  0  0  0  0  0  0  0
   18.8109   18.7152   27.1266 H   0  0  0  0  0  0  0  0  0  0  0  0
   18.6297   20.2097   26.4476 H   0  0  0  0  0  0  0  0  0  0  0  0
   19.7527   19.9723   27.6336 H   0  0  0  0  0  0  0  0  0  0  0  0
  1  2  1  0  0  0  0
  1  3  1  0  0  0  0
  1  4  1  0  0  0  0
  1  5  1  0  0  0  0
  5  6  1  0  0  0  0
  5  7  1  0  0  0  0
  5  8  1  0  0  0  0
  8  9  1  0  0  0  0
  8 10  1  0  0  0  0
  8 11  1  0  0  0  0
 11 12  1  0  0  0  0
 11 13  1  0  0  0  0
 11 14  1  0  0  0  0
 14 15  1  0  0  0  0
 14 16  1  0  0  0  0
 14 17  1  0  0  0  0
 17 18  1  0  0  0  0
 17 19  1  0  0  0  0
 17 20  1  0  0  0  0
 20 21  1  0  0  0  0
 20 22  1  0  0  0  0
 22 23  1  0  0  0  0
 22 24  1  0  0  0  0
 22 25  1  0  0  0  0
 20 26  1  0  0  0  0
 26 27  1  0  0  0  0
 26 28  1  0  0  0  0
 26 29  1  0  0  0  0
M  END
> <VM2 Rank>
84

> <Conf_Id>
920

> <Probability>
0.03

> <Sum Probability>
98.99

> <Delta G>
3.393

> <G>
37.095

> <E>
-0.697

> <-TS>
37.792

> <U+W>
-24.842

> <U>
27.471

> <W>
-52.307

> <W(PB)>
-54.790

> <W(SA)>
2.483

> <Valence>
6.230

> <Coulomb>
20.131

> <VdW>
1.110

> <VdW6>
-9.661

> <VdW12>
10.771

> <Bond>
0.280

> <Angle>
1.591

> <Pdih>
4.359

> <Idih>
0.000

> <Tether>
0.000

$$$$
VeraChem MOL file


 29 28  0  0  0  0  0  0  0  0999 V2000     
   18.3707   20.0952   20.7871 C   0  0  0  0  0  0  0  0  0  0  0  0
   17.9456   19.5255   21.6225 H   0  0  0  0  0  0  0  0  0  0  0  0
   18.7286   21.0609   21.1667 H   0  0  0  0  0  0  0  0  0  0  0  0
   17.5564   20.2937   20.0783 H   0  0  0  0  0  0  0  0  0  0  0  0
   19.5080   19.3119   20.0960 C   0  0  0  0  0  0  0  0  0  0  0  0
   19.7858   19.8369   19.1714 H   0  0  0  0  0  0  0  0  0  0  0  0
   19.1347   18.3261   19.7855 H   0  0  0  0  0  0  0  0  0  0  0  0
   20.7812   19.1358   20.9624 C   0  0  0  0  0  0  0  0  0  0  0  0
   21.5278   18.6124   20.3493 H   0  0  0  0  0  0  0  0  0  0  0  0
   21.2210   20.1163   21.1911 H   0  0  0  0  0  0  0  0  0  0  0  0
   20.5709   18.3223   22.2660 C   0  0  0  0  0  0  0  0  0  0  0  0
   21.4734   17.7234   22.4510 H   0  0  0  0  0  0  0  0  0  0  0  0
   19.7512   17.6029   22.1324 H   0  0  0  0  0  0  0  0  0  0  0  0
   20.3156   19.2082   23.5098 C   0  0  0  0  0  0  0  0  0  0  0  0
   21.1764   19.8735   23.6642 H   0  0  0  0  0  0  0  0  0  0  0  0
   19.4473   19.8536   23.3384 H   0  0  0  0  0  0  0  0  0  0  0  0
   20.0920   18.3556   24.7823 C   0  0  0  0  0  0  0  0  0  0  0  0
   20.9513   17.6849   24.9159 H   0  0  0  0  0  0  0  0  0  0  0  0
   19.2110   17.7137   24.6488 H   0  0  0  0  0  0  0  0  0  0  0  0
   19.9238   19.2091   26.0580 C   0  0  2  0  0  0  0  0  0  0  0  0
   20.8003   19.8572   26.1551 H   0  0  0  0  0  0  0  0  0  0  0  0
   19.8515   18.3058   27.2994 C   0  0  0  0  0  0  0  0  0  0  0  0
   20.7556   17.6906   27.3871 H   0  0  0  0  0  0  0  0  0  0  0  0
   19.7686   18.9073   28.2130 H   0  0  0  0  0  0  0  0  0  0  0  0
   18.9847   17.6347   27.2520 H   0  0  0  0  0  0  0  0  0  0  0  0
   18.7224   20.1121   25.9929 N   0  3  0  0  0  0  0  0  0  0  0  0
   17.8567   19.5743   25.8983 H   0  0  0  0  0  0  0  0  0  0  0  0
   18.7782   20.7515   25.1956 H   0  0  0  0  0  0  0  0  0  0  0  0
   18.6379   20.6832   26.8387 H   0  0  0  0  0  0  0  0  0  0  0  0
  1  2  1  0  0  0  0
  1  3  1  0  0  0  0
  1  4  1  0  0  0  0
  1  5  1  0  0  0  0
  5  6  1  0  0  0  0
  5  7  1  0  0  0  0
  5  8  1  0  0  0  0
  8  9  1  0  0  0  0
  8 10  1  0  0  0  0
  8 11  1  0  0  0  0
 11 12  1  0  0  0  0
 11 13  1  0  0  0  0
 11 14  1  0  0  0  0
 14 15  1  0  0  0  0
 14 16  1  0  0  0  0
 14 17  1  0  0  0  0
 17 18  1  0  0  0  0
 17 19  1  0  0  0  0
 17 20  1  0  0  0  0
 20 21  1  0  0  0  0
 20 22  1  0  0  0  0
 22 23  1  0  0  0  0
 22 24  1  0  0  0  0
 22 25  1  0  0  0  0
 20 26  1  0  0  0  0
 26 27  1  0  0  0  0
 26 28  1  0  0  0  0
 26 29  1  0  0  0  0
M  END
> <VM2 Rank>
85

> <Conf_Id>
489

> <Probability>
0.03

> <Sum Probability>
99.03

> <Delta G>
3.419

> <G>
37.121

> <E>
-0.627

> <-TS>
37.748

> <U+W>
-24.771

> <U>
27.669

> <W>
-52.440

> <W(PB)>
-54.940

> <W(SA)>
2.500

> <Valence>
6.132

> <Coulomb>
20.412

> <VdW>
1.124

> <VdW6>
-9.582

> <VdW12>
10.706

> <Bond>
0.273

> <Angle>
1.615

> <Pdih>
4.244

> <Idih>
0.000

> <Tether>
0.000

$$$$
VeraChem MOL file


 29 28  0  0  0  0  0  0  0  0999 V2000     
   19.8282   20.9177   20.1511 C   0  0  0  0  0  0  0  0  0  0  0  0
   20.8361   21.2780   20.3950 H   0  0  0  0  0  0  0  0  0  0  0  0
   19.6716   21.0577   19.0737 H   0  0  0  0  0  0  0  0  0  0  0  0
   19.1022   21.5473   20.6818 H   0  0  0  0  0  0  0  0  0  0  0  0
   19.6617   19.4327   20.5374 C   0  0  0  0  0  0  0  0  0  0  0  0
   20.3768   18.8255   19.9650 H   0  0  0  0  0  0  0  0  0  0  0  0
   18.6564   19.0920   20.2524 H   0  0  0  0  0  0  0  0  0  0  0  0
   19.8786   19.2085   22.0501 C   0  0  0  0  0  0  0  0  0  0  0  0
   20.8869   19.5442   22.3290 H   0  0  0  0  0  0  0  0  0  0  0  0
   19.1615   19.8281   22.6031 H   0  0  0  0  0  0  0  0  0  0  0  0
   19.6956   17.7240   22.4429 C   0  0  0  0  0  0  0  0  0  0  0  0
   20.2913   17.0996   21.7628 H   0  0  0  0  0  0  0  0  0  0  0  0
   18.6482   17.4318   22.2852 H   0  0  0  0  0  0  0  0  0  0  0  0
   20.1144   17.3838   23.8968 C   0  0  0  0  0  0  0  0  0  0  0  0
   19.9793   16.3016   24.0309 H   0  0  0  0  0  0  0  0  0  0  0  0
   21.1892   17.5596   24.0260 H   0  0  0  0  0  0  0  0  0  0  0  0
   19.2937   18.1049   25.0014 C   0  0  0  0  0  0  0  0  0  0  0  0
   19.3083   17.4894   25.9106 H   0  0  0  0  0  0  0  0  0  0  0  0
   18.2425   18.1459   24.6871 H   0  0  0  0  0  0  0  0  0  0  0  0
   19.7799   19.5280   25.3697 C   0  0  2  0  0  0  0  0  0  0  0  0
   19.9010   20.1110   24.4543 H   0  0  0  0  0  0  0  0  0  0  0  0
   21.1304   19.5043   26.1084 C   0  0  0  0  0  0  0  0  0  0  0  0
   21.4309   20.5197   26.3946 H   0  0  0  0  0  0  0  0  0  0  0  0
   21.0732   18.8980   27.0210 H   0  0  0  0  0  0  0  0  0  0  0  0
   21.9276   19.0973   25.4766 H   0  0  0  0  0  0  0  0  0  0  0  0
   18.7536   20.2520   26.1961 N   0  3  0  0  0  0  0  0  0  0  0  0
   18.5842   19.7730   27.0847 H   0  0  0  0  0  0  0  0  0  0  0  0
   17.8560   20.3209   25.7077 H   0  0  0  0  0  0  0  0  0  0  0  0
   19.0551   21.2056   26.4160 H   0  0  0  0  0  0  0  0  0  0  0  0
  1  2  1  0  0  0  0
  1  3  1  0  0  0  0
  1  4  1  0  0  0  0
  1  5  1  0  0  0  0
  5  6  1  0  0  0  0
  5  7  1  0  0  0  0
  5  8  1  0  0  0  0
  8  9  1  0  0  0  0
  8 10  1  0  0  0  0
  8 11  1  0  0  0  0
 11 12  1  0  0  0  0
 11 13  1  0  0  0  0
 11 14  1  0  0  0  0
 14 15  1  0  0  0  0
 14 16  1  0  0  0  0
 14 17  1  0  0  0  0
 17 18  1  0  0  0  0
 17 19  1  0  0  0  0
 17 20  1  0  0  0  0
 20 21  1  0  0  0  0
 20 22  1  0  0  0  0
 22 23  1  0  0  0  0
 22 24  1  0  0  0  0
 22 25  1  0  0  0  0
 20 26  1  0  0  0  0
 26 27  1  0  0  0  0
 26 28  1  0  0  0  0
 26 29  1  0  0  0  0
M  END
> <VM2 Rank>
86

> <Conf_Id>
592

> <Probability>
0.03

> <Sum Probability>
99.06

> <Delta G>
3.440

> <G>
37.142

> <E>
-0.500

> <-TS>
37.641

> <U+W>
-24.644

> <U>
27.991

> <W>
-52.635

> <W(PB)>
-55.127

> <W(SA)>
2.492

> <Valence>
6.342

> <Coulomb>
20.687

> <VdW>
0.963

> <VdW6>
-10.030

> <VdW12>
10.993

> <Bond>
0.289

> <Angle>
2.139

> <Pdih>
3.913

> <Idih>
0.000

> <Tether>
0.000

$$$$
VeraChem MOL file


 29 28  0  0  0  0  0  0  0  0999 V2000     
   19.2003   20.8418   20.6388 C   0  0  0  0  0  0  0  0  0  0  0  0
   20.0551   21.2849   20.1115 H   0  0  0  0  0  0  0  0  0  0  0  0
   18.2901   21.3283   20.2648 H   0  0  0  0  0  0  0  0  0  0  0  0
   19.2959   21.0885   21.7017 H   0  0  0  0  0  0  0  0  0  0  0  0
   19.1354   19.3155   20.3980 C   0  0  0  0  0  0  0  0  0  0  0  0
   19.0200   19.1482   19.3179 H   0  0  0  0  0  0  0  0  0  0  0  0
   18.2362   18.8923   20.8668 H   0  0  0  0  0  0  0  0  0  0  0  0
   20.4012   18.5621   20.8819 C   0  0  0  0  0  0  0  0  0  0  0  0
   20.5975   17.7388   20.1811 H   0  0  0  0  0  0  0  0  0  0  0  0
   21.2805   19.2181   20.8208 H   0  0  0  0  0  0  0  0  0  0  0  0
   20.2914   17.9488   22.3017 C   0  0  0  0  0  0  0  0  0  0  0  0
   21.2136   17.3870   22.5044 H   0  0  0  0  0  0  0  0  0  0  0  0
   19.4754   17.2132   22.3190 H   0  0  0  0  0  0  0  0  0  0  0  0
   20.0733   18.9845   23.4288 C   0  0  0  0  0  0  0  0  0  0  0  0
   20.8345   19.7735   23.3552 H   0  0  0  0  0  0  0  0  0  0  0  0
   19.0943   19.4608   23.2957 H   0  0  0  0  0  0  0  0  0  0  0  0
   20.1415   18.3298   24.8300 C   0  0  0  0  0  0  0  0  0  0  0  0
   21.1048   17.8129   24.9342 H   0  0  0  0  0  0  0  0  0  0  0  0
   19.3619   17.5615   24.9193 H   0  0  0  0  0  0  0  0  0  0  0  0
   19.9991   19.3509   25.9794 C   0  0  2  0  0  0  0  0  0  0  0  0
   20.7685   20.1188   25.8533 H   0  0  0  0  0  0  0  0  0  0  0  0
   20.2216   18.6630   27.3357 C   0  0  0  0  0  0  0  0  0  0  0  0
   20.1579   19.3898   28.1549 H   0  0  0  0  0  0  0  0  0  0  0  0
   19.4716   17.8819   27.5124 H   0  0  0  0  0  0  0  0  0  0  0  0
   21.2149   18.1991   27.3793 H   0  0  0  0  0  0  0  0  0  0  0  0
   18.6723   20.0595   25.9598 N   0  3  0  0  0  0  0  0  0  0  0  0
   18.5288   20.5602   25.0787 H   0  0  0  0  0  0  0  0  0  0  0  0
   18.6037   20.7455   26.7171 H   0  0  0  0  0  0  0  0  0  0  0  0
   17.8966   19.4012   26.0713 H   0  0  0  0  0  0  0  0  0  0  0  0
  1  2  1  0  0  0  0
  1  3  1  0  0  0  0
  1  4  1  0  0  0  0
  1  5  1  0  0  0  0
  5  6  1  0  0  0  0
  5  7  1  0  0  0  0
  5  8  1  0  0  0  0
  8  9  1  0  0  0  0
  8 10  1  0  0  0  0
  8 11  1  0  0  0  0
 11 12  1  0  0  0  0
 11 13  1  0  0  0  0
 11 14  1  0  0  0  0
 14 15  1  0  0  0  0
 14 16  1  0  0  0  0
 14 17  1  0  0  0  0
 17 18  1  0  0  0  0
 17 19  1  0  0  0  0
 17 20  1  0  0  0  0
 20 21  1  0  0  0  0
 20 22  1  0  0  0  0
 22 23  1  0  0  0  0
 22 24  1  0  0  0  0
 22 25  1  0  0  0  0
 20 26  1  0  0  0  0
 26 27  1  0  0  0  0
 26 28  1  0  0  0  0
 26 29  1  0  0  0  0
M  END
> <VM2 Rank>
87

> <Conf_Id>
1012

> <Probability>
0.03

> <Sum Probability>
99.09

> <Delta G>
3.449

> <G>
37.151

> <E>
-0.583

> <-TS>
37.734

> <U+W>
-24.728

> <U>
27.696

> <W>
-52.423

> <W(PB)>
-54.885

> <W(SA)>
2.462

> <Valence>
6.158

> <Coulomb>
20.386

> <VdW>
1.152

> <VdW6>
-9.567

> <VdW12>
10.718

> <Bond>
0.273

> <Angle>
1.662

> <Pdih>
4.223

> <Idih>
0.000

> <Tether>
0.000

$$$$
VeraChem MOL file


 29 28  0  0  0  0  0  0  0  0999 V2000     
   20.7734   18.3375   19.8236 C   0  0  0  0  0  0  0  0  0  0  0  0
   20.5823   18.9700   18.9469 H   0  0  0  0  0  0  0  0  0  0  0  0
   21.7747   18.5757   20.2055 H   0  0  0  0  0  0  0  0  0  0  0  0
   20.7800   17.2918   19.4897 H   0  0  0  0  0  0  0  0  0  0  0  0
   19.6995   18.5558   20.9102 C   0  0  0  0  0  0  0  0  0  0  0  0
   19.8954   17.8790   21.7506 H   0  0  0  0  0  0  0  0  0  0  0  0
   18.7158   18.2759   20.5079 H   0  0  0  0  0  0  0  0  0  0  0  0
   19.6630   20.0275   21.3881 C   0  0  0  0  0  0  0  0  0  0  0  0
   20.6583   20.3463   21.7269 H   0  0  0  0  0  0  0  0  0  0  0  0
   19.4209   20.6608   20.5233 H   0  0  0  0  0  0  0  0  0  0  0  0
   18.6117   20.2887   22.4981 C   0  0  0  0  0  0  0  0  0  0  0  0
   17.7804   19.5755   22.4114 H   0  0  0  0  0  0  0  0  0  0  0  0
   18.1695   21.2795   22.3237 H   0  0  0  0  0  0  0  0  0  0  0  0
   19.1747   20.2774   23.9429 C   0  0  0  0  0  0  0  0  0  0  0  0
   19.9273   21.0714   24.0461 H   0  0  0  0  0  0  0  0  0  0  0  0
   18.3556   20.5417   24.6242 H   0  0  0  0  0  0  0  0  0  0  0  0
   19.7944   18.9246   24.3744 C   0  0  0  0  0  0  0  0  0  0  0  0
   20.6613   18.7113   23.7370 H   0  0  0  0  0  0  0  0  0  0  0  0
   19.0709   18.1143   24.2141 H   0  0  0  0  0  0  0  0  0  0  0  0
   20.2648   18.9178   25.8451 C   0  0  2  0  0  0  0  0  0  0  0  0
   20.9501   19.7587   25.9903 H   0  0  0  0  0  0  0  0  0  0  0  0
   21.0234   17.6177   26.1564 C   0  0  0  0  0  0  0  0  0  0  0  0
   20.3777   16.7403   26.0252 H   0  0  0  0  0  0  0  0  0  0  0  0
   21.8917   17.5047   25.4954 H   0  0  0  0  0  0  0  0  0  0  0  0
   21.3908   17.6204   27.1900 H   0  0  0  0  0  0  0  0  0  0  0  0
   19.1312   19.1090   26.8154 N   0  3  0  0  0  0  0  0  0  0  0  0
   18.6432   19.9935   26.6514 H   0  0  0  0  0  0  0  0  0  0  0  0
   19.4651   19.1184   27.7834 H   0  0  0  0  0  0  0  0  0  0  0  0
   18.4417   18.3567   26.7362 H   0  0  0  0  0  0  0  0  0  0  0  0
  1  2  1  0  0  0  0
  1  3  1  0  0  0  0
  1  4  1  0  0  0  0
  1  5  1  0  0  0  0
  5  6  1  0  0  0  0
  5  7  1  0  0  0  0
  5  8  1  0  0  0  0
  8  9  1  0  0  0  0
  8 10  1  0  0  0  0
  8 11  1  0  0  0  0
 11 12  1  0  0  0  0
 11 13  1  0  0  0  0
 11 14  1  0  0  0  0
 14 15  1  0  0  0  0
 14 16  1  0  0  0  0
 14 17  1  0  0  0  0
 17 18  1  0  0  0  0
 17 19  1  0  0  0  0
 17 20  1  0  0  0  0
 20 21  1  0  0  0  0
 20 22  1  0  0  0  0
 22 23  1  0  0  0  0
 22 24  1  0  0  0  0
 22 25  1  0  0  0  0
 20 26  1  0  0  0  0
 26 27  1  0  0  0  0
 26 28  1  0  0  0  0
 26 29  1  0  0  0  0
M  END
> <VM2 Rank>
88

> <Conf_Id>
340

> <Probability>
0.03

> <Sum Probability>
99.12

> <Delta G>
3.449

> <G>
37.151

> <E>
-0.617

> <-TS>
37.768

> <U+W>
-24.762

> <U>
27.455

> <W>
-52.217

> <W(PB)>
-54.678

> <W(SA)>
2.461

> <Valence>
6.249

> <Coulomb>
20.070

> <VdW>
1.137

> <VdW6>
-9.668

> <VdW12>
10.805

> <Bond>
0.280

> <Angle>
1.672

> <Pdih>
4.297

> <Idih>
0.000

> <Tether>
0.000

$$$$
VeraChem MOL file


 29 28  0  0  0  0  0  0  0  0999 V2000     
   18.2579   19.1442   19.9977 C   0  0  0  0  0  0  0  0  0  0  0  0
   18.0121   20.2063   19.8680 H   0  0  0  0  0  0  0  0  0  0  0  0
   18.7918   18.8045   19.1006 H   0  0  0  0  0  0  0  0  0  0  0  0
   17.3153   18.5851   20.0604 H   0  0  0  0  0  0  0  0  0  0  0  0
   19.1078   18.9232   21.2668 C   0  0  0  0  0  0  0  0  0  0  0  0
   19.3156   17.8505   21.3843 H   0  0  0  0  0  0  0  0  0  0  0  0
   18.5246   19.2395   22.1414 H   0  0  0  0  0  0  0  0  0  0  0  0
   20.4362   19.7111   21.2077 C   0  0  0  0  0  0  0  0  0  0  0  0
   20.9448   19.4816   20.2612 H   0  0  0  0  0  0  0  0  0  0  0  0
   20.2202   20.7881   21.1843 H   0  0  0  0  0  0  0  0  0  0  0  0
   21.4158   19.4069   22.3705 C   0  0  0  0  0  0  0  0  0  0  0  0
   22.3298   19.9901   22.1921 H   0  0  0  0  0  0  0  0  0  0  0  0
   21.7266   18.3537   22.3360 H   0  0  0  0  0  0  0  0  0  0  0  0
   20.8819   19.7669   23.7815 C   0  0  0  0  0  0  0  0  0  0  0  0
   21.7227   20.1330   24.3870 H   0  0  0  0  0  0  0  0  0  0  0  0
   20.1744   20.6031   23.7066 H   0  0  0  0  0  0  0  0  0  0  0  0
   20.2445   18.5630   24.5235 C   0  0  0  0  0  0  0  0  0  0  0  0
   20.9866   17.7559   24.5853 H   0  0  0  0  0  0  0  0  0  0  0  0
   19.3982   18.1600   23.9563 H   0  0  0  0  0  0  0  0  0  0  0  0
   19.7806   18.9177   25.9526 C   0  0  2  0  0  0  0  0  0  0  0  0
   20.6335   19.3346   26.4969 H   0  0  0  0  0  0  0  0  0  0  0  0
   19.3075   17.6549   26.6902 C   0  0  0  0  0  0  0  0  0  0  0  0
   20.1109   16.9093   26.7414 H   0  0  0  0  0  0  0  0  0  0  0  0
   19.0101   17.8944   27.7186 H   0  0  0  0  0  0  0  0  0  0  0  0
   18.4485   17.1973   26.1835 H   0  0  0  0  0  0  0  0  0  0  0  0
   18.7038   19.9681   25.9634 N   0  3  0  0  0  0  0  0  0  0  0  0
   19.0190   20.8307   25.5116 H   0  0  0  0  0  0  0  0  0  0  0  0
   18.4248   20.2071   26.9193 H   0  0  0  0  0  0  0  0  0  0  0  0
   17.8660   19.6486   25.4701 H   0  0  0  0  0  0  0  0  0  0  0  0
  1  2  1  0  0  0  0
  1  3  1  0  0  0  0
  1  4  1  0  0  0  0
  1  5  1  0  0  0  0
  5  6  1  0  0  0  0
  5  7  1  0  0  0  0
  5  8  1  0  0  0  0
  8  9  1  0  0  0  0
  8 10  1  0  0  0  0
  8 11  1  0  0  0  0
 11 12  1  0  0  0  0
 11 13  1  0  0  0  0
 11 14  1  0  0  0  0
 14 15  1  0  0  0  0
 14 16  1  0  0  0  0
 14 17  1  0  0  0  0
 17 18  1  0  0  0  0
 17 19  1  0  0  0  0
 17 20  1  0  0  0  0
 20 21  1  0  0  0  0
 20 22  1  0  0  0  0
 22 23  1  0  0  0  0
 22 24  1  0  0  0  0
 22 25  1  0  0  0  0
 20 26  1  0  0  0  0
 26 27  1  0  0  0  0
 26 28  1  0  0  0  0
 26 29  1  0  0  0  0
M  END
> <VM2 Rank>
89

> <Conf_Id>
785

> <Probability>
0.03

> <Sum Probability>
99.15

> <Delta G>
3.518

> <G>
37.221

> <E>
-0.529

> <-TS>
37.750

> <U+W>
-24.674

> <U>
27.893

> <W>
-52.567

> <W(PB)>
-55.029

> <W(SA)>
2.463

> <Valence>
6.176

> <Coulomb>
20.673

> <VdW>
1.043

> <VdW6>
-9.722

> <VdW12>
10.765

> <Bond>
0.282

> <Angle>
1.681

> <Pdih>
4.213

> <Idih>
0.000

> <Tether>
0.000

$$$$
VeraChem MOL file


 29 28  0  0  0  0  0  0  0  0999 V2000     
   18.3495   20.2015   20.2678 C   0  0  0  0  0  0  0  0  0  0  0  0
   18.6857   21.2289   20.4587 H   0  0  0  0  0  0  0  0  0  0  0  0
   17.7238   20.2153   19.3660 H   0  0  0  0  0  0  0  0  0  0  0  0
   17.7141   19.8855   21.1042 H   0  0  0  0  0  0  0  0  0  0  0  0
   19.5520   19.2496   20.0762 C   0  0  0  0  0  0  0  0  0  0  0  0
   20.0820   19.5304   19.1553 H   0  0  0  0  0  0  0  0  0  0  0  0
   19.1903   18.2234   19.9218 H   0  0  0  0  0  0  0  0  0  0  0  0
   20.5554   19.2795   21.2543 C   0  0  0  0  0  0  0  0  0  0  0  0
   21.4266   18.6663   20.9851 H   0  0  0  0  0  0  0  0  0  0  0  0
   20.9291   20.3036   21.3915 H   0  0  0  0  0  0  0  0  0  0  0  0
   19.9610   18.7578   22.5843 C   0  0  0  0  0  0  0  0  0  0  0  0
   19.5491   17.7513   22.4279 H   0  0  0  0  0  0  0  0  0  0  0  0
   19.1253   19.3977   22.8834 H   0  0  0  0  0  0  0  0  0  0  0  0
   21.0291   18.7076   23.7047 C   0  0  0  0  0  0  0  0  0  0  0  0
   21.8492   18.0605   23.3640 H   0  0  0  0  0  0  0  0  0  0  0  0
   21.4715   19.7019   23.8574 H   0  0  0  0  0  0  0  0  0  0  0  0
   20.5027   18.1493   25.0533 C   0  0  0  0  0  0  0  0  0  0  0  0
   21.3490   17.6786   25.5712 H   0  0  0  0  0  0  0  0  0  0  0  0
   19.7746   17.3466   24.8762 H   0  0  0  0  0  0  0  0  0  0  0  0
   19.9081   19.2174   26.0011 C   0  0  2  0  0  0  0  0  0  0  0  0
   20.6619   19.9965   26.1508 H   0  0  0  0  0  0  0  0  0  0  0  0
   19.5867   18.5931   27.3685 C   0  0  0  0  0  0  0  0  0  0  0  0
   19.2032   19.3519   28.0617 H   0  0  0  0  0  0  0  0  0  0  0  0
   18.8320   17.8020   27.2759 H   0  0  0  0  0  0  0  0  0  0  0  0
   20.4863   18.1559   27.8195 H   0  0  0  0  0  0  0  0  0  0  0  0
   18.6914   19.9002   25.4438 N   0  3  0  0  0  0  0  0  0  0  0  0
   17.9379   19.2308   25.2660 H   0  0  0  0  0  0  0  0  0  0  0  0
   18.9060   20.3718   24.5612 H   0  0  0  0  0  0  0  0  0  0  0  0
   18.3302   20.6069   26.0909 H   0  0  0  0  0  0  0  0  0  0  0  0
  1  2  1  0  0  0  0
  1  3  1  0  0  0  0
  1  4  1  0  0  0  0
  1  5  1  0  0  0  0
  5  6  1  0  0  0  0
  5  7  1  0  0  0  0
  5  8  1  0  0  0  0
  8  9  1  0  0  0  0
  8 10  1  0  0  0  0
  8 11  1  0  0  0  0
 11 12  1  0  0  0  0
 11 13  1  0  0  0  0
 11 14  1  0  0  0  0
 14 15  1  0  0  0  0
 14 16  1  0  0  0  0
 14 17  1  0  0  0  0
 17 18  1  0  0  0  0
 17 19  1  0  0  0  0
 17 20  1  0  0  0  0
 20 21  1  0  0  0  0
 20 22  1  0  0  0  0
 22 23  1  0  0  0  0
 22 24  1  0  0  0  0
 22 25  1  0  0  0  0
 20 26  1  0  0  0  0
 26 27  1  0  0  0  0
 26 28  1  0  0  0  0
 26 29  1  0  0  0  0
M  END
> <VM2 Rank>
90

> <Conf_Id>
560

> <Probability>
0.03

> <Sum Probability>
99.18

> <Delta G>
3.528

> <G>
37.231

> <E>
-0.124

> <-TS>
37.354

> <U+W>
-24.268

> <U>
27.845

> <W>
-52.113

> <W(PB)>
-54.608

> <W(SA)>
2.495

> <Valence>
5.676

> <Coulomb>
20.988

> <VdW>
1.181

> <VdW6>
-9.499

> <VdW12>
10.681

> <Bond>
0.294

> <Angle>
1.640

> <Pdih>
3.742

> <Idih>
0.000

> <Tether>
0.000

$$$$
VeraChem MOL file


 29 28  0  0  0  0  0  0  0  0999 V2000     
   20.1286   20.8593   20.0811 C   0  0  0  0  0  0  0  0  0  0  0  0
   19.1094   21.2585   19.9961 H   0  0  0  0  0  0  0  0  0  0  0  0
   20.7009   21.5210   20.7443 H   0  0  0  0  0  0  0  0  0  0  0  0
   20.5900   20.8988   19.0858 H   0  0  0  0  0  0  0  0  0  0  0  0
   20.1146   19.4124   20.6180 C   0  0  0  0  0  0  0  0  0  0  0  0
   21.1440   19.0297   20.6610 H   0  0  0  0  0  0  0  0  0  0  0  0
   19.5659   18.7688   19.9161 H   0  0  0  0  0  0  0  0  0  0  0  0
   19.4686   19.3287   22.0185 C   0  0  0  0  0  0  0  0  0  0  0  0
   20.0174   19.9887   22.6988 H   0  0  0  0  0  0  0  0  0  0  0  0
   18.4393   19.7092   21.9652 H   0  0  0  0  0  0  0  0  0  0  0  0
   19.4562   17.8767   22.5562 C   0  0  0  0  0  0  0  0  0  0  0  0
   20.4807   17.4850   22.6211 H   0  0  0  0  0  0  0  0  0  0  0  0
   18.9382   17.2471   21.8193 H   0  0  0  0  0  0  0  0  0  0  0  0
   18.7353   17.7097   23.9196 C   0  0  0  0  0  0  0  0  0  0  0  0
   17.8616   18.3724   23.9757 H   0  0  0  0  0  0  0  0  0  0  0  0
   18.3277   16.6900   23.9589 H   0  0  0  0  0  0  0  0  0  0  0  0
   19.6446   17.8862   25.1659 C   0  0  0  0  0  0  0  0  0  0  0  0
   20.4627   17.1556   25.1114 H   0  0  0  0  0  0  0  0  0  0  0  0
   19.0657   17.6250   26.0618 H   0  0  0  0  0  0  0  0  0  0  0  0
   20.2436   19.2964   25.3529 C   0  0  2  0  0  0  0  0  0  0  0  0
   20.8510   19.5322   24.4752 H   0  0  0  0  0  0  0  0  0  0  0  0
   21.1611   19.3282   26.5853 C   0  0  0  0  0  0  0  0  0  0  0  0
   21.6214   20.3173   26.7010 H   0  0  0  0  0  0  0  0  0  0  0  0
   20.6031   19.1016   27.5024 H   0  0  0  0  0  0  0  0  0  0  0  0
   21.9705   18.5940   26.4875 H   0  0  0  0  0  0  0  0  0  0  0  0
   19.1834   20.3583   25.4566 N   0  3  0  0  0  0  0  0  0  0  0  0
   18.5832   20.2052   26.2715 H   0  0  0  0  0  0  0  0  0  0  0  0
   18.5832   20.3639   24.6275 H   0  0  0  0  0  0  0  0  0  0  0  0
   19.5948   21.2915   25.5493 H   0  0  0  0  0  0  0  0  0  0  0  0
  1  2  1  0  0  0  0
  1  3  1  0  0  0  0
  1  4  1  0  0  0  0
  1  5  1  0  0  0  0
  5  6  1  0  0  0  0
  5  7  1  0  0  0  0
  5  8  1  0  0  0  0
  8  9  1  0  0  0  0
  8 10  1  0  0  0  0
  8 11  1  0  0  0  0
 11 12  1  0  0  0  0
 11 13  1  0  0  0  0
 11 14  1  0  0  0  0
 14 15  1  0  0  0  0
 14 16  1  0  0  0  0
 14 17  1  0  0  0  0
 17 18  1  0  0  0  0
 17 19  1  0  0  0  0
 17 20  1  0  0  0  0
 20 21  1  0  0  0  0
 20 22  1  0  0  0  0
 22 23  1  0  0  0  0
 22 24  1  0  0  0  0
 22 25  1  0  0  0  0
 20 26  1  0  0  0  0
 26 27  1  0  0  0  0
 26 28  1  0  0  0  0
 26 29  1  0  0  0  0
M  END
> <VM2 Rank>
91

> <Conf_Id>
1207

> <Probability>
0.03

> <Sum Probability>
99.21

> <Delta G>
3.544

> <G>
37.247

> <E>
-0.605

> <-TS>
37.852

> <U+W>
-24.750

> <U>
27.636

> <W>
-52.386

> <W(PB)>
-54.896

> <W(SA)>
2.510

> <Valence>
5.823

> <Coulomb>
21.132

> <VdW>
0.682

> <VdW6>
-10.106

> <VdW12>
10.787

> <Bond>
0.276

> <Angle>
1.914

> <Pdih>
3.633

> <Idih>
0.000

> <Tether>
0.000

$$$$
VeraChem MOL file


 29 28  0  0  0  0  0  0  0  0999 V2000     
   20.7041   19.2161   19.8758 C   0  0  0  0  0  0  0  0  0  0  0  0
   20.2114   18.2395   19.7911 H   0  0  0  0  0  0  0  0  0  0  0  0
   20.8559   19.5992   18.8584 H   0  0  0  0  0  0  0  0  0  0  0  0
   21.6924   19.0648   20.3289 H   0  0  0  0  0  0  0  0  0  0  0  0
   19.8579   20.2072   20.7065 C   0  0  0  0  0  0  0  0  0  0  0  0
   18.8676   20.3247   20.2448 H   0  0  0  0  0  0  0  0  0  0  0  0
   20.3333   21.1974   20.6705 H   0  0  0  0  0  0  0  0  0  0  0  0
   19.6988   19.7847   22.1867 C   0  0  0  0  0  0  0  0  0  0  0  0
   20.6957   19.7040   22.6385 H   0  0  0  0  0  0  0  0  0  0  0  0
   19.1672   20.5825   22.7230 H   0  0  0  0  0  0  0  0  0  0  0  0
   18.9328   18.4506   22.3623 C   0  0  0  0  0  0  0  0  0  0  0  0
   19.5487   17.6195   21.9936 H   0  0  0  0  0  0  0  0  0  0  0  0
   18.0350   18.4704   21.7293 H   0  0  0  0  0  0  0  0  0  0  0  0
   18.4895   18.1479   23.8171 C   0  0  0  0  0  0  0  0  0  0  0  0
   17.7859   18.9160   24.1625 H   0  0  0  0  0  0  0  0  0  0  0  0
   17.9126   17.2130   23.7952 H   0  0  0  0  0  0  0  0  0  0  0  0
   19.6518   17.9651   24.8310 C   0  0  0  0  0  0  0  0  0  0  0  0
   20.4674   17.4125   24.3461 H   0  0  0  0  0  0  0  0  0  0  0  0
   19.3032   17.3262   25.6534 H   0  0  0  0  0  0  0  0  0  0  0  0
   20.1972   19.2792   25.4368 C   0  0  2  0  0  0  0  0  0  0  0  0
   20.4899   19.9498   24.6262 H   0  0  0  0  0  0  0  0  0  0  0  0
   21.4421   18.9943   26.2917 C   0  0  0  0  0  0  0  0  0  0  0  0
   21.2042   18.3281   27.1305 H   0  0  0  0  0  0  0  0  0  0  0  0
   22.2273   18.5194   25.6902 H   0  0  0  0  0  0  0  0  0  0  0  0
   21.8539   19.9252   26.7006 H   0  0  0  0  0  0  0  0  0  0  0  0
   19.1617   20.0110   26.2461 N   0  3  0  0  0  0  0  0  0  0  0  0
   19.5335   20.8859   26.6267 H   0  0  0  0  0  0  0  0  0  0  0  0
   18.8389   19.4460   27.0362 H   0  0  0  0  0  0  0  0  0  0  0  0
   18.3421   20.2462   25.6801 H   0  0  0  0  0  0  0  0  0  0  0  0
  1  2  1  0  0  0  0
  1  3  1  0  0  0  0
  1  4  1  0  0  0  0
  1  5  1  0  0  0  0
  5  6  1  0  0  0  0
  5  7  1  0  0  0  0
  5  8  1  0  0  0  0
  8  9  1  0  0  0  0
  8 10  1  0  0  0  0
  8 11  1  0  0  0  0
 11 12  1  0  0  0  0
 11 13  1  0  0  0  0
 11 14  1  0  0  0  0
 14 15  1  0  0  0  0
 14 16  1  0  0  0  0
 14 17  1  0  0  0  0
 17 18  1  0  0  0  0
 17 19  1  0  0  0  0
 17 20  1  0  0  0  0
 20 21  1  0  0  0  0
 20 22  1  0  0  0  0
 22 23  1  0  0  0  0
 22 24  1  0  0  0  0
 22 25  1  0  0  0  0
 20 26  1  0  0  0  0
 26 27  1  0  0  0  0
 26 28  1  0  0  0  0
 26 29  1  0  0  0  0
M  END
> <VM2 Rank>
92

> <Conf_Id>
1014

> <Probability>
0.03

> <Sum Probability>
99.23

> <Delta G>
3.584

> <G>
37.287

> <E>
-0.558

> <-TS>
37.844

> <U+W>
-24.702

> <U>
27.777

> <W>
-52.479

> <W(PB)>
-54.934

> <W(SA)>
2.455

> <Valence>
6.109

> <Coulomb>
20.731

> <VdW>
0.937

> <VdW6>
-10.573

> <VdW12>
11.510

> <Bond>
0.307

> <Angle>
1.995

> <Pdih>
3.807

> <Idih>
0.000

> <Tether>
0.000

$$$$
VeraChem MOL file


 29 28  0  0  0  0  0  0  0  0999 V2000     
   20.0032   19.9129   19.1689 C   0  0  0  0  0  0  0  0  0  0  0  0
   19.8947   18.9166   18.7208 H   0  0  0  0  0  0  0  0  0  0  0  0
   19.1222   20.5084   18.8961 H   0  0  0  0  0  0  0  0  0  0  0  0
   20.8843   20.3901   18.7207 H   0  0  0  0  0  0  0  0  0  0  0  0
   20.1558   19.8175   20.7017 C   0  0  0  0  0  0  0  0  0  0  0  0
   20.2922   20.8255   21.1176 H   0  0  0  0  0  0  0  0  0  0  0  0
   21.0669   19.2505   20.9350 H   0  0  0  0  0  0  0  0  0  0  0  0
   18.9264   19.1441   21.3561 C   0  0  0  0  0  0  0  0  0  0  0  0
   18.0189   19.6843   21.0528 H   0  0  0  0  0  0  0  0  0  0  0  0
   18.8175   18.1202   20.9728 H   0  0  0  0  0  0  0  0  0  0  0  0
   18.9888   19.1161   22.9028 C   0  0  0  0  0  0  0  0  0  0  0  0
   18.0405   18.7100   23.2810 H   0  0  0  0  0  0  0  0  0  0  0  0
   19.0658   20.1475   23.2680 H   0  0  0  0  0  0  0  0  0  0  0  0
   20.1636   18.2682   23.4519 C   0  0  0  0  0  0  0  0  0  0  0  0
   20.1982   17.3175   22.9021 H   0  0  0  0  0  0  0  0  0  0  0  0
   21.1165   18.7747   23.2480 H   0  0  0  0  0  0  0  0  0  0  0  0
   20.0767   17.9408   24.9660 C   0  0  0  0  0  0  0  0  0  0  0  0
   20.8867   17.2338   25.1895 H   0  0  0  0  0  0  0  0  0  0  0  0
   19.1434   17.4057   25.1857 H   0  0  0  0  0  0  0  0  0  0  0  0
   20.2189   19.1631   25.9036 C   0  0  2  0  0  0  0  0  0  0  0  0
   21.0013   19.8156   25.5040 H   0  0  0  0  0  0  0  0  0  0  0  0
   20.6418   18.7108   27.3110 C   0  0  0  0  0  0  0  0  0  0  0  0
   21.6023   18.1813   27.2794 H   0  0  0  0  0  0  0  0  0  0  0  0
   20.7620   19.5742   27.9770 H   0  0  0  0  0  0  0  0  0  0  0  0
   19.8952   18.0390   27.7528 H   0  0  0  0  0  0  0  0  0  0  0  0
   18.9607   19.9824   25.9920 N   0  3  0  0  0  0  0  0  0  0  0  0
   18.1908   19.4383   26.3905 H   0  0  0  0  0  0  0  0  0  0  0  0
   18.6625   20.3093   25.0703 H   0  0  0  0  0  0  0  0  0  0  0  0
   19.0924   20.8068   26.5852 H   0  0  0  0  0  0  0  0  0  0  0  0
  1  2  1  0  0  0  0
  1  3  1  0  0  0  0
  1  4  1  0  0  0  0
  1  5  1  0  0  0  0
  5  6  1  0  0  0  0
  5  7  1  0  0  0  0
  5  8  1  0  0  0  0
  8  9  1  0  0  0  0
  8 10  1  0  0  0  0
  8 11  1  0  0  0  0
 11 12  1  0  0  0  0
 11 13  1  0  0  0  0
 11 14  1  0  0  0  0
 14 15  1  0  0  0  0
 14 16  1  0  0  0  0
 14 17  1  0  0  0  0
 17 18  1  0  0  0  0
 17 19  1  0  0  0  0
 17 20  1  0  0  0  0
 20 21  1  0  0  0  0
 20 22  1  0  0  0  0
 22 23  1  0  0  0  0
 22 24  1  0  0  0  0
 22 25  1  0  0  0  0
 20 26  1  0  0  0  0
 26 27  1  0  0  0  0
 26 28  1  0  0  0  0
 26 29  1  0  0  0  0
M  END
> <VM2 Rank>
93

> <Conf_Id>
861

> <Probability>
0.03

> <Sum Probability>
99.26

> <Delta G>
3.591

> <G>
37.293

> <E>
-0.217

> <-TS>
37.510

> <U+W>
-24.362

> <U>
27.700

> <W>
-52.062

> <W(PB)>
-54.563

> <W(SA)>
2.501

> <Valence>
5.425

> <Coulomb>
21.143

> <VdW>
1.132

> <VdW6>
-9.721

> <VdW12>
10.853

> <Bond>
0.283

> <Angle>
1.776

> <Pdih>
3.367

> <Idih>
0.000

> <Tether>
0.000

$$$$
VeraChem MOL file


 29 28  0  0  0  0  0  0  0  0999 V2000     
   18.3479   19.7128   20.0265 C   0  0  0  0  0  0  0  0  0  0  0  0
   17.7352   19.7917   20.9329 H   0  0  0  0  0  0  0  0  0  0  0  0
   17.9137   20.3853   19.2754 H   0  0  0  0  0  0  0  0  0  0  0  0
   18.2679   18.6867   19.6447 H   0  0  0  0  0  0  0  0  0  0  0  0
   19.8212   20.0896   20.3020 C   0  0  0  0  0  0  0  0  0  0  0  0
   19.8718   21.1082   20.7113 H   0  0  0  0  0  0  0  0  0  0  0  0
   20.3648   20.1147   19.3472 H   0  0  0  0  0  0  0  0  0  0  0  0
   20.5397   19.1053   21.2563 C   0  0  0  0  0  0  0  0  0  0  0  0
   20.5101   18.0937   20.8286 H   0  0  0  0  0  0  0  0  0  0  0  0
   21.6006   19.3861   21.3132 H   0  0  0  0  0  0  0  0  0  0  0  0
   19.9445   19.0869   22.6844 C   0  0  0  0  0  0  0  0  0  0  0  0
   18.9080   18.7264   22.6498 H   0  0  0  0  0  0  0  0  0  0  0  0
   19.9275   20.1141   23.0680 H   0  0  0  0  0  0  0  0  0  0  0  0
   20.7687   18.1848   23.6335 C   0  0  0  0  0  0  0  0  0  0  0  0
   20.9297   17.2138   23.1449 H   0  0  0  0  0  0  0  0  0  0  0  0
   21.7665   18.6213   23.7794 H   0  0  0  0  0  0  0  0  0  0  0  0
   20.1138   17.9204   25.0150 C   0  0  0  0  0  0  0  0  0  0  0  0
   20.7453   17.1881   25.5356 H   0  0  0  0  0  0  0  0  0  0  0  0
   19.1378   17.4345   24.8848 H   0  0  0  0  0  0  0  0  0  0  0  0
   19.9649   19.1710   25.9136 C   0  0  2  0  0  0  0  0  0  0  0  0
   20.8626   19.7866   25.8005 H   0  0  0  0  0  0  0  0  0  0  0  0
   19.8471   18.7583   27.3902 C   0  0  0  0  0  0  0  0  0  0  0  0
   19.7575   19.6415   28.0347 H   0  0  0  0  0  0  0  0  0  0  0  0
   18.9677   18.1232   27.5556 H   0  0  0  0  0  0  0  0  0  0  0  0
   20.7362   18.2023   27.7129 H   0  0  0  0  0  0  0  0  0  0  0  0
   18.7881   20.0270   25.5324 N   0  3  0  0  0  0  0  0  0  0  0  0
   18.8431   20.3245   24.5557 H   0  0  0  0  0  0  0  0  0  0  0  0
   18.7366   20.8704   26.1110 H   0  0  0  0  0  0  0  0  0  0  0  0
   17.9069   19.5201   25.6513 H   0  0  0  0  0  0  0  0  0  0  0  0
  1  2  1  0  0  0  0
  1  3  1  0  0  0  0
  1  4  1  0  0  0  0
  1  5  1  0  0  0  0
  5  6  1  0  0  0  0
  5  7  1  0  0  0  0
  5  8  1  0  0  0  0
  8  9  1  0  0  0  0
  8 10  1  0  0  0  0
  8 11  1  0  0  0  0
 11 12  1  0  0  0  0
 11 13  1  0  0  0  0
 11 14  1  0  0  0  0
 14 15  1  0  0  0  0
 14 16  1  0  0  0  0
 14 17  1  0  0  0  0
 17 18  1  0  0  0  0
 17 19  1  0  0  0  0
 17 20  1  0  0  0  0
 20 21  1  0  0  0  0
 20 22  1  0  0  0  0
 22 23  1  0  0  0  0
 22 24  1  0  0  0  0
 22 25  1  0  0  0  0
 20 26  1  0  0  0  0
 26 27  1  0  0  0  0
 26 28  1  0  0  0  0
 26 29  1  0  0  0  0
M  END
> <VM2 Rank>
94

> <Conf_Id>
1010

> <Probability>
0.02

> <Sum Probability>
99.28

> <Delta G>
3.717

> <G>
37.420

> <E>
-0.103

> <-TS>
37.523

> <U+W>
-24.248

> <U>
27.822

> <W>
-52.069

> <W(PB)>
-54.586

> <W(SA)>
2.516

> <Valence>
5.451

> <Coulomb>
21.220

> <VdW>
1.151

> <VdW6>
-9.707

> <VdW12>
10.858

> <Bond>
0.277

> <Angle>
1.825

> <Pdih>
3.348

> <Idih>
0.000

> <Tether>
0.000

$$$$
VeraChem MOL file


 29 28  0  0  0  0  0  0  0  0999 V2000     
   18.4835   18.6343   19.9310 C   0  0  0  0  0  0  0  0  0  0  0  0
   18.6700   19.3484   19.1183 H   0  0  0  0  0  0  0  0  0  0  0  0
   18.9310   17.6719   19.6502 H   0  0  0  0  0  0  0  0  0  0  0  0
   17.3981   18.4911   20.0110 H   0  0  0  0  0  0  0  0  0  0  0  0
   19.0651   19.1473   21.2654 C   0  0  0  0  0  0  0  0  0  0  0  0
   18.8246   18.4246   22.0561 H   0  0  0  0  0  0  0  0  0  0  0  0
   18.5807   20.0967   21.5332 H   0  0  0  0  0  0  0  0  0  0  0  0
   20.5957   19.3451   21.1816 C   0  0  0  0  0  0  0  0  0  0  0  0
   21.0791   18.3743   21.0053 H   0  0  0  0  0  0  0  0  0  0  0  0
   20.8278   19.9651   20.3046 H   0  0  0  0  0  0  0  0  0  0  0  0
   21.2259   20.0152   22.4299 C   0  0  0  0  0  0  0  0  0  0  0  0
   20.8342   21.0348   22.5485 H   0  0  0  0  0  0  0  0  0  0  0  0
   22.3005   20.1332   22.2333 H   0  0  0  0  0  0  0  0  0  0  0  0
   21.0615   19.2156   23.7489 C   0  0  0  0  0  0  0  0  0  0  0  0
   21.0018   18.1434   23.5223 H   0  0  0  0  0  0  0  0  0  0  0  0
   21.9705   19.3493   24.3516 H   0  0  0  0  0  0  0  0  0  0  0  0
   19.8487   19.6766   24.5999 C   0  0  0  0  0  0  0  0  0  0  0  0
   18.9132   19.5517   24.0433 H   0  0  0  0  0  0  0  0  0  0  0  0
   19.9503   20.7532   24.7901 H   0  0  0  0  0  0  0  0  0  0  0  0
   19.7357   18.9512   25.9599 C   0  0  2  0  0  0  0  0  0  0  0  0
   20.6962   19.0383   26.4771 H   0  0  0  0  0  0  0  0  0  0  0  0
   19.4037   17.4574   25.7927 C   0  0  0  0  0  0  0  0  0  0  0  0
   20.2086   16.9244   25.2740 H   0  0  0  0  0  0  0  0  0  0  0  0
   19.2766   16.9784   26.7714 H   0  0  0  0  0  0  0  0  0  0  0  0
   18.4763   17.3183   25.2232 H   0  0  0  0  0  0  0  0  0  0  0  0
   18.7162   19.6132   26.8447 N   0  3  0  0  0  0  0  0  0  0  0  0
   17.7803   19.5733   26.4322 H   0  0  0  0  0  0  0  0  0  0  0  0
   18.9403   20.5994   27.0058 H   0  0  0  0  0  0  0  0  0  0  0  0
   18.6657   19.1591   27.7612 H   0  0  0  0  0  0  0  0  0  0  0  0
  1  2  1  0  0  0  0
  1  3  1  0  0  0  0
  1  4  1  0  0  0  0
  1  5  1  0  0  0  0
  5  6  1  0  0  0  0
  5  7  1  0  0  0  0
  5  8  1  0  0  0  0
  8  9  1  0  0  0  0
  8 10  1  0  0  0  0
  8 11  1  0  0  0  0
 11 12  1  0  0  0  0
 11 13  1  0  0  0  0
 11 14  1  0  0  0  0
 14 15  1  0  0  0  0
 14 16  1  0  0  0  0
 14 17  1  0  0  0  0
 17 18  1  0  0  0  0
 17 19  1  0  0  0  0
 17 20  1  0  0  0  0
 20 21  1  0  0  0  0
 20 22  1  0  0  0  0
 22 23  1  0  0  0  0
 22 24  1  0  0  0  0
 22 25  1  0  0  0  0
 20 26  1  0  0  0  0
 26 27  1  0  0  0  0
 26 28  1  0  0  0  0
 26 29  1  0  0  0  0
M  END
> <VM2 Rank>
95

> <Conf_Id>
522

> <Probability>
0.02

> <Sum Probability>
99.30

> <Delta G>
3.721

> <G>
37.424

> <E>
-0.308

> <-TS>
37.731

> <U+W>
-24.452

> <U>
28.051

> <W>
-52.504

> <W(PB)>
-54.966

> <W(SA)>
2.462

> <Valence>
6.726

> <Coulomb>
20.161

> <VdW>
1.165

> <VdW6>
-9.905

> <VdW12>
11.070

> <Bond>
0.295

> <Angle>
1.942

> <Pdih>
4.488

> <Idih>
0.000

> <Tether>
0.000

$$$$
VeraChem MOL file


 29 28  0  0  0  0  0  0  0  0999 V2000     
   19.6762   19.5329   18.9981 C   0  0  0  0  0  0  0  0  0  0  0  0
   18.8883   20.2657   18.7806 H   0  0  0  0  0  0  0  0  0  0  0  0
   20.6481   20.0260   18.8657 H   0  0  0  0  0  0  0  0  0  0  0  0
   19.6023   18.7284   18.2549 H   0  0  0  0  0  0  0  0  0  0  0  0
   19.5312   18.9692   20.4276 C   0  0  0  0  0  0  0  0  0  0  0  0
   20.3084   18.2113   20.5903 H   0  0  0  0  0  0  0  0  0  0  0  0
   18.5630   18.4576   20.5201 H   0  0  0  0  0  0  0  0  0  0  0  0
   19.6359   20.0862   21.4931 C   0  0  0  0  0  0  0  0  0  0  0  0
   20.6236   20.5642   21.4361 H   0  0  0  0  0  0  0  0  0  0  0  0
   18.9016   20.8687   21.2566 H   0  0  0  0  0  0  0  0  0  0  0  0
   19.3769   19.5958   22.9392 C   0  0  0  0  0  0  0  0  0  0  0  0
   18.4079   19.0797   22.9833 H   0  0  0  0  0  0  0  0  0  0  0  0
   19.2965   20.4843   23.5765 H   0  0  0  0  0  0  0  0  0  0  0  0
   20.4951   18.6744   23.4891 C   0  0  0  0  0  0  0  0  0  0  0  0
   20.6674   17.8504   22.7857 H   0  0  0  0  0  0  0  0  0  0  0  0
   21.4387   19.2353   23.5378 H   0  0  0  0  0  0  0  0  0  0  0  0
   20.1975   18.0455   24.8760 C   0  0  0  0  0  0  0  0  0  0  0  0
   21.0161   17.3464   25.0933 H   0  0  0  0  0  0  0  0  0  0  0  0
   19.2875   17.4331   24.8266 H   0  0  0  0  0  0  0  0  0  0  0  0
   20.0898   19.0577   26.0412 C   0  0  2  0  0  0  0  0  0  0  0  0
   20.8361   19.8431   25.8871 H   0  0  0  0  0  0  0  0  0  0  0  0
   20.3886   18.3660   27.3816 C   0  0  0  0  0  0  0  0  0  0  0  0
   19.6757   17.5550   27.5772 H   0  0  0  0  0  0  0  0  0  0  0  0
   21.4001   17.9408   27.3852 H   0  0  0  0  0  0  0  0  0  0  0  0
   20.3282   19.0820   28.2106 H   0  0  0  0  0  0  0  0  0  0  0  0
   18.7448   19.7284   26.1081 N   0  3  0  0  0  0  0  0  0  0  0  0
   18.0005   19.0497   26.2899 H   0  0  0  0  0  0  0  0  0  0  0  0
   18.5195   20.2046   25.2318 H   0  0  0  0  0  0  0  0  0  0  0  0
   18.7120   20.4262   26.8570 H   0  0  0  0  0  0  0  0  0  0  0  0
  1  2  1  0  0  0  0
  1  3  1  0  0  0  0
  1  4  1  0  0  0  0
  1  5  1  0  0  0  0
  5  6  1  0  0  0  0
  5  7  1  0  0  0  0
  5  8  1  0  0  0  0
  8  9  1  0  0  0  0
  8 10  1  0  0  0  0
  8 11  1  0  0  0  0
 11 12  1  0  0  0  0
 11 13  1  0  0  0  0
 11 14  1  0  0  0  0
 14 15  1  0  0  0  0
 14 16  1  0  0  0  0
 14 17  1  0  0  0  0
 17 18  1  0  0  0  0
 17 19  1  0  0  0  0
 17 20  1  0  0  0  0
 20 21  1  0  0  0  0
 20 22  1  0  0  0  0
 22 23  1  0  0  0  0
 22 24  1  0  0  0  0
 22 25  1  0  0  0  0
 20 26  1  0  0  0  0
 26 27  1  0  0  0  0
 26 28  1  0  0  0  0
 26 29  1  0  0  0  0
M  END
> <VM2 Rank>
96

> <Conf_Id>
1520

> <Probability>
0.02

> <Sum Probability>
99.32

> <Delta G>
3.747

> <G>
37.449

> <E>
0.044

> <-TS>
37.405

> <U+W>
-24.101

> <U>
28.001

> <W>
-52.102

> <W(PB)>
-54.571

> <W(SA)>
2.469

> <Valence>
5.678

> <Coulomb>
21.086

> <VdW>
1.237

> <VdW6>
-9.584

> <VdW12>
10.821

> <Bond>
0.291

> <Angle>
1.937

> <Pdih>
3.450

> <Idih>
0.000

> <Tether>
0.000

$$$$
VeraChem MOL file


 29 28  0  0  0  0  0  0  0  0999 V2000     
   20.9067   20.3700   20.5248 C   0  0  0  0  0  0  0  0  0  0  0  0
   20.8949   21.3677   20.0673 H   0  0  0  0  0  0  0  0  0  0  0  0
   21.1629   20.4933   21.5827 H   0  0  0  0  0  0  0  0  0  0  0  0
   21.7106   19.7947   20.0475 H   0  0  0  0  0  0  0  0  0  0  0  0
   19.5403   19.6714   20.3333 C   0  0  0  0  0  0  0  0  0  0  0  0
   19.3413   19.6083   19.2543 H   0  0  0  0  0  0  0  0  0  0  0  0
   18.7336   20.2879   20.7538 H   0  0  0  0  0  0  0  0  0  0  0  0
   19.4912   18.2406   20.9283 C   0  0  0  0  0  0  0  0  0  0  0  0
   18.8608   17.6208   20.2758 H   0  0  0  0  0  0  0  0  0  0  0  0
   20.4890   17.7818   20.8975 H   0  0  0  0  0  0  0  0  0  0  0  0
   18.9070   18.1505   22.3618 C   0  0  0  0  0  0  0  0  0  0  0  0
   18.8596   17.0905   22.6472 H   0  0  0  0  0  0  0  0  0  0  0  0
   17.8696   18.5123   22.3557 H   0  0  0  0  0  0  0  0  0  0  0  0
   19.7153   18.9231   23.4298 C   0  0  0  0  0  0  0  0  0  0  0  0
   20.7720   18.6347   23.3572 H   0  0  0  0  0  0  0  0  0  0  0  0
   19.6544   20.0005   23.2291 H   0  0  0  0  0  0  0  0  0  0  0  0
   19.1860   18.6481   24.8587 C   0  0  0  0  0  0  0  0  0  0  0  0
   19.3077   17.5839   25.1006 H   0  0  0  0  0  0  0  0  0  0  0  0
   18.1068   18.8500   24.8763 H   0  0  0  0  0  0  0  0  0  0  0  0
   19.8626   19.5095   25.9492 C   0  0  2  0  0  0  0  0  0  0  0  0
   19.7594   20.5622   25.6682 H   0  0  0  0  0  0  0  0  0  0  0  0
   21.3610   19.1891   26.0958 C   0  0  0  0  0  0  0  0  0  0  0  0
   21.5198   18.1259   26.3151 H   0  0  0  0  0  0  0  0  0  0  0  0
   21.9134   19.4384   25.1825 H   0  0  0  0  0  0  0  0  0  0  0  0
   21.8031   19.7743   26.9115 H   0  0  0  0  0  0  0  0  0  0  0  0
   19.1659   19.3537   27.2723 N   0  3  0  0  0  0  0  0  0  0  0  0
   19.2183   18.3893   27.6112 H   0  0  0  0  0  0  0  0  0  0  0  0
   18.1749   19.6042   27.2085 H   0  0  0  0  0  0  0  0  0  0  0  0
   19.5858   19.9527   27.9890 H   0  0  0  0  0  0  0  0  0  0  0  0
  1  2  1  0  0  0  0
  1  3  1  0  0  0  0
  1  4  1  0  0  0  0
  1  5  1  0  0  0  0
  5  6  1  0  0  0  0
  5  7  1  0  0  0  0
  5  8  1  0  0  0  0
  8  9  1  0  0  0  0
  8 10  1  0  0  0  0
  8 11  1  0  0  0  0
 11 12  1  0  0  0  0
 11 13  1  0  0  0  0
 11 14  1  0  0  0  0
 14 15  1  0  0  0  0
 14 16  1  0  0  0  0
 14 17  1  0  0  0  0
 17 18  1  0  0  0  0
 17 19  1  0  0  0  0
 17 20  1  0  0  0  0
 20 21  1  0  0  0  0
 20 22  1  0  0  0  0
 22 23  1  0  0  0  0
 22 24  1  0  0  0  0
 22 25  1  0  0  0  0
 20 26  1  0  0  0  0
 26 27  1  0  0  0  0
 26 28  1  0  0  0  0
 26 29  1  0  0  0  0
M  END
> <VM2 Rank>
97

> <Conf_Id>
1048

> <Probability>
0.02

> <Sum Probability>
99.34

> <Delta G>
3.748

> <G>
37.450

> <E>
-0.302

> <-TS>
37.753

> <U+W>
-24.447

> <U>
27.666

> <W>
-52.112

> <W(PB)>
-54.553

> <W(SA)>
2.441

> <Valence>
6.691

> <Coulomb>
19.707

> <VdW>
1.268

> <VdW6>
-9.727

> <VdW12>
10.994

> <Bond>
0.283

> <Angle>
1.951

> <Pdih>
4.457

> <Idih>
0.000

> <Tether>
0.000

$$$$
VeraChem MOL file


 29 28  0  0  0  0  0  0  0  0999 V2000     
   20.0423   20.7262   20.6115 C   0  0  0  0  0  0  0  0  0  0  0  0
   19.3811   20.9783   21.4497 H   0  0  0  0  0  0  0  0  0  0  0  0
   21.0825   20.7725   20.9590 H   0  0  0  0  0  0  0  0  0  0  0  0
   19.9091   21.5006   19.8451 H   0  0  0  0  0  0  0  0  0  0  0  0
   19.7089   19.3333   20.0344 C   0  0  0  0  0  0  0  0  0  0  0  0
   20.2700   19.1962   19.0995 H   0  0  0  0  0  0  0  0  0  0  0  0
   18.6457   19.2982   19.7590 H   0  0  0  0  0  0  0  0  0  0  0  0
   20.0392   18.1527   20.9829 C   0  0  0  0  0  0  0  0  0  0  0  0
   19.8074   17.2229   20.4453 H   0  0  0  0  0  0  0  0  0  0  0  0
   21.1193   18.1184   21.1810 H   0  0  0  0  0  0  0  0  0  0  0  0
   19.2462   18.1497   22.3159 C   0  0  0  0  0  0  0  0  0  0  0  0
   19.0321   17.1074   22.5901 H   0  0  0  0  0  0  0  0  0  0  0  0
   18.2698   18.6328   22.1731 H   0  0  0  0  0  0  0  0  0  0  0  0
   20.0112   18.8088   23.4898 C   0  0  0  0  0  0  0  0  0  0  0  0
   20.9589   18.2751   23.6383 H   0  0  0  0  0  0  0  0  0  0  0  0
   20.2691   19.8457   23.2442 H   0  0  0  0  0  0  0  0  0  0  0  0
   19.1817   18.7854   24.7971 C   0  0  0  0  0  0  0  0  0  0  0  0
   18.9859   17.7462   25.0933 H   0  0  0  0  0  0  0  0  0  0  0  0
   18.2032   19.2419   24.5977 H   0  0  0  0  0  0  0  0  0  0  0  0
   19.8447   19.5443   25.9692 C   0  0  2  0  0  0  0  0  0  0  0  0
   20.0656   20.5634   25.6371 H   0  0  0  0  0  0  0  0  0  0  0  0
   21.1595   18.8829   26.4198 C   0  0  0  0  0  0  0  0  0  0  0  0
   21.5795   19.4089   27.2860 H   0  0  0  0  0  0  0  0  0  0  0  0
   20.9999   17.8350   26.7029 H   0  0  0  0  0  0  0  0  0  0  0  0
   21.9143   18.9137   25.6255 H   0  0  0  0  0  0  0  0  0  0  0  0
   18.9022   19.6727   27.1334 N   0  3  0  0  0  0  0  0  0  0  0  0
   19.3227   20.2092   27.8977 H   0  0  0  0  0  0  0  0  0  0  0  0
   18.6449   18.7560   27.5091 H   0  0  0  0  0  0  0  0  0  0  0  0
   18.0362   20.1502   26.8668 H   0  0  0  0  0  0  0  0  0  0  0  0
  1  2  1  0  0  0  0
  1  3  1  0  0  0  0
  1  4  1  0  0  0  0
  1  5  1  0  0  0  0
  5  6  1  0  0  0  0
  5  7  1  0  0  0  0
  5  8  1  0  0  0  0
  8  9  1  0  0  0  0
  8 10  1  0  0  0  0
  8 11  1  0  0  0  0
 11 12  1  0  0  0  0
 11 13  1  0  0  0  0
 11 14  1  0  0  0  0
 14 15  1  0  0  0  0
 14 16  1  0  0  0  0
 14 17  1  0  0  0  0
 17 18  1  0  0  0  0
 17 19  1  0  0  0  0
 17 20  1  0  0  0  0
 20 21  1  0  0  0  0
 20 22  1  0  0  0  0
 22 23  1  0  0  0  0
 22 24  1  0  0  0  0
 22 25  1  0  0  0  0
 20 26  1  0  0  0  0
 26 27  1  0  0  0  0
 26 28  1  0  0  0  0
 26 29  1  0  0  0  0
M  END
> <VM2 Rank>
98

> <Conf_Id>
1603

> <Probability>
0.02

> <Sum Probability>
99.35

> <Delta G>
3.752

> <G>
37.454

> <E>
-0.296

> <-TS>
37.750

> <U+W>
-24.440

> <U>
27.705

> <W>
-52.145

> <W(PB)>
-54.638

> <W(SA)>
2.493

> <Valence>
6.675

> <Coulomb>
19.752

> <VdW>
1.278

> <VdW6>
-9.693

> <VdW12>
10.971

> <Bond>
0.285

> <Angle>
1.923

> <Pdih>
4.468

> <Idih>
0.000

> <Tether>
0.000

$$$$
VeraChem MOL file


 29 28  0  0  0  0  0  0  0  0999 V2000     
   20.7517   18.0433   20.6075 C   0  0  0  0  0  0  0  0  0  0  0  0
   20.3169   17.4798   21.4422 H   0  0  0  0  0  0  0  0  0  0  0  0
   21.0077   17.3202   19.8224 H   0  0  0  0  0  0  0  0  0  0  0  0
   21.6834   18.5128   20.9487 H   0  0  0  0  0  0  0  0  0  0  0  0
   19.7615   19.0979   20.0672 C   0  0  0  0  0  0  0  0  0  0  0  0
   18.8177   18.6053   19.7948 H   0  0  0  0  0  0  0  0  0  0  0  0
   20.1665   19.5160   19.1350 H   0  0  0  0  0  0  0  0  0  0  0  0
   19.4744   20.2657   21.0453 C   0  0  0  0  0  0  0  0  0  0  0  0
   20.3970   20.8286   21.2425 H   0  0  0  0  0  0  0  0  0  0  0  0
   18.8031   20.9683   20.5324 H   0  0  0  0  0  0  0  0  0  0  0  0
   18.8045   19.8445   22.3792 C   0  0  0  0  0  0  0  0  0  0  0  0
   18.2013   18.9387   22.2276 H   0  0  0  0  0  0  0  0  0  0  0  0
   18.0995   20.6326   22.6776 H   0  0  0  0  0  0  0  0  0  0  0  0
   19.8132   19.6351   23.5351 C   0  0  0  0  0  0  0  0  0  0  0  0
   20.5606   18.8885   23.2461 H   0  0  0  0  0  0  0  0  0  0  0  0
   20.3577   20.5720   23.7164 H   0  0  0  0  0  0  0  0  0  0  0  0
   19.1047   19.1925   24.8388 C   0  0  0  0  0  0  0  0  0  0  0  0
   18.6086   18.2257   24.6803 H   0  0  0  0  0  0  0  0  0  0  0  0
   18.3110   19.9157   25.0681 H   0  0  0  0  0  0  0  0  0  0  0  0
   20.0483   19.0984   26.0596 C   0  0  2  0  0  0  0  0  0  0  0  0
   20.5636   20.0575   26.1700 H   0  0  0  0  0  0  0  0  0  0  0  0
   21.1062   17.9928   25.8923 C   0  0  0  0  0  0  0  0  0  0  0  0
   20.6363   17.0179   25.7122 H   0  0  0  0  0  0  0  0  0  0  0  0
   21.7813   18.2091   25.0564 H   0  0  0  0  0  0  0  0  0  0  0  0
   21.7247   17.9106   26.7946 H   0  0  0  0  0  0  0  0  0  0  0  0
   19.2715   18.8860   27.3291 N   0  3  0  0  0  0  0  0  0  0  0  0
   18.5900   19.6346   27.4840 H   0  0  0  0  0  0  0  0  0  0  0  0
   19.8888   18.8626   28.1458 H   0  0  0  0  0  0  0  0  0  0  0  0
   18.7574   18.0011   27.3094 H   0  0  0  0  0  0  0  0  0  0  0  0
  1  2  1  0  0  0  0
  1  3  1  0  0  0  0
  1  4  1  0  0  0  0
  1  5  1  0  0  0  0
  5  6  1  0  0  0  0
  5  7  1  0  0  0  0
  5  8  1  0  0  0  0
  8  9  1  0  0  0  0
  8 10  1  0  0  0  0
  8 11  1  0  0  0  0
 11 12  1  0  0  0  0
 11 13  1  0  0  0  0
 11 14  1  0  0  0  0
 14 15  1  0  0  0  0
 14 16  1  0  0  0  0
 14 17  1  0  0  0  0
 17 18  1  0  0  0  0
 17 19  1  0  0  0  0
 17 20  1  0  0  0  0
 20 21  1  0  0  0  0
 20 22  1  0  0  0  0
 22 23  1  0  0  0  0
 22 24  1  0  0  0  0
 22 25  1  0  0  0  0
 20 26  1  0  0  0  0
 26 27  1  0  0  0  0
 26 28  1  0  0  0  0
 26 29  1  0  0  0  0
M  END
> <VM2 Rank>
99

> <Conf_Id>
150

> <Probability>
0.02

> <Sum Probability>
99.37

> <Delta G>
3.754

> <G>
37.457

> <E>
-0.303

> <-TS>
37.759

> <U+W>
-24.447

> <U>
27.632

> <W>
-52.080

> <W(PB)>
-54.518

> <W(SA)>
2.438

> <Valence>
6.676

> <Coulomb>
19.710

> <VdW>
1.247

> <VdW6>
-9.759

> <VdW12>
11.005

> <Bond>
0.286

> <Angle>
1.893

> <Pdih>
4.497

> <Idih>
0.000

> <Tether>
0.000

$$$$
VeraChem MOL file


 29 28  0  0  0  0  0  0  0  0999 V2000     
   18.8981   17.9583   20.7184 C   0  0  0  0  0  0  0  0  0  0  0  0
   18.6741   17.2484   19.9117 H   0  0  0  0  0  0  0  0  0  0  0  0
   19.4924   17.4233   21.4694 H   0  0  0  0  0  0  0  0  0  0  0  0
   17.9463   18.2602   21.1743 H   0  0  0  0  0  0  0  0  0  0  0  0
   19.6632   19.1800   20.1647 C   0  0  0  0  0  0  0  0  0  0  0  0
   19.1105   19.5808   19.3035 H   0  0  0  0  0  0  0  0  0  0  0  0
   20.6376   18.8535   19.7754 H   0  0  0  0  0  0  0  0  0  0  0  0
   19.8706   20.3235   21.1905 C   0  0  0  0  0  0  0  0  0  0  0  0
   20.3770   21.1472   20.6686 H   0  0  0  0  0  0  0  0  0  0  0  0
   18.8992   20.7271   21.5076 H   0  0  0  0  0  0  0  0  0  0  0  0
   20.7239   19.9385   22.4270 C   0  0  0  0  0  0  0  0  0  0  0  0
   21.3300   20.8085   22.7154 H   0  0  0  0  0  0  0  0  0  0  0  0
   21.4371   19.1466   22.1597 H   0  0  0  0  0  0  0  0  0  0  0  0
   19.8769   19.5131   23.6513 C   0  0  0  0  0  0  0  0  0  0  0  0
   19.2181   20.3441   23.9355 H   0  0  0  0  0  0  0  0  0  0  0  0
   19.2264   18.6745   23.3810 H   0  0  0  0  0  0  0  0  0  0  0  0
   20.7731   19.1161   24.8531 C   0  0  0  0  0  0  0  0  0  0  0  0
   21.4443   19.9508   25.0938 H   0  0  0  0  0  0  0  0  0  0  0  0
   21.4229   18.2808   24.5601 H   0  0  0  0  0  0  0  0  0  0  0  0
   20.0049   18.7208   26.1364 C   0  0  2  0  0  0  0  0  0  0  0  0
   20.7507   18.4979   26.9057 H   0  0  0  0  0  0  0  0  0  0  0  0
   19.1528   17.4555   25.9348 C   0  0  0  0  0  0  0  0  0  0  0  0
   18.7324   17.1205   26.8909 H   0  0  0  0  0  0  0  0  0  0  0  0
   18.3180   17.6334   25.2465 H   0  0  0  0  0  0  0  0  0  0  0  0
   19.7611   16.6355   25.5335 H   0  0  0  0  0  0  0  0  0  0  0  0
   19.1725   19.8502   26.6778 N   0  3  0  0  0  0  0  0  0  0  0  0
   18.4351   20.1158   26.0205 H   0  0  0  0  0  0  0  0  0  0  0  0
   19.7411   20.6828   26.8572 H   0  0  0  0  0  0  0  0  0  0  0  0
   18.7204   19.5923   27.5597 H   0  0  0  0  0  0  0  0  0  0  0  0
  1  2  1  0  0  0  0
  1  3  1  0  0  0  0
  1  4  1  0  0  0  0
  1  5  1  0  0  0  0
  5  6  1  0  0  0  0
  5  7  1  0  0  0  0
  5  8  1  0  0  0  0
  8  9  1  0  0  0  0
  8 10  1  0  0  0  0
  8 11  1  0  0  0  0
 11 12  1  0  0  0  0
 11 13  1  0  0  0  0
 11 14  1  0  0  0  0
 14 15  1  0  0  0  0
 14 16  1  0  0  0  0
 14 17  1  0  0  0  0
 17 18  1  0  0  0  0
 17 19  1  0  0  0  0
 17 20  1  0  0  0  0
 20 21  1  0  0  0  0
 20 22  1  0  0  0  0
 22 23  1  0  0  0  0
 22 24  1  0  0  0  0
 22 25  1  0  0  0  0
 20 26  1  0  0  0  0
 26 27  1  0  0  0  0
 26 28  1  0  0  0  0
 26 29  1  0  0  0  0
M  END
> <VM2 Rank>
100

> <Conf_Id>
651

> <Probability>
0.02

> <Sum Probability>
99.39

> <Delta G>
3.773

> <G>
37.475

> <E>
-0.419

> <-TS>
37.894

> <U+W>
-24.563

> <U>
27.852

> <W>
-52.415

> <W(PB)>
-54.827

> <W(SA)>
2.412

> <Valence>
6.641

> <Coulomb>
19.992

> <VdW>
1.219

> <VdW6>
-10.253

> <VdW12>
11.472

> <Bond>
0.310

> <Angle>
1.947

> <Pdih>
4.384

> <Idih>
0.000

> <Tether>
0.000

$$$$
VeraChem MOL file


 29 28  0  0  0  0  0  0  0  0999 V2000     
   18.2553   19.4235   20.0096 C   0  0  0  0  0  0  0  0  0  0  0  0
   18.6989   19.0882   19.0630 H   0  0  0  0  0  0  0  0  0  0  0  0
   17.6337   18.6089   20.4035 H   0  0  0  0  0  0  0  0  0  0  0  0
   17.5970   20.2742   19.7905 H   0  0  0  0  0  0  0  0  0  0  0  0
   19.3477   19.8264   21.0225 C   0  0  0  0  0  0  0  0  0  0  0  0
   18.8691   20.1966   21.9368 H   0  0  0  0  0  0  0  0  0  0  0  0
   19.9293   20.6642   20.6131 H   0  0  0  0  0  0  0  0  0  0  0  0
   20.2950   18.6441   21.3389 C   0  0  0  0  0  0  0  0  0  0  0  0
   19.7212   17.7788   21.6982 H   0  0  0  0  0  0  0  0  0  0  0  0
   20.7669   18.3252   20.3992 H   0  0  0  0  0  0  0  0  0  0  0  0
   21.4142   19.0000   22.3521 C   0  0  0  0  0  0  0  0  0  0  0  0
   21.6776   20.0637   22.2724 H   0  0  0  0  0  0  0  0  0  0  0  0
   22.3210   18.4493   22.0658 H   0  0  0  0  0  0  0  0  0  0  0  0
   21.0949   18.6362   23.8251 C   0  0  0  0  0  0  0  0  0  0  0  0
   20.9324   17.5525   23.8960 H   0  0  0  0  0  0  0  0  0  0  0  0
   21.9824   18.8555   24.4348 H   0  0  0  0  0  0  0  0  0  0  0  0
   19.8793   19.3916   24.4176 C   0  0  0  0  0  0  0  0  0  0  0  0
   18.9568   19.0517   23.9304 H   0  0  0  0  0  0  0  0  0  0  0  0
   19.9860   20.4605   24.1912 H   0  0  0  0  0  0  0  0  0  0  0  0
   19.7346   19.2266   25.9475 C   0  0  2  0  0  0  0  0  0  0  0  0
   20.6747   19.5333   26.4162 H   0  0  0  0  0  0  0  0  0  0  0  0
   19.4436   17.7690   26.3473 C   0  0  0  0  0  0  0  0  0  0  0  0
   18.5377   17.3955   25.8539 H   0  0  0  0  0  0  0  0  0  0  0  0
   20.2773   17.1089   26.0809 H   0  0  0  0  0  0  0  0  0  0  0  0
   19.2988   17.6874   27.4316 H   0  0  0  0  0  0  0  0  0  0  0  0
   18.6713   20.1385   26.4934 N   0  3  0  0  0  0  0  0  0  0  0  0
   17.7511   19.9152   26.1047 H   0  0  0  0  0  0  0  0  0  0  0  0
   18.8679   21.1198   26.2760 H   0  0  0  0  0  0  0  0  0  0  0  0
   18.5996   20.0610   27.5121 H   0  0  0  0  0  0  0  0  0  0  0  0
  1  2  1  0  0  0  0
  1  3  1  0  0  0  0
  1  4  1  0  0  0  0
  1  5  1  0  0  0  0
  5  6  1  0  0  0  0
  5  7  1  0  0  0  0
  5  8  1  0  0  0  0
  8  9  1  0  0  0  0
  8 10  1  0  0  0  0
  8 11  1  0  0  0  0
 11 12  1  0  0  0  0
 11 13  1  0  0  0  0
 11 14  1  0  0  0  0
 14 15  1  0  0  0  0
 14 16  1  0  0  0  0
 14 17  1  0  0  0  0
 17 18  1  0  0  0  0
 17 19  1  0  0  0  0
 17 20  1  0  0  0  0
 20 21  1  0  0  0  0
 20 22  1  0  0  0  0
 22 23  1  0  0  0  0
 22 24  1  0  0  0  0
 22 25  1  0  0  0  0
 20 26  1  0  0  0  0
 26 27  1  0  0  0  0
 26 28  1  0  0  0  0
 26 29  1  0  0  0  0
M  END
> <VM2 Rank>
101

> <Conf_Id>
89

> <Probability>
0.02

> <Sum Probability>
99.41

> <Delta G>
3.774

> <G>
37.476

> <E>
-0.326

> <-TS>
37.802

> <U+W>
-24.470

> <U>
28.013

> <W>
-52.483

> <W(PB)>
-54.954

> <W(SA)>
2.471

> <Valence>
6.671

> <Coulomb>
20.180

> <VdW>
1.162

> <VdW6>
-9.852

> <VdW12>
11.014

> <Bond>
0.284

> <Angle>
1.876

> <Pdih>
4.511

> <Idih>
0.000

> <Tether>
0.000

$$$$
VeraChem MOL file


 29 28  0  0  0  0  0  0  0  0999 V2000     
   20.1549   17.8135   20.0316 C   0  0  0  0  0  0  0  0  0  0  0  0
   19.6713   17.2113   20.8106 H   0  0  0  0  0  0  0  0  0  0  0  0
   19.9355   17.3403   19.0657 H   0  0  0  0  0  0  0  0  0  0  0  0
   21.2407   17.7709   20.1873 H   0  0  0  0  0  0  0  0  0  0  0  0
   19.6484   19.2736   20.0455 C   0  0  0  0  0  0  0  0  0  0  0  0
   18.5566   19.2875   19.9205 H   0  0  0  0  0  0  0  0  0  0  0  0
   20.0642   19.8006   19.1754 H   0  0  0  0  0  0  0  0  0  0  0  0
   20.0385   20.0481   21.3275 C   0  0  0  0  0  0  0  0  0  0  0  0
   21.1317   20.0464   21.4380 H   0  0  0  0  0  0  0  0  0  0  0  0
   19.7418   21.0988   21.2042 H   0  0  0  0  0  0  0  0  0  0  0  0
   19.3836   19.4850   22.6113 C   0  0  0  0  0  0  0  0  0  0  0  0
   19.7159   18.4538   22.7730 H   0  0  0  0  0  0  0  0  0  0  0  0
   18.2938   19.4462   22.4771 H   0  0  0  0  0  0  0  0  0  0  0  0
   19.7168   20.3517   23.8505 C   0  0  0  0  0  0  0  0  0  0  0  0
   20.8043   20.4659   23.9588 H   0  0  0  0  0  0  0  0  0  0  0  0
   19.3222   21.3625   23.6769 H   0  0  0  0  0  0  0  0  0  0  0  0
   19.1049   19.8046   25.1675 C   0  0  0  0  0  0  0  0  0  0  0  0
   18.1940   19.2295   24.9545 H   0  0  0  0  0  0  0  0  0  0  0  0
   18.7813   20.6646   25.7686 H   0  0  0  0  0  0  0  0  0  0  0  0
   20.0744   18.9683   26.0371 C   0  0  2  0  0  0  0  0  0  0  0  0
   20.9446   19.5897   26.2698 H   0  0  0  0  0  0  0  0  0  0  0  0
   20.5697   17.6969   25.3274 C   0  0  0  0  0  0  0  0  0  0  0  0
   19.7299   17.0788   24.9863 H   0  0  0  0  0  0  0  0  0  0  0  0
   21.1935   17.9477   24.4616 H   0  0  0  0  0  0  0  0  0  0  0  0
   21.1859   17.0915   26.0034 H   0  0  0  0  0  0  0  0  0  0  0  0
   19.4449   18.6143   27.3557 N   0  3  0  0  0  0  0  0  0  0  0  0
   19.1503   19.4498   27.8696 H   0  0  0  0  0  0  0  0  0  0  0  0
   20.0974   18.1019   27.9560 H   0  0  0  0  0  0  0  0  0  0  0  0
   18.6185   18.0238   27.2288 H   0  0  0  0  0  0  0  0  0  0  0  0
  1  2  1  0  0  0  0
  1  3  1  0  0  0  0
  1  4  1  0  0  0  0
  1  5  1  0  0  0  0
  5  6  1  0  0  0  0
  5  7  1  0  0  0  0
  5  8  1  0  0  0  0
  8  9  1  0  0  0  0
  8 10  1  0  0  0  0
  8 11  1  0  0  0  0
 11 12  1  0  0  0  0
 11 13  1  0  0  0  0
 11 14  1  0  0  0  0
 14 15  1  0  0  0  0
 14 16  1  0  0  0  0
 14 17  1  0  0  0  0
 17 18  1  0  0  0  0
 17 19  1  0  0  0  0
 17 20  1  0  0  0  0
 20 21  1  0  0  0  0
 20 22  1  0  0  0  0
 22 23  1  0  0  0  0
 22 24  1  0  0  0  0
 22 25  1  0  0  0  0
 20 26  1  0  0  0  0
 26 27  1  0  0  0  0
 26 28  1  0  0  0  0
 26 29  1  0  0  0  0
M  END
> <VM2 Rank>
102

> <Conf_Id>
94

> <Probability>
0.02

> <Sum Probability>
99.43

> <Delta G>
3.803

> <G>
37.505

> <E>
-0.288

> <-TS>
37.793

> <U+W>
-24.432

> <U>
27.713

> <W>
-52.146

> <W(PB)>
-54.603

> <W(SA)>
2.458

> <Valence>
6.758

> <Coulomb>
19.720

> <VdW>
1.236

> <VdW6>
-9.782

> <VdW12>
11.017

> <Bond>
0.287

> <Angle>
1.880

> <Pdih>
4.591

> <Idih>
0.000

> <Tether>
0.000

$$$$
VeraChem MOL file


 29 28  0  0  0  0  0  0  0  0999 V2000     
   19.3865   18.8045   19.3279 C   0  0  0  0  0  0  0  0  0  0  0  0
   18.4827   19.3607   19.0466 H   0  0  0  0  0  0  0  0  0  0  0  0
   20.2555   19.3312   18.9123 H   0  0  0  0  0  0  0  0  0  0  0  0
   19.3339   17.8152   18.8550 H   0  0  0  0  0  0  0  0  0  0  0  0
   19.5011   18.6702   20.8610 C   0  0  0  0  0  0  0  0  0  0  0  0
   20.3924   18.0753   21.1010 H   0  0  0  0  0  0  0  0  0  0  0  0
   18.6339   18.1141   21.2437 H   0  0  0  0  0  0  0  0  0  0  0  0
   19.5809   20.0530   21.5498 C   0  0  0  0  0  0  0  0  0  0  0  0
   20.4751   20.5887   21.2026 H   0  0  0  0  0  0  0  0  0  0  0  0
   18.7188   20.6583   21.2374 H   0  0  0  0  0  0  0  0  0  0  0  0
   19.5907   19.9725   23.0959 C   0  0  0  0  0  0  0  0  0  0  0  0
   18.6804   19.4576   23.4262 H   0  0  0  0  0  0  0  0  0  0  0  0
   19.5451   20.9943   23.4972 H   0  0  0  0  0  0  0  0  0  0  0  0
   20.8421   19.2578   23.6643 C   0  0  0  0  0  0  0  0  0  0  0  0
   20.8204   18.1930   23.3998 H   0  0  0  0  0  0  0  0  0  0  0  0
   21.7342   19.6692   23.1722 H   0  0  0  0  0  0  0  0  0  0  0  0
   21.0332   19.4115   25.1995 C   0  0  0  0  0  0  0  0  0  0  0  0
   21.1761   20.4724   25.4432 H   0  0  0  0  0  0  0  0  0  0  0  0
   21.9782   18.9216   25.4688 H   0  0  0  0  0  0  0  0  0  0  0  0
   19.9275   18.8291   26.1166 C   0  0  2  0  0  0  0  0  0  0  0  0
   20.3272   18.8344   27.1354 H   0  0  0  0  0  0  0  0  0  0  0  0
   19.5811   17.3713   25.7675 C   0  0  0  0  0  0  0  0  0  0  0  0
   19.0853   17.2952   24.7924 H   0  0  0  0  0  0  0  0  0  0  0  0
   20.4863   16.7520   25.7431 H   0  0  0  0  0  0  0  0  0  0  0  0
   18.9068   16.9458   26.5208 H   0  0  0  0  0  0  0  0  0  0  0  0
   18.6930   19.6861   26.1715 N   0  3  0  0  0  0  0  0  0  0  0  0
   18.0043   19.3071   26.8277 H   0  0  0  0  0  0  0  0  0  0  0  0
   18.2448   19.7498   25.2552 H   0  0  0  0  0  0  0  0  0  0  0  0
   18.9124   20.6392   26.4753 H   0  0  0  0  0  0  0  0  0  0  0  0
  1  2  1  0  0  0  0
  1  3  1  0  0  0  0
  1  4  1  0  0  0  0
  1  5  1  0  0  0  0
  5  6  1  0  0  0  0
  5  7  1  0  0  0  0
  5  8  1  0  0  0  0
  8  9  1  0  0  0  0
  8 10  1  0  0  0  0
  8 11  1  0  0  0  0
 11 12  1  0  0  0  0
 11 13  1  0  0  0  0
 11 14  1  0  0  0  0
 14 15  1  0  0  0  0
 14 16  1  0  0  0  0
 14 17  1  0  0  0  0
 17 18  1  0  0  0  0
 17 19  1  0  0  0  0
 17 20  1  0  0  0  0
 20 21  1  0  0  0  0
 20 22  1  0  0  0  0
 22 23  1  0  0  0  0
 22 24  1  0  0  0  0
 22 25  1  0  0  0  0
 20 26  1  0  0  0  0
 26 27  1  0  0  0  0
 26 28  1  0  0  0  0
 26 29  1  0  0  0  0
M  END
> <VM2 Rank>
103

> <Conf_Id>
1033

> <Probability>
0.02

> <Sum Probability>
99.44

> <Delta G>
3.827

> <G>
37.529

> <E>
-0.573

> <-TS>
38.102

> <U+W>
-24.718

> <U>
27.804

> <W>
-52.522

> <W(PB)>
-54.967

> <W(SA)>
2.445

> <Valence>
5.527

> <Coulomb>
21.305

> <VdW>
0.973

> <VdW6>
-10.820

> <VdW12>
11.793

> <Bond>
0.332

> <Angle>
2.322

> <Pdih>
2.874

> <Idih>
0.000

> <Tether>
0.000

$$$$
VeraChem MOL file


 29 28  0  0  0  0  0  0  0  0999 V2000     
   19.8438   19.9926   19.2010 C   0  0  0  0  0  0  0  0  0  0  0  0
   20.8272   19.6965   18.8132 H   0  0  0  0  0  0  0  0  0  0  0  0
   19.0904   19.3174   18.7747 H   0  0  0  0  0  0  0  0  0  0  0  0
   19.6306   21.0069   18.8394 H   0  0  0  0  0  0  0  0  0  0  0  0
   19.8187   19.9476   20.7435 C   0  0  0  0  0  0  0  0  0  0  0  0
   18.8354   20.2882   21.0939 H   0  0  0  0  0  0  0  0  0  0  0  0
   20.5612   20.6538   21.1406 H   0  0  0  0  0  0  0  0  0  0  0  0
   20.1126   18.5256   21.2769 C   0  0  0  0  0  0  0  0  0  0  0  0
   19.3410   17.8295   20.9202 H   0  0  0  0  0  0  0  0  0  0  0  0
   21.0636   18.1746   20.8531 H   0  0  0  0  0  0  0  0  0  0  0  0
   20.2059   18.4513   22.8205 C   0  0  0  0  0  0  0  0  0  0  0  0
   20.9951   19.1329   23.1645 H   0  0  0  0  0  0  0  0  0  0  0  0
   20.5205   17.4367   23.1008 H   0  0  0  0  0  0  0  0  0  0  0  0
   18.8722   18.7826   23.5343 C   0  0  0  0  0  0  0  0  0  0  0  0
   18.6130   19.8370   23.3702 H   0  0  0  0  0  0  0  0  0  0  0  0
   18.0661   18.1914   23.0785 H   0  0  0  0  0  0  0  0  0  0  0  0
   18.8844   18.5008   25.0583 C   0  0  0  0  0  0  0  0  0  0  0  0
   19.0639   17.4336   25.2448 H   0  0  0  0  0  0  0  0  0  0  0  0
   17.8724   18.7002   25.4349 H   0  0  0  0  0  0  0  0  0  0  0  0
   19.8973   19.3666   25.8464 C   0  0  2  0  0  0  0  0  0  0  0  0
   20.1426   20.2435   25.2394 H   0  0  0  0  0  0  0  0  0  0  0  0
   21.1948   18.5945   26.1481 C   0  0  0  0  0  0  0  0  0  0  0  0
   21.6696   18.2292   25.2312 H   0  0  0  0  0  0  0  0  0  0  0  0
   21.9184   19.2411   26.6595 H   0  0  0  0  0  0  0  0  0  0  0  0
   20.9983   17.7294   26.7937 H   0  0  0  0  0  0  0  0  0  0  0  0
   19.3063   19.8942   27.1249 N   0  3  0  0  0  0  0  0  0  0  0  0
   18.4665   20.4535   26.9489 H   0  0  0  0  0  0  0  0  0  0  0  0
   19.9707   20.4916   27.6254 H   0  0  0  0  0  0  0  0  0  0  0  0
   19.0432   19.1333   27.7572 H   0  0  0  0  0  0  0  0  0  0  0  0
  1  2  1  0  0  0  0
  1  3  1  0  0  0  0
  1  4  1  0  0  0  0
  1  5  1  0  0  0  0
  5  6  1  0  0  0  0
  5  7  1  0  0  0  0
  5  8  1  0  0  0  0
  8  9  1  0  0  0  0
  8 10  1  0  0  0  0
  8 11  1  0  0  0  0
 11 12  1  0  0  0  0
 11 13  1  0  0  0  0
 11 14  1  0  0  0  0
 14 15  1  0  0  0  0
 14 16  1  0  0  0  0
 14 17  1  0  0  0  0
 17 18  1  0  0  0  0
 17 19  1  0  0  0  0
 17 20  1  0  0  0  0
 20 21  1  0  0  0  0
 20 22  1  0  0  0  0
 22 23  1  0  0  0  0
 22 24  1  0  0  0  0
 22 25  1  0  0  0  0
 20 26  1  0  0  0  0
 26 27  1  0  0  0  0
 26 28  1  0  0  0  0
 26 29  1  0  0  0  0
M  END
> <VM2 Rank>
104

> <Conf_Id>
221

> <Probability>
0.02

> <Sum Probability>
99.46

> <Delta G>
3.844

> <G>
37.546

> <E>
-0.111

> <-TS>
37.657

> <U+W>
-24.255

> <U>
27.986

> <W>
-52.241

> <W(PB)>
-54.722

> <W(SA)>
2.481

> <Valence>
6.801

> <Coulomb>
19.953

> <VdW>
1.232

> <VdW6>
-9.702

> <VdW12>
10.934

> <Bond>
0.263

> <Angle>
1.625

> <Pdih>
4.913

> <Idih>
0.000

> <Tether>
0.000

$$$$
VeraChem MOL file


 29 28  0  0  0  0  0  0  0  0999 V2000     
   21.0219   20.1818   20.2301 C   0  0  0  0  0  0  0  0  0  0  0  0
   20.5027   21.1482   20.2699 H   0  0  0  0  0  0  0  0  0  0  0  0
   21.6546   20.0937   21.1219 H   0  0  0  0  0  0  0  0  0  0  0  0
   21.6850   20.1927   19.3554 H   0  0  0  0  0  0  0  0  0  0  0  0
   20.0148   19.0137   20.1303 C   0  0  0  0  0  0  0  0  0  0  0  0
   20.5570   18.0578   20.1255 H   0  0  0  0  0  0  0  0  0  0  0  0
   19.4944   19.0768   19.1644 H   0  0  0  0  0  0  0  0  0  0  0  0
   18.9600   19.0113   21.2629 C   0  0  0  0  0  0  0  0  0  0  0  0
   18.4049   19.9595   21.2494 H   0  0  0  0  0  0  0  0  0  0  0  0
   18.2264   18.2205   21.0536 H   0  0  0  0  0  0  0  0  0  0  0  0
   19.5657   18.7813   22.6681 C   0  0  0  0  0  0  0  0  0  0  0  0
   20.2479   19.6058   22.9085 H   0  0  0  0  0  0  0  0  0  0  0  0
   20.1593   17.8568   22.6637 H   0  0  0  0  0  0  0  0  0  0  0  0
   18.4701   18.6884   23.7557 C   0  0  0  0  0  0  0  0  0  0  0  0
   17.9205   19.6388   23.8027 H   0  0  0  0  0  0  0  0  0  0  0  0
   17.7373   17.9239   23.4629 H   0  0  0  0  0  0  0  0  0  0  0  0
   19.0060   18.3356   25.1667 C   0  0  0  0  0  0  0  0  0  0  0  0
   19.4809   17.3455   25.1531 H   0  0  0  0  0  0  0  0  0  0  0  0
   18.1374   18.2372   25.8312 H   0  0  0  0  0  0  0  0  0  0  0  0
   19.9748   19.3924   25.7508 C   0  0  2  0  0  0  0  0  0  0  0  0
   19.8222   20.3316   25.2103 H   0  0  0  0  0  0  0  0  0  0  0  0
   21.4454   18.9642   25.5941 C   0  0  0  0  0  0  0  0  0  0  0  0
   21.6534   18.0505   26.1649 H   0  0  0  0  0  0  0  0  0  0  0  0
   21.6999   18.7710   24.5462 H   0  0  0  0  0  0  0  0  0  0  0  0
   22.1174   19.7511   25.9580 H   0  0  0  0  0  0  0  0  0  0  0  0
   19.6773   19.6874   27.1954 N   0  3  0  0  0  0  0  0  0  0  0  0
   19.7939   18.8545   27.7789 H   0  0  0  0  0  0  0  0  0  0  0  0
   18.7171   20.0207   27.3215 H   0  0  0  0  0  0  0  0  0  0  0  0
   20.3016   20.4099   27.5656 H   0  0  0  0  0  0  0  0  0  0  0  0
  1  2  1  0  0  0  0
  1  3  1  0  0  0  0
  1  4  1  0  0  0  0
  1  5  1  0  0  0  0
  5  6  1  0  0  0  0
  5  7  1  0  0  0  0
  5  8  1  0  0  0  0
  8  9  1  0  0  0  0
  8 10  1  0  0  0  0
  8 11  1  0  0  0  0
 11 12  1  0  0  0  0
 11 13  1  0  0  0  0
 11 14  1  0  0  0  0
 14 15  1  0  0  0  0
 14 16  1  0  0  0  0
 14 17  1  0  0  0  0
 17 18  1  0  0  0  0
 17 19  1  0  0  0  0
 17 20  1  0  0  0  0
 20 21  1  0  0  0  0
 20 22  1  0  0  0  0
 22 23  1  0  0  0  0
 22 24  1  0  0  0  0
 22 25  1  0  0  0  0
 20 26  1  0  0  0  0
 26 27  1  0  0  0  0
 26 28  1  0  0  0  0
 26 29  1  0  0  0  0
M  END
> <VM2 Rank>
105

> <Conf_Id>
101

> <Probability>
0.02

> <Sum Probability>
99.48

> <Delta G>
3.848

> <G>
37.550

> <E>
-0.112

> <-TS>
37.662

> <U+W>
-24.257

> <U>
27.879

> <W>
-52.135

> <W(PB)>
-54.596

> <W(SA)>
2.460

> <Valence>
6.782

> <Coulomb>
19.866

> <VdW>
1.231

> <VdW6>
-9.739

> <VdW12>
10.970

> <Bond>
0.261

> <Angle>
1.615

> <Pdih>
4.906

> <Idih>
0.000

> <Tether>
0.000

$$$$
VeraChem MOL file


 29 28  0  0  0  0  0  0  0  0999 V2000     
   20.8589   19.9910   19.8044 C   0  0  0  0  0  0  0  0  0  0  0  0
   20.5685   19.3992   18.9266 H   0  0  0  0  0  0  0  0  0  0  0  0
   20.9973   21.0303   19.4793 H   0  0  0  0  0  0  0  0  0  0  0  0
   21.8271   19.6182   20.1632 H   0  0  0  0  0  0  0  0  0  0  0  0
   19.7871   19.9045   20.9114 C   0  0  0  0  0  0  0  0  0  0  0  0
   18.8413   20.3158   20.5321 H   0  0  0  0  0  0  0  0  0  0  0  0
   20.0880   20.5402   21.7526 H   0  0  0  0  0  0  0  0  0  0  0  0
   19.5667   18.4453   21.3781 C   0  0  0  0  0  0  0  0  0  0  0  0
   19.2371   17.8565   20.5109 H   0  0  0  0  0  0  0  0  0  0  0  0
   20.5164   17.9990   21.7035 H   0  0  0  0  0  0  0  0  0  0  0  0
   18.5013   18.3082   22.4971 C   0  0  0  0  0  0  0  0  0  0  0  0
   17.9465   17.3750   22.3273 H   0  0  0  0  0  0  0  0  0  0  0  0
   17.7572   19.1125   22.4167 H   0  0  0  0  0  0  0  0  0  0  0  0
   19.0754   18.2531   23.9363 C   0  0  0  0  0  0  0  0  0  0  0  0
   18.2409   18.0728   24.6264 H   0  0  0  0  0  0  0  0  0  0  0  0
   19.7383   17.3817   24.0211 H   0  0  0  0  0  0  0  0  0  0  0  0
   19.8357   19.5358   24.3658 C   0  0  0  0  0  0  0  0  0  0  0  0
   19.2158   20.4152   24.1478 H   0  0  0  0  0  0  0  0  0  0  0  0
   20.7448   19.6395   23.7605 H   0  0  0  0  0  0  0  0  0  0  0  0
   20.2436   19.5804   25.8573 C   0  0  2  0  0  0  0  0  0  0  0  0
   20.7658   20.5277   26.0234 H   0  0  0  0  0  0  0  0  0  0  0  0
   21.2126   18.4433   26.2251 C   0  0  0  0  0  0  0  0  0  0  0  0
   20.7256   17.4624   26.1695 H   0  0  0  0  0  0  0  0  0  0  0  0
   22.0787   18.4362   25.5518 H   0  0  0  0  0  0  0  0  0  0  0  0
   21.5872   18.5742   27.2477 H   0  0  0  0  0  0  0  0  0  0  0  0
   19.0548   19.5944   26.7785 N   0  3  0  0  0  0  0  0  0  0  0  0
   19.3412   19.6876   27.7572 H   0  0  0  0  0  0  0  0  0  0  0  0
   18.5125   18.7308   26.6983 H   0  0  0  0  0  0  0  0  0  0  0  0
   18.4258   20.3746   26.5678 H   0  0  0  0  0  0  0  0  0  0  0  0
  1  2  1  0  0  0  0
  1  3  1  0  0  0  0
  1  4  1  0  0  0  0
  1  5  1  0  0  0  0
  5  6  1  0  0  0  0
  5  7  1  0  0  0  0
  5  8  1  0  0  0  0
  8  9  1  0  0  0  0
  8 10  1  0  0  0  0
  8 11  1  0  0  0  0
 11 12  1  0  0  0  0
 11 13  1  0  0  0  0
 11 14  1  0  0  0  0
 14 15  1  0  0  0  0
 14 16  1  0  0  0  0
 14 17  1  0  0  0  0
 17 18  1  0  0  0  0
 17 19  1  0  0  0  0
 17 20  1  0  0  0  0
 20 21  1  0  0  0  0
 20 22  1  0  0  0  0
 22 23  1  0  0  0  0
 22 24  1  0  0  0  0
 22 25  1  0  0  0  0
 20 26  1  0  0  0  0
 26 27  1  0  0  0  0
 26 28  1  0  0  0  0
 26 29  1  0  0  0  0
M  END
> <VM2 Rank>
106

> <Conf_Id>
1621

> <Probability>
0.02

> <Sum Probability>
99.49

> <Delta G>
3.859

> <G>
37.561

> <E>
-0.374

> <-TS>
37.935

> <U+W>
-24.519

> <U>
27.916

> <W>
-52.435

> <W(PB)>
-54.870

> <W(SA)>
2.435

> <Valence>
6.693

> <Coulomb>
20.015

> <VdW>
1.208

> <VdW6>
-10.294

> <VdW12>
11.502

> <Bond>
0.312

> <Angle>
1.940

> <Pdih>
4.441

> <Idih>
0.000

> <Tether>
0.000

$$$$
VeraChem MOL file


 29 28  0  0  0  0  0  0  0  0999 V2000     
   19.0827   20.0667   19.9573 C   0  0  0  0  0  0  0  0  0  0  0  0
   18.5434   19.1145   19.8781 H   0  0  0  0  0  0  0  0  0  0  0  0
   18.4434   20.7807   20.4925 H   0  0  0  0  0  0  0  0  0  0  0  0
   19.2326   20.4476   18.9389 H   0  0  0  0  0  0  0  0  0  0  0  0
   20.4402   19.8905   20.6746 C   0  0  0  0  0  0  0  0  0  0  0  0
   20.9904   20.8409   20.6328 H   0  0  0  0  0  0  0  0  0  0  0  0
   21.0523   19.1568   20.1318 H   0  0  0  0  0  0  0  0  0  0  0  0
   20.2986   19.4617   22.1548 C   0  0  0  0  0  0  0  0  0  0  0  0
   21.2974   19.4469   22.6124 H   0  0  0  0  0  0  0  0  0  0  0  0
   19.7136   20.2226   22.6865 H   0  0  0  0  0  0  0  0  0  0  0  0
   19.6353   18.0734   22.3278 C   0  0  0  0  0  0  0  0  0  0  0  0
   20.0938   17.3703   21.6188 H   0  0  0  0  0  0  0  0  0  0  0  0
   18.5734   18.1342   22.0546 H   0  0  0  0  0  0  0  0  0  0  0  0
   19.7616   17.4707   23.7510 C   0  0  0  0  0  0  0  0  0  0  0  0
   19.3128   16.4682   23.7212 H   0  0  0  0  0  0  0  0  0  0  0  0
   20.8180   17.3065   23.9957 H   0  0  0  0  0  0  0  0  0  0  0  0
   19.0458   18.2753   24.8710 C   0  0  0  0  0  0  0  0  0  0  0  0
   18.8020   17.5907   25.6943 H   0  0  0  0  0  0  0  0  0  0  0  0
   18.0815   18.6313   24.4850 H   0  0  0  0  0  0  0  0  0  0  0  0
   19.8411   19.4696   25.4524 C   0  0  2  0  0  0  0  0  0  0  0  0
   20.1864   20.1014   24.6317 H   0  0  0  0  0  0  0  0  0  0  0  0
   21.0702   19.0104   26.2577 C   0  0  0  0  0  0  0  0  0  0  0  0
   21.7965   18.4920   25.6220 H   0  0  0  0  0  0  0  0  0  0  0  0
   21.5851   19.8721   26.7000 H   0  0  0  0  0  0  0  0  0  0  0  0
   20.7816   18.3336   27.0715 H   0  0  0  0  0  0  0  0  0  0  0  0
   18.9605   20.3379   26.3073 N   0  3  0  0  0  0  0  0  0  0  0  0
   18.5969   19.8222   27.1134 H   0  0  0  0  0  0  0  0  0  0  0  0
   18.1567   20.6936   25.7817 H   0  0  0  0  0  0  0  0  0  0  0  0
   19.4715   21.1484   26.6688 H   0  0  0  0  0  0  0  0  0  0  0  0
  1  2  1  0  0  0  0
  1  3  1  0  0  0  0
  1  4  1  0  0  0  0
  1  5  1  0  0  0  0
  5  6  1  0  0  0  0
  5  7  1  0  0  0  0
  5  8  1  0  0  0  0
  8  9  1  0  0  0  0
  8 10  1  0  0  0  0
  8 11  1  0  0  0  0
 11 12  1  0  0  0  0
 11 13  1  0  0  0  0
 11 14  1  0  0  0  0
 14 15  1  0  0  0  0
 14 16  1  0  0  0  0
 14 17  1  0  0  0  0
 17 18  1  0  0  0  0
 17 19  1  0  0  0  0
 17 20  1  0  0  0  0
 20 21  1  0  0  0  0
 20 22  1  0  0  0  0
 22 23  1  0  0  0  0
 22 24  1  0  0  0  0
 22 25  1  0  0  0  0
 20 26  1  0  0  0  0
 26 27  1  0  0  0  0
 26 28  1  0  0  0  0
 26 29  1  0  0  0  0
M  END
> <VM2 Rank>
107

> <Conf_Id>
1606

> <Probability>
0.02

> <Sum Probability>
99.51

> <Delta G>
3.860

> <G>
37.562

> <E>
-0.147

> <-TS>
37.709

> <U+W>
-24.291

> <U>
28.432

> <W>
-52.723

> <W(PB)>
-55.173

> <W(SA)>
2.450

> <Valence>
6.780

> <Coulomb>
20.579

> <VdW>
1.072

> <VdW6>
-10.669

> <VdW12>
11.741

> <Bond>
0.323

> <Angle>
2.395

> <Pdih>
4.061

> <Idih>
0.000

> <Tether>
0.000

$$$$
VeraChem MOL file


 29 28  0  0  0  0  0  0  0  0999 V2000     
   19.6272   20.0608   19.7015 C   0  0  0  0  0  0  0  0  0  0  0  0
   20.0702   20.1914   18.7057 H   0  0  0  0  0  0  0  0  0  0  0  0
   18.7727   19.3818   19.5942 H   0  0  0  0  0  0  0  0  0  0  0  0
   19.2514   21.0378   20.0319 H   0  0  0  0  0  0  0  0  0  0  0  0
   20.6774   19.5059   20.6907 C   0  0  0  0  0  0  0  0  0  0  0  0
   21.5632   20.1558   20.6623 H   0  0  0  0  0  0  0  0  0  0  0  0
   21.0135   18.5139   20.3580 H   0  0  0  0  0  0  0  0  0  0  0  0
   20.1704   19.4260   22.1511 C   0  0  0  0  0  0  0  0  0  0  0  0
   21.0290   19.1778   22.7872 H   0  0  0  0  0  0  0  0  0  0  0  0
   19.8117   20.4143   22.4698 H   0  0  0  0  0  0  0  0  0  0  0  0
   19.0607   18.3663   22.3622 C   0  0  0  0  0  0  0  0  0  0  0  0
   19.4622   17.3698   22.1325 H   0  0  0  0  0  0  0  0  0  0  0  0
   18.2475   18.5391   21.6462 H   0  0  0  0  0  0  0  0  0  0  0  0
   18.4398   18.3571   23.7833 C   0  0  0  0  0  0  0  0  0  0  0  0
   17.9237   19.3072   23.9711 H   0  0  0  0  0  0  0  0  0  0  0  0
   17.6524   17.5908   23.7914 H   0  0  0  0  0  0  0  0  0  0  0  0
   19.4337   18.0315   24.9313 C   0  0  0  0  0  0  0  0  0  0  0  0
   20.1527   17.2786   24.5819 H   0  0  0  0  0  0  0  0  0  0  0  0
   18.8803   17.5590   25.7537 H   0  0  0  0  0  0  0  0  0  0  0  0
   20.1881   19.2574   25.4969 C   0  0  2  0  0  0  0  0  0  0  0  0
   20.6753   19.7856   24.6743 H   0  0  0  0  0  0  0  0  0  0  0  0
   21.2751   18.8045   26.4843 C   0  0  0  0  0  0  0  0  0  0  0  0
   21.8347   19.6664   26.8682 H   0  0  0  0  0  0  0  0  0  0  0  0
   20.8388   18.2719   27.3386 H   0  0  0  0  0  0  0  0  0  0  0  0
   21.9922   18.1344   25.9938 H   0  0  0  0  0  0  0  0  0  0  0  0
   19.2635   20.2464   26.1527 N   0  3  0  0  0  0  0  0  0  0  0  0
   18.7700   19.8264   26.9448 H   0  0  0  0  0  0  0  0  0  0  0  0
   18.5571   20.5903   25.4968 H   0  0  0  0  0  0  0  0  0  0  0  0
   19.7753   21.0595   26.5068 H   0  0  0  0  0  0  0  0  0  0  0  0
  1  2  1  0  0  0  0
  1  3  1  0  0  0  0
  1  4  1  0  0  0  0
  1  5  1  0  0  0  0
  5  6  1  0  0  0  0
  5  7  1  0  0  0  0
  5  8  1  0  0  0  0
  8  9  1  0  0  0  0
  8 10  1  0  0  0  0
  8 11  1  0  0  0  0
 11 12  1  0  0  0  0
 11 13  1  0  0  0  0
 11 14  1  0  0  0  0
 14 15  1  0  0  0  0
 14 16  1  0  0  0  0
 14 17  1  0  0  0  0
 17 18  1  0  0  0  0
 17 19  1  0  0  0  0
 17 20  1  0  0  0  0
 20 21  1  0  0  0  0
 20 22  1  0  0  0  0
 22 23  1  0  0  0  0
 22 24  1  0  0  0  0
 22 25  1  0  0  0  0
 20 26  1  0  0  0  0
 26 27  1  0  0  0  0
 26 28  1  0  0  0  0
 26 29  1  0  0  0  0
M  END
> <VM2 Rank>
108

> <Conf_Id>
978

> <Probability>
0.02

> <Sum Probability>
99.53

> <Delta G>
3.862

> <G>
37.565

> <E>
-0.218

> <-TS>
37.782

> <U+W>
-24.362

> <U>
28.055

> <W>
-52.418

> <W(PB)>
-54.881

> <W(SA)>
2.464

> <Valence>
6.325

> <Coulomb>
20.690

> <VdW>
1.041

> <VdW6>
-10.427

> <VdW12>
11.468

> <Bond>
0.315

> <Angle>
2.080

> <Pdih>
3.930

> <Idih>
0.000

> <Tether>
0.000

$$$$
VeraChem MOL file


 29 28  0  0  0  0  0  0  0  0999 V2000     
   18.7546   19.0292   19.6210 C   0  0  0  0  0  0  0  0  0  0  0  0
   18.4812   18.4518   18.7284 H   0  0  0  0  0  0  0  0  0  0  0  0
   17.9555   18.8917   20.3599 H   0  0  0  0  0  0  0  0  0  0  0  0
   18.7843   20.0897   19.3389 H   0  0  0  0  0  0  0  0  0  0  0  0
   20.1217   18.5617   20.1696 C   0  0  0  0  0  0  0  0  0  0  0  0
   20.8617   18.6033   19.3582 H   0  0  0  0  0  0  0  0  0  0  0  0
   20.0571   17.5074   20.4730 H   0  0  0  0  0  0  0  0  0  0  0  0
   20.6346   19.4167   21.3534 C   0  0  0  0  0  0  0  0  0  0  0  0
   21.6514   19.0863   21.6066 H   0  0  0  0  0  0  0  0  0  0  0  0
   20.7196   20.4658   21.0384 H   0  0  0  0  0  0  0  0  0  0  0  0
   19.7436   19.3205   22.6149 C   0  0  0  0  0  0  0  0  0  0  0  0
   19.6095   18.2659   22.8832 H   0  0  0  0  0  0  0  0  0  0  0  0
   18.7443   19.7179   22.3941 H   0  0  0  0  0  0  0  0  0  0  0  0
   20.3469   20.1104   23.8024 C   0  0  0  0  0  0  0  0  0  0  0  0
   21.3726   19.7741   24.0078 H   0  0  0  0  0  0  0  0  0  0  0  0
   20.4284   21.1648   23.5040 H   0  0  0  0  0  0  0  0  0  0  0  0
   19.4916   20.0300   25.0948 C   0  0  0  0  0  0  0  0  0  0  0  0
   18.4349   19.8688   24.8434 H   0  0  0  0  0  0  0  0  0  0  0  0
   19.5353   21.0110   25.5862 H   0  0  0  0  0  0  0  0  0  0  0  0
   19.9636   18.9740   26.1231 C   0  0  2  0  0  0  0  0  0  0  0  0
   21.0024   19.1961   26.3863 H   0  0  0  0  0  0  0  0  0  0  0  0
   19.9046   17.5380   25.5758 C   0  0  0  0  0  0  0  0  0  0  0  0
   20.1650   16.8146   26.3583 H   0  0  0  0  0  0  0  0  0  0  0  0
   18.9009   17.2939   25.2064 H   0  0  0  0  0  0  0  0  0  0  0  0
   20.6215   17.3993   24.7583 H   0  0  0  0  0  0  0  0  0  0  0  0
   19.1748   19.0756   27.3990 N   0  3  0  0  0  0  0  0  0  0  0  0
   18.1833   18.8754   27.2423 H   0  0  0  0  0  0  0  0  0  0  0  0
   19.2389   20.0120   27.8087 H   0  0  0  0  0  0  0  0  0  0  0  0
   19.5132   18.4120   28.1017 H   0  0  0  0  0  0  0  0  0  0  0  0
  1  2  1  0  0  0  0
  1  3  1  0  0  0  0
  1  4  1  0  0  0  0
  1  5  1  0  0  0  0
  5  6  1  0  0  0  0
  5  7  1  0  0  0  0
  5  8  1  0  0  0  0
  8  9  1  0  0  0  0
  8 10  1  0  0  0  0
  8 11  1  0  0  0  0
 11 12  1  0  0  0  0
 11 13  1  0  0  0  0
 11 14  1  0  0  0  0
 14 15  1  0  0  0  0
 14 16  1  0  0  0  0
 14 17  1  0  0  0  0
 17 18  1  0  0  0  0
 17 19  1  0  0  0  0
 17 20  1  0  0  0  0
 20 21  1  0  0  0  0
 20 22  1  0  0  0  0
 22 23  1  0  0  0  0
 22 24  1  0  0  0  0
 22 25  1  0  0  0  0
 20 26  1  0  0  0  0
 26 27  1  0  0  0  0
 26 28  1  0  0  0  0
 26 29  1  0  0  0  0
M  END
> <VM2 Rank>
109

> <Conf_Id>
1046

> <Probability>
0.02

> <Sum Probability>
99.54

> <Delta G>
3.872

> <G>
37.574

> <E>
-0.213

> <-TS>
37.787

> <U+W>
-24.357

> <U>
27.696

> <W>
-52.053

> <W(PB)>
-54.527

> <W(SA)>
2.474

> <Valence>
6.761

> <Coulomb>
19.663

> <VdW>
1.272

> <VdW6>
-9.717

> <VdW12>
10.989

> <Bond>
0.286

> <Angle>
1.902

> <Pdih>
4.572

> <Idih>
0.000

> <Tether>
0.000

$$$$
VeraChem MOL file


 29 28  0  0  0  0  0  0  0  0999 V2000     
   21.2262   19.4050   20.2540 C   0  0  0  0  0  0  0  0  0  0  0  0
   21.2717   18.3290   20.0406 H   0  0  0  0  0  0  0  0  0  0  0  0
   20.7225   19.8994   19.4131 H   0  0  0  0  0  0  0  0  0  0  0  0
   22.2555   19.7835   20.2995 H   0  0  0  0  0  0  0  0  0  0  0  0
   20.4867   19.6757   21.5811 C   0  0  0  0  0  0  0  0  0  0  0  0
   20.4857   20.7564   21.7804 H   0  0  0  0  0  0  0  0  0  0  0  0
   21.0449   19.2051   22.3979 H   0  0  0  0  0  0  0  0  0  0  0  0
   19.0307   19.1525   21.5376 C   0  0  0  0  0  0  0  0  0  0  0  0
   18.5266   19.6264   20.6840 H   0  0  0  0  0  0  0  0  0  0  0  0
   19.0188   18.0730   21.3340 H   0  0  0  0  0  0  0  0  0  0  0  0
   18.2090   19.4638   22.8162 C   0  0  0  0  0  0  0  0  0  0  0  0
   17.1641   19.6162   22.5119 H   0  0  0  0  0  0  0  0  0  0  0  0
   18.5251   20.4207   23.2521 H   0  0  0  0  0  0  0  0  0  0  0  0
   18.2127   18.3389   23.8864 C   0  0  0  0  0  0  0  0  0  0  0  0
   17.4977   18.6046   24.6766 H   0  0  0  0  0  0  0  0  0  0  0  0
   17.8195   17.4173   23.4357 H   0  0  0  0  0  0  0  0  0  0  0  0
   19.5874   18.0286   24.5321 C   0  0  0  0  0  0  0  0  0  0  0  0
   20.2495   17.5916   23.7746 H   0  0  0  0  0  0  0  0  0  0  0  0
   19.4537   17.2490   25.2937 H   0  0  0  0  0  0  0  0  0  0  0  0
   20.2705   19.2551   25.1768 C   0  0  2  0  0  0  0  0  0  0  0  0
   20.3826   20.0290   24.4119 H   0  0  0  0  0  0  0  0  0  0  0  0
   21.6697   18.8809   25.6898 C   0  0  0  0  0  0  0  0  0  0  0  0
   21.6140   18.1082   26.4668 H   0  0  0  0  0  0  0  0  0  0  0  0
   22.2953   18.4997   24.8732 H   0  0  0  0  0  0  0  0  0  0  0  0
   22.1745   19.7572   26.1147 H   0  0  0  0  0  0  0  0  0  0  0  0
   19.4432   19.8554   26.2800 N   0  3  0  0  0  0  0  0  0  0  0  0
   19.8933   20.6845   26.6780 H   0  0  0  0  0  0  0  0  0  0  0  0
   19.2992   19.1882   27.0425 H   0  0  0  0  0  0  0  0  0  0  0  0
   18.5204   20.1386   25.9393 H   0  0  0  0  0  0  0  0  0  0  0  0
  1  2  1  0  0  0  0
  1  3  1  0  0  0  0
  1  4  1  0  0  0  0
  1  5  1  0  0  0  0
  5  6  1  0  0  0  0
  5  7  1  0  0  0  0
  5  8  1  0  0  0  0
  8  9  1  0  0  0  0
  8 10  1  0  0  0  0
  8 11  1  0  0  0  0
 11 12  1  0  0  0  0
 11 13  1  0  0  0  0
 11 14  1  0  0  0  0
 14 15  1  0  0  0  0
 14 16  1  0  0  0  0
 14 17  1  0  0  0  0
 17 18  1  0  0  0  0
 17 19  1  0  0  0  0
 17 20  1  0  0  0  0
 20 21  1  0  0  0  0
 20 22  1  0  0  0  0
 22 23  1  0  0  0  0
 22 24  1  0  0  0  0
 22 25  1  0  0  0  0
 20 26  1  0  0  0  0
 26 27  1  0  0  0  0
 26 28  1  0  0  0  0
 26 29  1  0  0  0  0
M  END
> <VM2 Rank>
110

> <Conf_Id>
335

> <Probability>
0.02

> <Sum Probability>
99.56

> <Delta G>
3.883

> <G>
37.585

> <E>
-0.644

> <-TS>
38.229

> <U+W>
-24.789

> <U>
27.761

> <W>
-52.550

> <W(PB)>
-54.967

> <W(SA)>
2.418

> <Valence>
6.483

> <Coulomb>
20.860

> <VdW>
0.418

> <VdW6>
-11.358

> <VdW12>
11.776

> <Bond>
0.310

> <Angle>
2.146

> <Pdih>
4.026

> <Idih>
0.000

> <Tether>
0.000

$$$$
VeraChem MOL file


 29 28  0  0  0  0  0  0  0  0999 V2000     
   18.7869   18.1567   20.1046 C   0  0  0  0  0  0  0  0  0  0  0  0
   18.7306   17.7177   19.1001 H   0  0  0  0  0  0  0  0  0  0  0  0
   19.0890   17.3601   20.7956 H   0  0  0  0  0  0  0  0  0  0  0  0
   17.7785   18.4900   20.3824 H   0  0  0  0  0  0  0  0  0  0  0  0
   19.7867   19.3353   20.1240 C   0  0  0  0  0  0  0  0  0  0  0  0
   19.5120   20.0452   19.3314 H   0  0  0  0  0  0  0  0  0  0  0  0
   20.7930   18.9706   19.8749 H   0  0  0  0  0  0  0  0  0  0  0  0
   19.8226   20.0896   21.4750 C   0  0  0  0  0  0  0  0  0  0  0  0
   20.4673   20.9725   21.3644 H   0  0  0  0  0  0  0  0  0  0  0  0
   18.8182   20.4677   21.7102 H   0  0  0  0  0  0  0  0  0  0  0  0
   20.3437   19.2269   22.6491 C   0  0  0  0  0  0  0  0  0  0  0  0
   21.3278   18.8140   22.3885 H   0  0  0  0  0  0  0  0  0  0  0  0
   19.6752   18.3730   22.8020 H   0  0  0  0  0  0  0  0  0  0  0  0
   20.4615   20.0504   23.9551 C   0  0  0  0  0  0  0  0  0  0  0  0
   21.1663   20.8740   23.7753 H   0  0  0  0  0  0  0  0  0  0  0  0
   19.5001   20.5237   24.1927 H   0  0  0  0  0  0  0  0  0  0  0  0
   20.9788   19.2226   25.1648 C   0  0  0  0  0  0  0  0  0  0  0  0
   21.6198   19.8709   25.7766 H   0  0  0  0  0  0  0  0  0  0  0  0
   21.6360   18.4167   24.8126 H   0  0  0  0  0  0  0  0  0  0  0  0
   19.8937   18.6301   26.0980 C   0  0  2  0  0  0  0  0  0  0  0  0
   20.4147   18.0740   26.8834 H   0  0  0  0  0  0  0  0  0  0  0  0
   18.9572   17.6455   25.3793 C   0  0  0  0  0  0  0  0  0  0  0  0
   18.3107   18.1596   24.6581 H   0  0  0  0  0  0  0  0  0  0  0  0
   19.5321   16.8769   24.8481 H   0  0  0  0  0  0  0  0  0  0  0  0
   18.3098   17.1355   26.1031 H   0  0  0  0  0  0  0  0  0  0  0  0
   19.1049   19.6988   26.8042 N   0  3  0  0  0  0  0  0  0  0  0  0
   18.5744   20.2689   26.1411 H   0  0  0  0  0  0  0  0  0  0  0  0
   19.7154   20.3285   27.3328 H   0  0  0  0  0  0  0  0  0  0  0  0
   18.4362   19.2941   27.4657 H   0  0  0  0  0  0  0  0  0  0  0  0
  1  2  1  0  0  0  0
  1  3  1  0  0  0  0
  1  4  1  0  0  0  0
  1  5  1  0  0  0  0
  5  6  1  0  0  0  0
  5  7  1  0  0  0  0
  5  8  1  0  0  0  0
  8  9  1  0  0  0  0
  8 10  1  0  0  0  0
  8 11  1  0  0  0  0
 11 12  1  0  0  0  0
 11 13  1  0  0  0  0
 11 14  1  0  0  0  0
 14 15  1  0  0  0  0
 14 16  1  0  0  0  0
 14 17  1  0  0  0  0
 17 18  1  0  0  0  0
 17 19  1  0  0  0  0
 17 20  1  0  0  0  0
 20 21  1  0  0  0  0
 20 22  1  0  0  0  0
 22 23  1  0  0  0  0
 22 24  1  0  0  0  0
 22 25  1  0  0  0  0
 20 26  1  0  0  0  0
 26 27  1  0  0  0  0
 26 28  1  0  0  0  0
 26 29  1  0  0  0  0
M  END
> <VM2 Rank>
111

> <Conf_Id>
125

> <Probability>
0.02

> <Sum Probability>
99.57

> <Delta G>
3.892

> <G>
37.594

> <E>
-0.266

> <-TS>
37.861

> <U+W>
-24.411

> <U>
27.944

> <W>
-52.355

> <W(PB)>
-54.788

> <W(SA)>
2.433

> <Valence>
6.749

> <Coulomb>
19.997

> <VdW>
1.197

> <VdW6>
-10.230

> <VdW12>
11.427

> <Bond>
0.319

> <Angle>
2.019

> <Pdih>
4.411

> <Idih>
0.000

> <Tether>
0.000

$$$$
VeraChem MOL file


 29 28  0  0  0  0  0  0  0  0999 V2000     
   19.2985   18.3386   20.0523 C   0  0  0  0  0  0  0  0  0  0  0  0
   19.4289   17.8895   19.0592 H   0  0  0  0  0  0  0  0  0  0  0  0
   19.6028   17.5892   20.7934 H   0  0  0  0  0  0  0  0  0  0  0  0
   18.2301   18.5511   20.1873 H   0  0  0  0  0  0  0  0  0  0  0  0
   20.1424   19.6257   20.1774 C   0  0  0  0  0  0  0  0  0  0  0  0
   19.9170   20.2792   19.3231 H   0  0  0  0  0  0  0  0  0  0  0  0
   21.2084   19.3719   20.0933 H   0  0  0  0  0  0  0  0  0  0  0  0
   19.9002   20.4232   21.4842 C   0  0  0  0  0  0  0  0  0  0  0  0
   20.5118   21.3346   21.4329 H   0  0  0  0  0  0  0  0  0  0  0  0
   18.8581   20.7683   21.5285 H   0  0  0  0  0  0  0  0  0  0  0  0
   20.2725   19.6637   22.7841 C   0  0  0  0  0  0  0  0  0  0  0  0
   20.6982   20.3874   23.4916 H   0  0  0  0  0  0  0  0  0  0  0  0
   21.0684   18.9349   22.5781 H   0  0  0  0  0  0  0  0  0  0  0  0
   19.0612   18.9660   23.4546 C   0  0  0  0  0  0  0  0  0  0  0  0
   18.3145   19.7184   23.7410 H   0  0  0  0  0  0  0  0  0  0  0  0
   18.5599   18.3106   22.7326 H   0  0  0  0  0  0  0  0  0  0  0  0
   19.4557   18.1161   24.6895 C   0  0  0  0  0  0  0  0  0  0  0  0
   20.1230   17.3077   24.3620 H   0  0  0  0  0  0  0  0  0  0  0  0
   18.5571   17.6282   25.0901 H   0  0  0  0  0  0  0  0  0  0  0  0
   20.1484   18.9153   25.8158 C   0  0  2  0  0  0  0  0  0  0  0  0
   21.0500   19.3793   25.4052 H   0  0  0  0  0  0  0  0  0  0  0  0
   20.5703   17.9761   26.9566 C   0  0  0  0  0  0  0  0  0  0  0  0
   21.0974   18.5316   27.7420 H   0  0  0  0  0  0  0  0  0  0  0  0
   19.6997   17.4859   27.4101 H   0  0  0  0  0  0  0  0  0  0  0  0
   21.2483   17.1960   26.5884 H   0  0  0  0  0  0  0  0  0  0  0  0
   19.2868   20.0313   26.3396 N   0  3  0  0  0  0  0  0  0  0  0  0
   19.7695   20.5684   27.0656 H   0  0  0  0  0  0  0  0  0  0  0  0
   18.4200   19.6721   26.7482 H   0  0  0  0  0  0  0  0  0  0  0  0
   19.0299   20.6830   25.5932 H   0  0  0  0  0  0  0  0  0  0  0  0
  1  2  1  0  0  0  0
  1  3  1  0  0  0  0
  1  4  1  0  0  0  0
  1  5  1  0  0  0  0
  5  6  1  0  0  0  0
  5  7  1  0  0  0  0
  5  8  1  0  0  0  0
  8  9  1  0  0  0  0
  8 10  1  0  0  0  0
  8 11  1  0  0  0  0
 11 12  1  0  0  0  0
 11 13  1  0  0  0  0
 11 14  1  0  0  0  0
 14 15  1  0  0  0  0
 14 16  1  0  0  0  0
 14 17  1  0  0  0  0
 17 18  1  0  0  0  0
 17 19  1  0  0  0  0
 17 20  1  0  0  0  0
 20 21  1  0  0  0  0
 20 22  1  0  0  0  0
 22 23  1  0  0  0  0
 22 24  1  0  0  0  0
 22 25  1  0  0  0  0
 20 26  1  0  0  0  0
 26 27  1  0  0  0  0
 26 28  1  0  0  0  0
 26 29  1  0  0  0  0
M  END
> <VM2 Rank>
112

> <Conf_Id>
1352

> <Probability>
0.02

> <Sum Probability>
99.59

> <Delta G>
3.896

> <G>
37.599

> <E>
-0.364

> <-TS>
37.963

> <U+W>
-24.509

> <U>
27.887

> <W>
-52.396

> <W(PB)>
-54.858

> <W(SA)>
2.462

> <Valence>
6.471

> <Coulomb>
20.362

> <VdW>
1.054

> <VdW6>
-10.398

> <VdW12>
11.452

> <Bond>
0.305

> <Angle>
1.802

> <Pdih>
4.364

> <Idih>
0.000

> <Tether>
0.000

$$$$
VeraChem MOL file


 29 28  0  0  0  0  0  0  0  0999 V2000     
   20.5772   18.2654   19.8016 C   0  0  0  0  0  0  0  0  0  0  0  0
   20.4788   18.9911   18.9837 H   0  0  0  0  0  0  0  0  0  0  0  0
   21.5762   17.8154   19.7339 H   0  0  0  0  0  0  0  0  0  0  0  0
   19.8375   17.4697   19.6437 H   0  0  0  0  0  0  0  0  0  0  0  0
   20.3771   18.9439   21.1732 C   0  0  0  0  0  0  0  0  0  0  0  0
   21.1465   19.7157   21.3136 H   0  0  0  0  0  0  0  0  0  0  0  0
   20.5205   18.1943   21.9626 H   0  0  0  0  0  0  0  0  0  0  0  0
   18.9721   19.5764   21.2968 C   0  0  0  0  0  0  0  0  0  0  0  0
   18.7996   20.2337   20.4334 H   0  0  0  0  0  0  0  0  0  0  0  0
   18.2107   18.7866   21.2360 H   0  0  0  0  0  0  0  0  0  0  0  0
   18.7527   20.4042   22.5895 C   0  0  0  0  0  0  0  0  0  0  0  0
   17.7409   20.8299   22.5410 H   0  0  0  0  0  0  0  0  0  0  0  0
   19.4347   21.2654   22.6065 H   0  0  0  0  0  0  0  0  0  0  0  0
   18.8738   19.5929   23.9058 C   0  0  0  0  0  0  0  0  0  0  0  0
   18.1261   19.9756   24.6131 H   0  0  0  0  0  0  0  0  0  0  0  0
   18.6064   18.5453   23.7167 H   0  0  0  0  0  0  0  0  0  0  0  0
   20.2778   19.7022   24.5629 C   0  0  0  0  0  0  0  0  0  0  0  0
   20.4847   20.7571   24.7855 H   0  0  0  0  0  0  0  0  0  0  0  0
   21.0545   19.3920   23.8550 H   0  0  0  0  0  0  0  0  0  0  0  0
   20.4505   18.8880   25.8667 C   0  0  2  0  0  0  0  0  0  0  0  0
   21.4513   19.1032   26.2537 H   0  0  0  0  0  0  0  0  0  0  0  0
   20.3666   17.3722   25.6155 C   0  0  0  0  0  0  0  0  0  0  0  0
   21.0666   17.0681   24.8274 H   0  0  0  0  0  0  0  0  0  0  0  0
   20.6293   16.8182   26.5251 H   0  0  0  0  0  0  0  0  0  0  0  0
   19.3577   17.0646   25.3167 H   0  0  0  0  0  0  0  0  0  0  0  0
   19.4881   19.3109   26.9421 N   0  3  0  0  0  0  0  0  0  0  0  0
   19.5696   20.3110   27.1466 H   0  0  0  0  0  0  0  0  0  0  0  0
   19.6574   18.8046   27.8159 H   0  0  0  0  0  0  0  0  0  0  0  0
   18.5200   19.1304   26.6650 H   0  0  0  0  0  0  0  0  0  0  0  0
  1  2  1  0  0  0  0
  1  3  1  0  0  0  0
  1  4  1  0  0  0  0
  1  5  1  0  0  0  0
  5  6  1  0  0  0  0
  5  7  1  0  0  0  0
  5  8  1  0  0  0  0
  8  9  1  0  0  0  0
  8 10  1  0  0  0  0
  8 11  1  0  0  0  0
 11 12  1  0  0  0  0
 11 13  1  0  0  0  0
 11 14  1  0  0  0  0
 14 15  1  0  0  0  0
 14 16  1  0  0  0  0
 14 17  1  0  0  0  0
 17 18  1  0  0  0  0
 17 19  1  0  0  0  0
 17 20  1  0  0  0  0
 20 21  1  0  0  0  0
 20 22  1  0  0  0  0
 22 23  1  0  0  0  0
 22 24  1  0  0  0  0
 22 25  1  0  0  0  0
 20 26  1  0  0  0  0
 26 27  1  0  0  0  0
 26 28  1  0  0  0  0
 26 29  1  0  0  0  0
M  END
> <VM2 Rank>
113

> <Conf_Id>
153

> <Probability>
0.01

> <Sum Probability>
99.60

> <Delta G>
3.906

> <G>
37.608

> <E>
-0.302

> <-TS>
37.910

> <U+W>
-24.446

> <U>
27.947

> <W>
-52.394

> <W(PB)>
-54.842

> <W(SA)>
2.448

> <Valence>
6.732

> <Coulomb>
20.067

> <VdW>
1.149

> <VdW6>
-10.428

> <VdW12>
11.576

> <Bond>
0.324

> <Angle>
1.942

> <Pdih>
4.467

> <Idih>
0.000

> <Tether>
0.000

$$$$
VeraChem MOL file


 29 28  0  0  0  0  0  0  0  0999 V2000     
   19.0146   20.8004   20.3258 C   0  0  0  0  0  0  0  0  0  0  0  0
   18.3692   21.1598   19.5138 H   0  0  0  0  0  0  0  0  0  0  0  0
   18.5070   21.0228   21.2723 H   0  0  0  0  0  0  0  0  0  0  0  0
   19.9487   21.3762   20.2917 H   0  0  0  0  0  0  0  0  0  0  0  0
   19.2884   19.2874   20.1687 C   0  0  0  0  0  0  0  0  0  0  0  0
   19.6774   19.1017   19.1578 H   0  0  0  0  0  0  0  0  0  0  0  0
   18.3433   18.7312   20.2413 H   0  0  0  0  0  0  0  0  0  0  0  0
   20.3021   18.7340   21.1992 C   0  0  0  0  0  0  0  0  0  0  0  0
   20.5207   17.6880   20.9437 H   0  0  0  0  0  0  0  0  0  0  0  0
   21.2518   19.2793   21.1091 H   0  0  0  0  0  0  0  0  0  0  0  0
   19.7965   18.8041   22.6600 C   0  0  0  0  0  0  0  0  0  0  0  0
   18.8265   18.2935   22.7349 H   0  0  0  0  0  0  0  0  0  0  0  0
   19.6421   19.8542   22.9320 H   0  0  0  0  0  0  0  0  0  0  0  0
   20.8026   18.1606   23.6439 C   0  0  0  0  0  0  0  0  0  0  0  0
   21.0843   17.1688   23.2639 H   0  0  0  0  0  0  0  0  0  0  0  0
   21.7274   18.7538   23.6610 H   0  0  0  0  0  0  0  0  0  0  0  0
   20.2762   17.9830   25.0926 C   0  0  0  0  0  0  0  0  0  0  0  0
   21.0446   17.4292   25.6483 H   0  0  0  0  0  0  0  0  0  0  0  0
   19.3849   17.3417   25.0956 H   0  0  0  0  0  0  0  0  0  0  0  0
   19.9787   19.3031   25.8426 C   0  0  2  0  0  0  0  0  0  0  0  0
   20.7538   20.0305   25.5824 H   0  0  0  0  0  0  0  0  0  0  0  0
   20.0216   19.0769   27.3629 C   0  0  0  0  0  0  0  0  0  0  0  0
   19.2712   18.3399   27.6756 H   0  0  0  0  0  0  0  0  0  0  0  0
   21.0086   18.7144   27.6765 H   0  0  0  0  0  0  0  0  0  0  0  0
   19.8269   20.0129   27.9008 H   0  0  0  0  0  0  0  0  0  0  0  0
   18.6553   19.9065   25.4584 N   0  3  0  0  0  0  0  0  0  0  0  0
   17.8790   19.2896   25.7121 H   0  0  0  0  0  0  0  0  0  0  0  0
   18.5991   20.0741   24.4513 H   0  0  0  0  0  0  0  0  0  0  0  0
   18.5017   20.8020   25.9311 H   0  0  0  0  0  0  0  0  0  0  0  0
  1  2  1  0  0  0  0
  1  3  1  0  0  0  0
  1  4  1  0  0  0  0
  1  5  1  0  0  0  0
  5  6  1  0  0  0  0
  5  7  1  0  0  0  0
  5  8  1  0  0  0  0
  8  9  1  0  0  0  0
  8 10  1  0  0  0  0
  8 11  1  0  0  0  0
 11 12  1  0  0  0  0
 11 13  1  0  0  0  0
 11 14  1  0  0  0  0
 14 15  1  0  0  0  0
 14 16  1  0  0  0  0
 14 17  1  0  0  0  0
 17 18  1  0  0  0  0
 17 19  1  0  0  0  0
 17 20  1  0  0  0  0
 20 21  1  0  0  0  0
 20 22  1  0  0  0  0
 22 23  1  0  0  0  0
 22 24  1  0  0  0  0
 22 25  1  0  0  0  0
 20 26  1  0  0  0  0
 26 27  1  0  0  0  0
 26 28  1  0  0  0  0
 26 29  1  0  0  0  0
M  END
> <VM2 Rank>
114

> <Conf_Id>
1464

> <Probability>
0.01

> <Sum Probability>
99.62

> <Delta G>
3.940

> <G>
37.642

> <E>
0.129

> <-TS>
37.514

> <U+W>
-24.016

> <U>
27.949

> <W>
-51.965

> <W(PB)>
-54.444

> <W(SA)>
2.478

> <Valence>
5.463

> <Coulomb>
21.337

> <VdW>
1.149

> <VdW6>
-9.730

> <VdW12>
10.879

> <Bond>
0.280

> <Angle>
1.828

> <Pdih>
3.354

> <Idih>
0.000

> <Tether>
0.000

$$$$
VeraChem MOL file


 29 28  0  0  0  0  0  0  0  0999 V2000     
   18.5413   18.9171   19.6883 C   0  0  0  0  0  0  0  0  0  0  0  0
   17.5912   18.8107   20.2279 H   0  0  0  0  0  0  0  0  0  0  0  0
   18.6053   19.9448   19.3076 H   0  0  0  0  0  0  0  0  0  0  0  0
   18.5167   18.2389   18.8255 H   0  0  0  0  0  0  0  0  0  0  0  0
   19.7393   18.5897   20.6045 C   0  0  0  0  0  0  0  0  0  0  0  0
   20.6717   18.6706   20.0284 H   0  0  0  0  0  0  0  0  0  0  0  0
   19.6648   17.5467   20.9429 H   0  0  0  0  0  0  0  0  0  0  0  0
   19.7978   19.5315   21.8272 C   0  0  0  0  0  0  0  0  0  0  0  0
   19.8761   20.5723   21.4841 H   0  0  0  0  0  0  0  0  0  0  0  0
   18.8564   19.4534   22.3854 H   0  0  0  0  0  0  0  0  0  0  0  0
   20.9970   19.2014   22.7484 C   0  0  0  0  0  0  0  0  0  0  0  0
   21.9222   19.2739   22.1602 H   0  0  0  0  0  0  0  0  0  0  0  0
   20.9417   18.1597   23.0893 H   0  0  0  0  0  0  0  0  0  0  0  0
   21.1194   20.1532   23.9642 C   0  0  0  0  0  0  0  0  0  0  0  0
   22.0538   19.9257   24.4959 H   0  0  0  0  0  0  0  0  0  0  0  0
   21.2293   21.1828   23.5966 H   0  0  0  0  0  0  0  0  0  0  0  0
   19.9467   20.1090   24.9802 C   0  0  0  0  0  0  0  0  0  0  0  0
   19.0041   20.4054   24.5031 H   0  0  0  0  0  0  0  0  0  0  0  0
   20.1461   20.8857   25.7304 H   0  0  0  0  0  0  0  0  0  0  0  0
   19.7907   18.7482   25.7027 C   0  0  2  0  0  0  0  0  0  0  0  0
   20.7432   18.2137   25.6358 H   0  0  0  0  0  0  0  0  0  0  0  0
   18.6896   17.8791   25.0679 C   0  0  0  0  0  0  0  0  0  0  0  0
   18.8997   17.6651   24.0151 H   0  0  0  0  0  0  0  0  0  0  0  0
   18.6113   16.9162   25.5875 H   0  0  0  0  0  0  0  0  0  0  0  0
   17.7124   18.3746   25.1248 H   0  0  0  0  0  0  0  0  0  0  0  0
   19.5142   18.9268   27.1705 N   0  3  0  0  0  0  0  0  0  0  0  0
   18.6336   19.4247   27.3272 H   0  0  0  0  0  0  0  0  0  0  0  0
   20.2569   19.4606   27.6313 H   0  0  0  0  0  0  0  0  0  0  0  0
   19.4450   18.0247   27.6502 H   0  0  0  0  0  0  0  0  0  0  0  0
  1  2  1  0  0  0  0
  1  3  1  0  0  0  0
  1  4  1  0  0  0  0
  1  5  1  0  0  0  0
  5  6  1  0  0  0  0
  5  7  1  0  0  0  0
  5  8  1  0  0  0  0
  8  9  1  0  0  0  0
  8 10  1  0  0  0  0
  8 11  1  0  0  0  0
 11 12  1  0  0  0  0
 11 13  1  0  0  0  0
 11 14  1  0  0  0  0
 14 15  1  0  0  0  0
 14 16  1  0  0  0  0
 14 17  1  0  0  0  0
 17 18  1  0  0  0  0
 17 19  1  0  0  0  0
 17 20  1  0  0  0  0
 20 21  1  0  0  0  0
 20 22  1  0  0  0  0
 22 23  1  0  0  0  0
 22 24  1  0  0  0  0
 22 25  1  0  0  0  0
 20 26  1  0  0  0  0
 26 27  1  0  0  0  0
 26 28  1  0  0  0  0
 26 29  1  0  0  0  0
M  END
> <VM2 Rank>
115

> <Conf_Id>
1688

> <Probability>
0.01

> <Sum Probability>
99.63

> <Delta G>
3.951

> <G>
37.653

> <E>
-0.364

> <-TS>
38.017

> <U+W>
-24.508

> <U>
27.828

> <W>
-52.337

> <W(PB)>
-54.787

> <W(SA)>
2.450

> <Valence>
6.936

> <Coulomb>
20.037

> <VdW>
0.855

> <VdW6>
-10.295

> <VdW12>
11.150

> <Bond>
0.273

> <Angle>
1.992

> <Pdih>
4.672

> <Idih>
0.000

> <Tether>
0.000

$$$$
VeraChem MOL file


 29 28  0  0  0  0  0  0  0  0999 V2000     
   19.2221   20.5583   20.4333 C   0  0  0  0  0  0  0  0  0  0  0  0
   18.2663   20.0355   20.5619 H   0  0  0  0  0  0  0  0  0  0  0  0
   19.2680   21.3765   21.1636 H   0  0  0  0  0  0  0  0  0  0  0  0
   19.2222   21.0034   19.4299 H   0  0  0  0  0  0  0  0  0  0  0  0
   20.4215   19.5978   20.5987 C   0  0  0  0  0  0  0  0  0  0  0  0
   21.3446   20.1372   20.3446 H   0  0  0  0  0  0  0  0  0  0  0  0
   20.3382   18.7737   19.8764 H   0  0  0  0  0  0  0  0  0  0  0  0
   20.5571   19.0286   22.0313 C   0  0  0  0  0  0  0  0  0  0  0  0
   21.4920   18.4546   22.0887 H   0  0  0  0  0  0  0  0  0  0  0  0
   20.6642   19.8623   22.7339 H   0  0  0  0  0  0  0  0  0  0  0  0
   19.3757   18.1110   22.4395 C   0  0  0  0  0  0  0  0  0  0  0  0
   19.2621   17.3405   21.6645 H   0  0  0  0  0  0  0  0  0  0  0  0
   18.4327   18.6728   22.4496 H   0  0  0  0  0  0  0  0  0  0  0  0
   19.5722   17.3970   23.8027 C   0  0  0  0  0  0  0  0  0  0  0  0
   19.0229   16.4462   23.7638 H   0  0  0  0  0  0  0  0  0  0  0  0
   20.6241   17.1155   23.9426 H   0  0  0  0  0  0  0  0  0  0  0  0
   19.0388   18.1821   25.0320 C   0  0  0  0  0  0  0  0  0  0  0  0
   19.1254   17.5439   25.9214 H   0  0  0  0  0  0  0  0  0  0  0  0
   17.9638   18.3548   24.8902 H   0  0  0  0  0  0  0  0  0  0  0  0
   19.7229   19.5370   25.3219 C   0  0  2  0  0  0  0  0  0  0  0  0
   19.6372   20.1651   24.4316 H   0  0  0  0  0  0  0  0  0  0  0  0
   21.2121   19.3676   25.6726 C   0  0  0  0  0  0  0  0  0  0  0  0
   21.6691   20.3392   25.8969 H   0  0  0  0  0  0  0  0  0  0  0  0
   21.3410   18.7206   26.5491 H   0  0  0  0  0  0  0  0  0  0  0  0
   21.7726   18.9286   24.8396 H   0  0  0  0  0  0  0  0  0  0  0  0
   19.0135   20.2766   26.4219 N   0  3  0  0  0  0  0  0  0  0  0  0
   19.4400   21.1917   26.5931 H   0  0  0  0  0  0  0  0  0  0  0  0
   19.0446   19.7559   27.3027 H   0  0  0  0  0  0  0  0  0  0  0  0
   18.0281   20.4373   26.1940 H   0  0  0  0  0  0  0  0  0  0  0  0
  1  2  1  0  0  0  0
  1  3  1  0  0  0  0
  1  4  1  0  0  0  0
  1  5  1  0  0  0  0
  5  6  1  0  0  0  0
  5  7  1  0  0  0  0
  5  8  1  0  0  0  0
  8  9  1  0  0  0  0
  8 10  1  0  0  0  0
  8 11  1  0  0  0  0
 11 12  1  0  0  0  0
 11 13  1  0  0  0  0
 11 14  1  0  0  0  0
 14 15  1  0  0  0  0
 14 16  1  0  0  0  0
 14 17  1  0  0  0  0
 17 18  1  0  0  0  0
 17 19  1  0  0  0  0
 17 20  1  0  0  0  0
 20 21  1  0  0  0  0
 20 22  1  0  0  0  0
 22 23  1  0  0  0  0
 22 24  1  0  0  0  0
 22 25  1  0  0  0  0
 20 26  1  0  0  0  0
 26 27  1  0  0  0  0
 26 28  1  0  0  0  0
 26 29  1  0  0  0  0
M  END
> <VM2 Rank>
116

> <Conf_Id>
312

> <Probability>
0.01

> <Sum Probability>
99.64

> <Delta G>
3.968

> <G>
37.670

> <E>
-0.452

> <-TS>
38.123

> <U+W>
-24.597

> <U>
28.108

> <W>
-52.704

> <W(PB)>
-55.108

> <W(SA)>
2.404

> <Valence>
6.824

> <Coulomb>
20.447

> <VdW>
0.837

> <VdW6>
-11.014

> <VdW12>
11.852

> <Bond>
0.324

> <Angle>
2.453

> <Pdih>
4.046

> <Idih>
0.000

> <Tether>
0.000

$$$$
VeraChem MOL file


 29 28  0  0  0  0  0  0  0  0999 V2000     
   20.0978   19.7371   19.0511 C   0  0  0  0  0  0  0  0  0  0  0  0
   21.0137   20.3339   19.1520 H   0  0  0  0  0  0  0  0  0  0  0  0
   20.3596   18.7880   18.5655 H   0  0  0  0  0  0  0  0  0  0  0  0
   19.4140   20.2790   18.3848 H   0  0  0  0  0  0  0  0  0  0  0  0
   19.4402   19.4944   20.4261 C   0  0  0  0  0  0  0  0  0  0  0  0
   18.5126   18.9211   20.2902 H   0  0  0  0  0  0  0  0  0  0  0  0
   19.1566   20.4621   20.8608 H   0  0  0  0  0  0  0  0  0  0  0  0
   20.3878   18.7354   21.3847 C   0  0  0  0  0  0  0  0  0  0  0  0
   20.7226   17.8097   20.8967 H   0  0  0  0  0  0  0  0  0  0  0  0
   21.2918   19.3342   21.5624 H   0  0  0  0  0  0  0  0  0  0  0  0
   19.7356   18.3671   22.7398 C   0  0  0  0  0  0  0  0  0  0  0  0
   20.4355   17.7328   23.2968 H   0  0  0  0  0  0  0  0  0  0  0  0
   18.8451   17.7490   22.5605 H   0  0  0  0  0  0  0  0  0  0  0  0
   19.3453   19.6015   23.5931 C   0  0  0  0  0  0  0  0  0  0  0  0
   20.1885   20.3025   23.6639 H   0  0  0  0  0  0  0  0  0  0  0  0
   18.5418   20.1431   23.0767 H   0  0  0  0  0  0  0  0  0  0  0  0
   18.8409   19.2306   25.0129 C   0  0  0  0  0  0  0  0  0  0  0  0
   18.4054   18.2225   25.0115 H   0  0  0  0  0  0  0  0  0  0  0  0
   18.0169   19.9115   25.2643 H   0  0  0  0  0  0  0  0  0  0  0  0
   19.9034   19.3534   26.1316 C   0  0  2  0  0  0  0  0  0  0  0  0
   20.2805   20.3807   26.1307 H   0  0  0  0  0  0  0  0  0  0  0  0
   21.0969   18.4048   25.9292 C   0  0  0  0  0  0  0  0  0  0  0  0
   21.6623   18.6703   25.0285 H   0  0  0  0  0  0  0  0  0  0  0  0
   21.7906   18.4698   26.7764 H   0  0  0  0  0  0  0  0  0  0  0  0
   20.7657   17.3627   25.8395 H   0  0  0  0  0  0  0  0  0  0  0  0
   19.2881   19.1316   27.4854 N   0  3  0  0  0  0  0  0  0  0  0  0
   19.9756   19.2582   28.2338 H   0  0  0  0  0  0  0  0  0  0  0  0
   18.9112   18.1841   27.5739 H   0  0  0  0  0  0  0  0  0  0  0  0
   18.5207   19.7862   27.6629 H   0  0  0  0  0  0  0  0  0  0  0  0
  1  2  1  0  0  0  0
  1  3  1  0  0  0  0
  1  4  1  0  0  0  0
  1  5  1  0  0  0  0
  5  6  1  0  0  0  0
  5  7  1  0  0  0  0
  5  8  1  0  0  0  0
  8  9  1  0  0  0  0
  8 10  1  0  0  0  0
  8 11  1  0  0  0  0
 11 12  1  0  0  0  0
 11 13  1  0  0  0  0
 11 14  1  0  0  0  0
 14 15  1  0  0  0  0
 14 16  1  0  0  0  0
 14 17  1  0  0  0  0
 17 18  1  0  0  0  0
 17 19  1  0  0  0  0
 17 20  1  0  0  0  0
 20 21  1  0  0  0  0
 20 22  1  0  0  0  0
 22 23  1  0  0  0  0
 22 24  1  0  0  0  0
 22 25  1  0  0  0  0
 20 26  1  0  0  0  0
 26 27  1  0  0  0  0
 26 28  1  0  0  0  0
 26 29  1  0  0  0  0
M  END
> <VM2 Rank>
117

> <Conf_Id>
334

> <Probability>
0.01

> <Sum Probability>
99.66

> <Delta G>
3.972

> <G>
37.674

> <E>
-0.135

> <-TS>
37.810

> <U+W>
-24.280

> <U>
27.820

> <W>
-52.100

> <W(PB)>
-54.587

> <W(SA)>
2.487

> <Valence>
6.838

> <Coulomb>
19.703

> <VdW>
1.279

> <VdW6>
-9.734

> <VdW12>
11.013

> <Bond>
0.292

> <Angle>
1.870

> <Pdih>
4.676

> <Idih>
0.000

> <Tether>
0.000

$$$$
VeraChem MOL file


 29 28  0  0  0  0  0  0  0  0999 V2000     
   20.7419   18.8101   19.7250 C   0  0  0  0  0  0  0  0  0  0  0  0
   21.5205   18.0492   19.5834 H   0  0  0  0  0  0  0  0  0  0  0  0
   19.8836   18.5352   19.0981 H   0  0  0  0  0  0  0  0  0  0  0  0
   21.1376   19.7679   19.3625 H   0  0  0  0  0  0  0  0  0  0  0  0
   20.3354   18.9035   21.2109 C   0  0  0  0  0  0  0  0  0  0  0  0
   21.2176   19.1556   21.8157 H   0  0  0  0  0  0  0  0  0  0  0  0
   19.9836   17.9176   21.5406 H   0  0  0  0  0  0  0  0  0  0  0  0
   19.2266   19.9565   21.4334 C   0  0  0  0  0  0  0  0  0  0  0  0
   19.5240   20.8944   20.9442 H   0  0  0  0  0  0  0  0  0  0  0  0
   18.3066   19.6292   20.9298 H   0  0  0  0  0  0  0  0  0  0  0  0
   18.9202   20.2669   22.9213 C   0  0  0  0  0  0  0  0  0  0  0  0
   18.1596   21.0598   22.9367 H   0  0  0  0  0  0  0  0  0  0  0  0
   19.8046   20.7054   23.3996 H   0  0  0  0  0  0  0  0  0  0  0  0
   18.3729   19.0681   23.7446 C   0  0  0  0  0  0  0  0  0  0  0  0
   17.6551   19.4502   24.4825 H   0  0  0  0  0  0  0  0  0  0  0  0
   17.7860   18.4111   23.0882 H   0  0  0  0  0  0  0  0  0  0  0  0
   19.4458   18.2270   24.4910 C   0  0  0  0  0  0  0  0  0  0  0  0
   20.1182   17.7536   23.7678 H   0  0  0  0  0  0  0  0  0  0  0  0
   18.9426   17.4030   25.0139 H   0  0  0  0  0  0  0  0  0  0  0  0
   20.2925   19.0243   25.5093 C   0  0  2  0  0  0  0  0  0  0  0  0
   20.8142   19.8242   24.9766 H   0  0  0  0  0  0  0  0  0  0  0  0
   21.3501   18.1138   26.1531 C   0  0  0  0  0  0  0  0  0  0  0  0
   22.0061   17.6781   25.3891 H   0  0  0  0  0  0  0  0  0  0  0  0
   21.9805   18.6822   26.8480 H   0  0  0  0  0  0  0  0  0  0  0  0
   20.8816   17.2927   26.7101 H   0  0  0  0  0  0  0  0  0  0  0  0
   19.4505   19.6858   26.5654 N   0  3  0  0  0  0  0  0  0  0  0  0
   18.7699   20.3270   26.1488 H   0  0  0  0  0  0  0  0  0  0  0  0
   20.0246   20.2273   27.2178 H   0  0  0  0  0  0  0  0  0  0  0  0
   18.9301   18.9957   27.1135 H   0  0  0  0  0  0  0  0  0  0  0  0
  1  2  1  0  0  0  0
  1  3  1  0  0  0  0
  1  4  1  0  0  0  0
  1  5  1  0  0  0  0
  5  6  1  0  0  0  0
  5  7  1  0  0  0  0
  5  8  1  0  0  0  0
  8  9  1  0  0  0  0
  8 10  1  0  0  0  0
  8 11  1  0  0  0  0
 11 12  1  0  0  0  0
 11 13  1  0  0  0  0
 11 14  1  0  0  0  0
 14 15  1  0  0  0  0
 14 16  1  0  0  0  0
 14 17  1  0  0  0  0
 17 18  1  0  0  0  0
 17 19  1  0  0  0  0
 17 20  1  0  0  0  0
 20 21  1  0  0  0  0
 20 22  1  0  0  0  0
 22 23  1  0  0  0  0
 22 24  1  0  0  0  0
 22 25  1  0  0  0  0
 20 26  1  0  0  0  0
 26 27  1  0  0  0  0
 26 28  1  0  0  0  0
 26 29  1  0  0  0  0
M  END
> <VM2 Rank>
118

> <Conf_Id>
1364

> <Probability>
0.01

> <Sum Probability>
99.67

> <Delta G>
3.973

> <G>
37.675

> <E>
0.012

> <-TS>
37.663

> <U+W>
-24.132

> <U>
28.213

> <W>
-52.345

> <W(PB)>
-54.784

> <W(SA)>
2.438

> <Valence>
6.654

> <Coulomb>
20.544

> <VdW>
1.015

> <VdW6>
-10.510

> <VdW12>
11.525

> <Bond>
0.340

> <Angle>
2.189

> <Pdih>
4.124

> <Idih>
0.000

> <Tether>
0.000

$$$$
VeraChem MOL file


 29 28  0  0  0  0  0  0  0  0999 V2000     
   19.2375   20.6230   19.9086 C   0  0  0  0  0  0  0  0  0  0  0  0
   20.2189   21.0677   19.6984 H   0  0  0  0  0  0  0  0  0  0  0  0
   18.9496   20.0065   19.0470 H   0  0  0  0  0  0  0  0  0  0  0  0
   18.5091   21.4395   19.9967 H   0  0  0  0  0  0  0  0  0  0  0  0
   19.2749   19.7844   21.2037 C   0  0  0  0  0  0  0  0  0  0  0  0
   18.2744   19.3754   21.4017 H   0  0  0  0  0  0  0  0  0  0  0  0
   19.5290   20.4432   22.0446 H   0  0  0  0  0  0  0  0  0  0  0  0
   20.3016   18.6329   21.1076 C   0  0  0  0  0  0  0  0  0  0  0  0
   20.0997   18.0506   20.1980 H   0  0  0  0  0  0  0  0  0  0  0  0
   21.3095   19.0524   20.9838 H   0  0  0  0  0  0  0  0  0  0  0  0
   20.2931   17.6632   22.3176 C   0  0  0  0  0  0  0  0  0  0  0  0
   21.0230   16.8688   22.1089 H   0  0  0  0  0  0  0  0  0  0  0  0
   19.3200   17.1582   22.3910 H   0  0  0  0  0  0  0  0  0  0  0  0
   20.6649   18.3174   23.6738 C   0  0  0  0  0  0  0  0  0  0  0  0
   21.2620   17.5955   24.2463 H   0  0  0  0  0  0  0  0  0  0  0  0
   21.3148   19.1875   23.5067 H   0  0  0  0  0  0  0  0  0  0  0  0
   19.4280   18.7197   24.5191 C   0  0  0  0  0  0  0  0  0  0  0  0
   18.8716   17.8174   24.8057 H   0  0  0  0  0  0  0  0  0  0  0  0
   18.7440   19.3163   23.9054 H   0  0  0  0  0  0  0  0  0  0  0  0
   19.7799   19.5341   25.7849 C   0  0  2  0  0  0  0  0  0  0  0  0
   20.3626   20.4084   25.4790 H   0  0  0  0  0  0  0  0  0  0  0  0
   20.6160   18.7182   26.7872 C   0  0  0  0  0  0  0  0  0  0  0  0
   20.0987   17.7950   27.0766 H   0  0  0  0  0  0  0  0  0  0  0  0
   21.5916   18.4488   26.3662 H   0  0  0  0  0  0  0  0  0  0  0  0
   20.8056   19.3013   27.6968 H   0  0  0  0  0  0  0  0  0  0  0  0
   18.5403   20.0630   26.4515 N   0  3  0  0  0  0  0  0  0  0  0  0
   17.9353   19.3025   26.7730 H   0  0  0  0  0  0  0  0  0  0  0  0
   17.9896   20.6471   25.8156 H   0  0  0  0  0  0  0  0  0  0  0  0
   18.7709   20.6359   27.2684 H   0  0  0  0  0  0  0  0  0  0  0  0
  1  2  1  0  0  0  0
  1  3  1  0  0  0  0
  1  4  1  0  0  0  0
  1  5  1  0  0  0  0
  5  6  1  0  0  0  0
  5  7  1  0  0  0  0
  5  8  1  0  0  0  0
  8  9  1  0  0  0  0
  8 10  1  0  0  0  0
  8 11  1  0  0  0  0
 11 12  1  0  0  0  0
 11 13  1  0  0  0  0
 11 14  1  0  0  0  0
 14 15  1  0  0  0  0
 14 16  1  0  0  0  0
 14 17  1  0  0  0  0
 17 18  1  0  0  0  0
 17 19  1  0  0  0  0
 17 20  1  0  0  0  0
 20 21  1  0  0  0  0
 20 22  1  0  0  0  0
 22 23  1  0  0  0  0
 22 24  1  0  0  0  0
 22 25  1  0  0  0  0
 20 26  1  0  0  0  0
 26 27  1  0  0  0  0
 26 28  1  0  0  0  0
 26 29  1  0  0  0  0
M  END
> <VM2 Rank>
119

> <Conf_Id>
1663

> <Probability>
0.01

> <Sum Probability>
99.68

> <Delta G>
3.981

> <G>
37.684

> <E>
-0.144

> <-TS>
37.828

> <U+W>
-24.289

> <U>
28.312

> <W>
-52.601

> <W(PB)>
-55.091

> <W(SA)>
2.490

> <Valence>
6.782

> <Coulomb>
20.298

> <VdW>
1.232

> <VdW6>
-9.819

> <VdW12>
11.051

> <Bond>
0.292

> <Angle>
1.855

> <Pdih>
4.635

> <Idih>
0.000

> <Tether>
0.000

$$$$
VeraChem MOL file


 29 28  0  0  0  0  0  0  0  0999 V2000     
   18.1051   19.0627   20.7675 C   0  0  0  0  0  0  0  0  0  0  0  0
   17.4690   18.3020   20.2969 H   0  0  0  0  0  0  0  0  0  0  0  0
   17.8957   19.0513   21.8426 H   0  0  0  0  0  0  0  0  0  0  0  0
   17.7999   20.0412   20.3745 H   0  0  0  0  0  0  0  0  0  0  0  0
   19.5955   18.7860   20.4605 C   0  0  0  0  0  0  0  0  0  0  0  0
   19.7217   18.7880   19.3688 H   0  0  0  0  0  0  0  0  0  0  0  0
   19.8737   17.7769   20.7949 H   0  0  0  0  0  0  0  0  0  0  0  0
   20.5559   19.8397   21.0700 C   0  0  0  0  0  0  0  0  0  0  0  0
   21.3893   19.9878   20.3694 H   0  0  0  0  0  0  0  0  0  0  0  0
   20.0540   20.8144   21.1423 H   0  0  0  0  0  0  0  0  0  0  0  0
   21.1648   19.4506   22.4418 C   0  0  0  0  0  0  0  0  0  0  0  0
   21.8751   20.2353   22.7364 H   0  0  0  0  0  0  0  0  0  0  0  0
   21.7546   18.5302   22.3310 H   0  0  0  0  0  0  0  0  0  0  0  0
   20.1251   19.2619   23.5705 C   0  0  0  0  0  0  0  0  0  0  0  0
   19.4726   20.1439   23.6118 H   0  0  0  0  0  0  0  0  0  0  0  0
   19.4937   18.3970   23.3342 H   0  0  0  0  0  0  0  0  0  0  0  0
   20.8078   19.0412   24.9454 C   0  0  0  0  0  0  0  0  0  0  0  0
   21.4767   19.8858   25.1565 H   0  0  0  0  0  0  0  0  0  0  0  0
   21.4507   18.1526   24.8924 H   0  0  0  0  0  0  0  0  0  0  0  0
   19.8345   18.8807   26.1371 C   0  0  2  0  0  0  0  0  0  0  0  0
   20.4424   18.7623   27.0394 H   0  0  0  0  0  0  0  0  0  0  0  0
   18.9542   17.6260   26.0016 C   0  0  0  0  0  0  0  0  0  0  0  0
   19.5701   16.7340   25.8326 H   0  0  0  0  0  0  0  0  0  0  0  0
   18.3768   17.4621   26.9197 H   0  0  0  0  0  0  0  0  0  0  0  0
   18.2437   17.7161   25.1713 H   0  0  0  0  0  0  0  0  0  0  0  0
   18.9931   20.1071   26.3596 N   0  3  0  0  0  0  0  0  0  0  0  0
   19.5730   20.9401   26.4960 H   0  0  0  0  0  0  0  0  0  0  0  0
   18.3995   20.0082   27.1881 H   0  0  0  0  0  0  0  0  0  0  0  0
   18.3792   20.2858   25.5610 H   0  0  0  0  0  0  0  0  0  0  0  0
  1  2  1  0  0  0  0
  1  3  1  0  0  0  0
  1  4  1  0  0  0  0
  1  5  1  0  0  0  0
  5  6  1  0  0  0  0
  5  7  1  0  0  0  0
  5  8  1  0  0  0  0
  8  9  1  0  0  0  0
  8 10  1  0  0  0  0
  8 11  1  0  0  0  0
 11 12  1  0  0  0  0
 11 13  1  0  0  0  0
 11 14  1  0  0  0  0
 14 15  1  0  0  0  0
 14 16  1  0  0  0  0
 14 17  1  0  0  0  0
 17 18  1  0  0  0  0
 17 19  1  0  0  0  0
 17 20  1  0  0  0  0
 20 21  1  0  0  0  0
 20 22  1  0  0  0  0
 22 23  1  0  0  0  0
 22 24  1  0  0  0  0
 22 25  1  0  0  0  0
 20 26  1  0  0  0  0
 26 27  1  0  0  0  0
 26 28  1  0  0  0  0
 26 29  1  0  0  0  0
M  END
> <VM2 Rank>
120

> <Conf_Id>
1547

> <Probability>
0.01

> <Sum Probability>
99.69

> <Delta G>
3.988

> <G>
37.690

> <E>
-0.198

> <-TS>
37.889

> <U+W>
-24.343

> <U>
28.035

> <W>
-52.378

> <W(PB)>
-54.816

> <W(SA)>
2.438

> <Valence>
6.660

> <Coulomb>
20.146

> <VdW>
1.229

> <VdW6>
-10.257

> <VdW12>
11.486

> <Bond>
0.309

> <Angle>
1.997

> <Pdih>
4.354

> <Idih>
0.000

> <Tether>
0.000

$$$$
VeraChem MOL file


 29 28  0  0  0  0  0  0  0  0999 V2000     
   19.1433   19.3253   19.1363 C   0  0  0  0  0  0  0  0  0  0  0  0
   20.1401   19.5530   18.7366 H   0  0  0  0  0  0  0  0  0  0  0  0
   18.6504   18.6351   18.4394 H   0  0  0  0  0  0  0  0  0  0  0  0
   18.5620   20.2564   19.1563 H   0  0  0  0  0  0  0  0  0  0  0  0
   19.2397   18.7014   20.5445 C   0  0  0  0  0  0  0  0  0  0  0  0
   19.7970   17.7559   20.4870 H   0  0  0  0  0  0  0  0  0  0  0  0
   18.2308   18.4536   20.9031 H   0  0  0  0  0  0  0  0  0  0  0  0
   19.9304   19.6536   21.5457 C   0  0  0  0  0  0  0  0  0  0  0  0
   20.9369   19.9002   21.1803 H   0  0  0  0  0  0  0  0  0  0  0  0
   19.3711   20.5980   21.5987 H   0  0  0  0  0  0  0  0  0  0  0  0
   20.0296   19.0313   22.9567 C   0  0  0  0  0  0  0  0  0  0  0  0
   20.5975   18.0922   22.9036 H   0  0  0  0  0  0  0  0  0  0  0  0
   19.0188   18.7829   23.3018 H   0  0  0  0  0  0  0  0  0  0  0  0
   20.7072   19.9926   23.9607 C   0  0  0  0  0  0  0  0  0  0  0  0
   21.6455   20.3547   23.5183 H   0  0  0  0  0  0  0  0  0  0  0  0
   20.0817   20.8850   24.0970 H   0  0  0  0  0  0  0  0  0  0  0  0
   21.0499   19.3653   25.3419 C   0  0  0  0  0  0  0  0  0  0  0  0
   21.5715   20.1335   25.9277 H   0  0  0  0  0  0  0  0  0  0  0  0
   21.7832   18.5590   25.2081 H   0  0  0  0  0  0  0  0  0  0  0  0
   19.8691   18.8537   26.2073 C   0  0  2  0  0  0  0  0  0  0  0  0
   20.2086   18.8824   27.2473 H   0  0  0  0  0  0  0  0  0  0  0  0
   19.5070   17.3865   25.9113 C   0  0  0  0  0  0  0  0  0  0  0  0
   18.7577   17.0273   26.6274 H   0  0  0  0  0  0  0  0  0  0  0  0
   19.0968   17.2499   24.9064 H   0  0  0  0  0  0  0  0  0  0  0  0
   20.3890   16.7416   26.0088 H   0  0  0  0  0  0  0  0  0  0  0  0
   18.6599   19.7463   26.1497 N   0  3  0  0  0  0  0  0  0  0  0  0
   18.2791   19.7886   25.2011 H   0  0  0  0  0  0  0  0  0  0  0  0
   18.8891   20.7032   26.4333 H   0  0  0  0  0  0  0  0  0  0  0  0
   17.9166   19.4118   26.7695 H   0  0  0  0  0  0  0  0  0  0  0  0
  1  2  1  0  0  0  0
  1  3  1  0  0  0  0
  1  4  1  0  0  0  0
  1  5  1  0  0  0  0
  5  6  1  0  0  0  0
  5  7  1  0  0  0  0
  5  8  1  0  0  0  0
  8  9  1  0  0  0  0
  8 10  1  0  0  0  0
  8 11  1  0  0  0  0
 11 12  1  0  0  0  0
 11 13  1  0  0  0  0
 11 14  1  0  0  0  0
 14 15  1  0  0  0  0
 14 16  1  0  0  0  0
 14 17  1  0  0  0  0
 17 18  1  0  0  0  0
 17 19  1  0  0  0  0
 17 20  1  0  0  0  0
 20 21  1  0  0  0  0
 20 22  1  0  0  0  0
 22 23  1  0  0  0  0
 22 24  1  0  0  0  0
 22 25  1  0  0  0  0
 20 26  1  0  0  0  0
 26 27  1  0  0  0  0
 26 28  1  0  0  0  0
 26 29  1  0  0  0  0
M  END
> <VM2 Rank>
121

> <Conf_Id>
703

> <Probability>
0.01

> <Sum Probability>
99.71

> <Delta G>
4.004

> <G>
37.706

> <E>
-0.180

> <-TS>
37.886

> <U+W>
-24.324

> <U>
27.917

> <W>
-52.242

> <W(PB)>
-54.697

> <W(SA)>
2.455

> <Valence>
6.272

> <Coulomb>
20.553

> <VdW>
1.092

> <VdW6>
-9.903

> <VdW12>
10.994

> <Bond>
0.299

> <Angle>
2.362

> <Pdih>
3.611

> <Idih>
0.000

> <Tether>
0.000

$$$$
VeraChem MOL file


 29 28  0  0  0  0  0  0  0  0999 V2000     
   18.6084   20.3570   20.8852 C   0  0  0  0  0  0  0  0  0  0  0  0
   17.7545   19.8067   21.3011 H   0  0  0  0  0  0  0  0  0  0  0  0
   19.0950   20.9141   21.6951 H   0  0  0  0  0  0  0  0  0  0  0  0
   18.2179   21.0928   20.1704 H   0  0  0  0  0  0  0  0  0  0  0  0
   19.6007   19.4016   20.1875 C   0  0  0  0  0  0  0  0  0  0  0  0
   20.4735   19.9726   19.8412 H   0  0  0  0  0  0  0  0  0  0  0  0
   19.1238   18.9972   19.2838 H   0  0  0  0  0  0  0  0  0  0  0  0
   20.0719   18.2153   21.0669 C   0  0  0  0  0  0  0  0  0  0  0  0
   19.2167   17.5785   21.3316 H   0  0  0  0  0  0  0  0  0  0  0  0
   20.7286   17.5871   20.4493 H   0  0  0  0  0  0  0  0  0  0  0  0
   20.8547   18.6240   22.3420 C   0  0  0  0  0  0  0  0  0  0  0  0
   21.3774   19.5754   22.1731 H   0  0  0  0  0  0  0  0  0  0  0  0
   21.6380   17.8751   22.5237 H   0  0  0  0  0  0  0  0  0  0  0  0
   19.9675   18.7105   23.6079 C   0  0  0  0  0  0  0  0  0  0  0  0
   19.1495   19.4206   23.4455 H   0  0  0  0  0  0  0  0  0  0  0  0
   19.5041   17.7308   23.7829 H   0  0  0  0  0  0  0  0  0  0  0  0
   20.7906   19.1343   24.8520 C   0  0  0  0  0  0  0  0  0  0  0  0
   21.2931   20.0880   24.6436 H   0  0  0  0  0  0  0  0  0  0  0  0
   21.5910   18.4026   25.0242 H   0  0  0  0  0  0  0  0  0  0  0  0
   19.9704   19.2895   26.1545 C   0  0  2  0  0  0  0  0  0  0  0  0
   20.6624   19.6145   26.9375 H   0  0  0  0  0  0  0  0  0  0  0  0
   19.3468   17.9581   26.6081 C   0  0  0  0  0  0  0  0  0  0  0  0
   20.1108   17.1739   26.6789 H   0  0  0  0  0  0  0  0  0  0  0  0
   18.8894   18.0671   27.5991 H   0  0  0  0  0  0  0  0  0  0  0  0
   18.5677   17.6181   25.9156 H   0  0  0  0  0  0  0  0  0  0  0  0
   18.9250   20.3657   26.0498 N   0  3  0  0  0  0  0  0  0  0  0  0
   19.3383   21.2662   25.7911 H   0  0  0  0  0  0  0  0  0  0  0  0
   18.4346   20.4980   26.9391 H   0  0  0  0  0  0  0  0  0  0  0  0
   18.2227   20.1333   25.3433 H   0  0  0  0  0  0  0  0  0  0  0  0
  1  2  1  0  0  0  0
  1  3  1  0  0  0  0
  1  4  1  0  0  0  0
  1  5  1  0  0  0  0
  5  6  1  0  0  0  0
  5  7  1  0  0  0  0
  5  8  1  0  0  0  0
  8  9  1  0  0  0  0
  8 10  1  0  0  0  0
  8 11  1  0  0  0  0
 11 12  1  0  0  0  0
 11 13  1  0  0  0  0
 11 14  1  0  0  0  0
 14 15  1  0  0  0  0
 14 16  1  0  0  0  0
 14 17  1  0  0  0  0
 17 18  1  0  0  0  0
 17 19  1  0  0  0  0
 17 20  1  0  0  0  0
 20 21  1  0  0  0  0
 20 22  1  0  0  0  0
 22 23  1  0  0  0  0
 22 24  1  0  0  0  0
 22 25  1  0  0  0  0
 20 26  1  0  0  0  0
 26 27  1  0  0  0  0
 26 28  1  0  0  0  0
 26 29  1  0  0  0  0
M  END
> <VM2 Rank>
122

> <Conf_Id>
1598

> <Probability>
0.01

> <Sum Probability>
99.72

> <Delta G>
4.037

> <G>
37.739

> <E>
-0.155

> <-TS>
37.894

> <U+W>
-24.300

> <U>
28.237

> <W>
-52.536

> <W(PB)>
-54.984

> <W(SA)>
2.448

> <Valence>
6.639

> <Coulomb>
20.375

> <VdW>
1.223

> <VdW6>
-10.233

> <VdW12>
11.456

> <Bond>
0.310

> <Angle>
1.952

> <Pdih>
4.377

> <Idih>
0.000

> <Tether>
0.000

$$$$
VeraChem MOL file


 29 28  0  0  0  0  0  0  0  0999 V2000     
   20.3146   17.8438   20.6755 C   0  0  0  0  0  0  0  0  0  0  0  0
   19.7617   17.3757   21.4986 H   0  0  0  0  0  0  0  0  0  0  0  0
   19.7049   17.7622   19.7664 H   0  0  0  0  0  0  0  0  0  0  0  0
   21.2316   17.2618   20.5177 H   0  0  0  0  0  0  0  0  0  0  0  0
   20.6559   19.3203   20.9805 C   0  0  0  0  0  0  0  0  0  0  0  0
   21.2664   19.7144   20.1561 H   0  0  0  0  0  0  0  0  0  0  0  0
   21.2869   19.3897   21.8756 H   0  0  0  0  0  0  0  0  0  0  0  0
   19.4044   20.2185   21.1356 C   0  0  0  0  0  0  0  0  0  0  0  0
   19.7303   21.2617   21.2478 H   0  0  0  0  0  0  0  0  0  0  0  0
   18.8326   20.1859   20.1979 H   0  0  0  0  0  0  0  0  0  0  0  0
   18.4510   19.8625   22.3082 C   0  0  0  0  0  0  0  0  0  0  0  0
   18.0468   18.8488   22.1881 H   0  0  0  0  0  0  0  0  0  0  0  0
   17.5820   20.5306   22.2317 H   0  0  0  0  0  0  0  0  0  0  0  0
   19.0636   20.0429   23.7221 C   0  0  0  0  0  0  0  0  0  0  0  0
   19.8358   20.8243   23.7009 H   0  0  0  0  0  0  0  0  0  0  0  0
   18.2728   20.4143   24.3873 H   0  0  0  0  0  0  0  0  0  0  0  0
   19.6391   18.7338   24.3216 C   0  0  0  0  0  0  0  0  0  0  0  0
   20.3855   18.3119   23.6406 H   0  0  0  0  0  0  0  0  0  0  0  0
   18.8406   17.9851   24.4080 H   0  0  0  0  0  0  0  0  0  0  0  0
   20.3011   18.9450   25.7004 C   0  0  2  0  0  0  0  0  0  0  0  0
   21.0720   19.7148   25.5961 H   0  0  0  0  0  0  0  0  0  0  0  0
   20.9760   17.6475   26.1733 C   0  0  0  0  0  0  0  0  0  0  0  0
   20.2428   16.8402   26.2948 H   0  0  0  0  0  0  0  0  0  0  0  0
   21.7327   17.3159   25.4514 H   0  0  0  0  0  0  0  0  0  0  0  0
   21.4792   17.8001   27.1360 H   0  0  0  0  0  0  0  0  0  0  0  0
   19.3304   19.4415   26.7368 N   0  3  0  0  0  0  0  0  0  0  0  0
   18.9058   20.3295   26.4559 H   0  0  0  0  0  0  0  0  0  0  0  0
   19.7913   19.5938   27.6385 H   0  0  0  0  0  0  0  0  0  0  0  0
   18.5722   18.7711   26.8891 H   0  0  0  0  0  0  0  0  0  0  0  0
  1  2  1  0  0  0  0
  1  3  1  0  0  0  0
  1  4  1  0  0  0  0
  1  5  1  0  0  0  0
  5  6  1  0  0  0  0
  5  7  1  0  0  0  0
  5  8  1  0  0  0  0
  8  9  1  0  0  0  0
  8 10  1  0  0  0  0
  8 11  1  0  0  0  0
 11 12  1  0  0  0  0
 11 13  1  0  0  0  0
 11 14  1  0  0  0  0
 14 15  1  0  0  0  0
 14 16  1  0  0  0  0
 14 17  1  0  0  0  0
 17 18  1  0  0  0  0
 17 19  1  0  0  0  0
 17 20  1  0  0  0  0
 20 21  1  0  0  0  0
 20 22  1  0  0  0  0
 22 23  1  0  0  0  0
 22 24  1  0  0  0  0
 22 25  1  0  0  0  0
 20 26  1  0  0  0  0
 26 27  1  0  0  0  0
 26 28  1  0  0  0  0
 26 29  1  0  0  0  0
M  END
> <VM2 Rank>
123

> <Conf_Id>
1362

> <Probability>
0.01

> <Sum Probability>
99.73

> <Delta G>
4.049

> <G>
37.751

> <E>
-0.463

> <-TS>
38.214

> <U+W>
-24.607

> <U>
27.913

> <W>
-52.521

> <W(PB)>
-54.943

> <W(SA)>
2.423

> <Valence>
6.822

> <Coulomb>
20.150

> <VdW>
0.941

> <VdW6>
-10.666

> <VdW12>
11.607

> <Bond>
0.323

> <Angle>
2.170

> <Pdih>
4.329

> <Idih>
0.000

> <Tether>
0.000

$$$$
VeraChem MOL file


 29 28  0  0  0  0  0  0  0  0999 V2000     
   20.1831   20.5552   19.8544 C   0  0  0  0  0  0  0  0  0  0  0  0
   19.5566   20.2497   19.0062 H   0  0  0  0  0  0  0  0  0  0  0  0
   19.7130   21.4253   20.3309 H   0  0  0  0  0  0  0  0  0  0  0  0
   21.1561   20.8729   19.4575 H   0  0  0  0  0  0  0  0  0  0  0  0
   20.3566   19.3985   20.8611 C   0  0  0  0  0  0  0  0  0  0  0  0
   21.0211   19.7232   21.6708 H   0  0  0  0  0  0  0  0  0  0  0  0
   20.8599   18.5580   20.3632 H   0  0  0  0  0  0  0  0  0  0  0  0
   18.9954   18.9252   21.4256 C   0  0  0  0  0  0  0  0  0  0  0  0
   18.4483   19.7696   21.8669 H   0  0  0  0  0  0  0  0  0  0  0  0
   18.3815   18.5735   20.5849 H   0  0  0  0  0  0  0  0  0  0  0  0
   19.1225   17.7734   22.4566 C   0  0  0  0  0  0  0  0  0  0  0  0
   20.0245   17.1791   22.2558 H   0  0  0  0  0  0  0  0  0  0  0  0
   18.2778   17.0868   22.3073 H   0  0  0  0  0  0  0  0  0  0  0  0
   19.1002   18.2239   23.9401 C   0  0  0  0  0  0  0  0  0  0  0  0
   18.1433   18.7209   24.1481 H   0  0  0  0  0  0  0  0  0  0  0  0
   19.1198   17.3209   24.5632 H   0  0  0  0  0  0  0  0  0  0  0  0
   20.2744   19.1579   24.3373 C   0  0  0  0  0  0  0  0  0  0  0  0
   20.1960   20.0956   23.7739 H   0  0  0  0  0  0  0  0  0  0  0  0
   21.2253   18.6966   24.0398 H   0  0  0  0  0  0  0  0  0  0  0  0
   20.3423   19.5161   25.8408 C   0  0  2  0  0  0  0  0  0  0  0  0
   21.1605   20.2320   25.9666 H   0  0  0  0  0  0  0  0  0  0  0  0
   20.6614   18.2917   26.7166 C   0  0  0  0  0  0  0  0  0  0  0  0
   20.8449   18.6002   27.7531 H   0  0  0  0  0  0  0  0  0  0  0  0
   19.8362   17.5701   26.7246 H   0  0  0  0  0  0  0  0  0  0  0  0
   21.5630   17.7798   26.3579 H   0  0  0  0  0  0  0  0  0  0  0  0
   19.1000   20.2139   26.3215 N   0  3  0  0  0  0  0  0  0  0  0  0
   19.1857   20.4976   27.3017 H   0  0  0  0  0  0  0  0  0  0  0  0
   18.2813   19.6048   26.2483 H   0  0  0  0  0  0  0  0  0  0  0  0
   18.9075   21.0575   25.7739 H   0  0  0  0  0  0  0  0  0  0  0  0
  1  2  1  0  0  0  0
  1  3  1  0  0  0  0
  1  4  1  0  0  0  0
  1  5  1  0  0  0  0
  5  6  1  0  0  0  0
  5  7  1  0  0  0  0
  5  8  1  0  0  0  0
  8  9  1  0  0  0  0
  8 10  1  0  0  0  0
  8 11  1  0  0  0  0
 11 12  1  0  0  0  0
 11 13  1  0  0  0  0
 11 14  1  0  0  0  0
 14 15  1  0  0  0  0
 14 16  1  0  0  0  0
 14 17  1  0  0  0  0
 17 18  1  0  0  0  0
 17 19  1  0  0  0  0
 17 20  1  0  0  0  0
 20 21  1  0  0  0  0
 20 22  1  0  0  0  0
 22 23  1  0  0  0  0
 22 24  1  0  0  0  0
 22 25  1  0  0  0  0
 20 26  1  0  0  0  0
 26 27  1  0  0  0  0
 26 28  1  0  0  0  0
 26 29  1  0  0  0  0
M  END
> <VM2 Rank>
124

> <Conf_Id>
1595

> <Probability>
0.01

> <Sum Probability>
99.74

> <Delta G>
4.056

> <G>
37.759

> <E>
-0.139

> <-TS>
37.898

> <U+W>
-24.284

> <U>
28.217

> <W>
-52.501

> <W(PB)>
-54.947

> <W(SA)>
2.446

> <Valence>
6.821

> <Coulomb>
20.147

> <VdW>
1.249

> <VdW6>
-10.236

> <VdW12>
11.486

> <Bond>
0.316

> <Angle>
1.990

> <Pdih>
4.515

> <Idih>
0.000

> <Tether>
0.000

$$$$
VeraChem MOL file


 29 28  0  0  0  0  0  0  0  0999 V2000     
   20.5516   19.3509   19.2430 C   0  0  0  0  0  0  0  0  0  0  0  0
   20.0155   20.2606   18.9427 H   0  0  0  0  0  0  0  0  0  0  0  0
   21.5695   19.6358   19.5393 H   0  0  0  0  0  0  0  0  0  0  0  0
   20.6267   18.6981   18.3636 H   0  0  0  0  0  0  0  0  0  0  0  0
   19.8195   18.6307   20.3951 C   0  0  0  0  0  0  0  0  0  0  0  0
   20.3604   17.7089   20.6510 H   0  0  0  0  0  0  0  0  0  0  0  0
   18.8184   18.3278   20.0575 H   0  0  0  0  0  0  0  0  0  0  0  0
   19.6991   19.5287   21.6463 C   0  0  0  0  0  0  0  0  0  0  0  0
   20.7038   19.8334   21.9652 H   0  0  0  0  0  0  0  0  0  0  0  0
   19.1569   20.4478   21.3846 H   0  0  0  0  0  0  0  0  0  0  0  0
   18.9650   18.8061   22.8020 C   0  0  0  0  0  0  0  0  0  0  0  0
   19.5117   17.8954   23.0730 H   0  0  0  0  0  0  0  0  0  0  0  0
   17.9828   18.4738   22.4385 H   0  0  0  0  0  0  0  0  0  0  0  0
   18.7423   19.7028   24.0484 C   0  0  0  0  0  0  0  0  0  0  0  0
   18.2680   20.6364   23.7160 H   0  0  0  0  0  0  0  0  0  0  0  0
   18.0087   19.2255   24.7106 H   0  0  0  0  0  0  0  0  0  0  0  0
   20.0292   20.0573   24.8497 C   0  0  0  0  0  0  0  0  0  0  0  0
   19.9111   21.0714   25.2534 H   0  0  0  0  0  0  0  0  0  0  0  0
   20.8964   20.1155   24.1820 H   0  0  0  0  0  0  0  0  0  0  0  0
   20.3696   19.1248   26.0387 C   0  0  2  0  0  0  0  0  0  0  0  0
   21.2931   19.5030   26.4879 H   0  0  0  0  0  0  0  0  0  0  0  0
   20.6291   17.6731   25.6057 C   0  0  0  0  0  0  0  0  0  0  0  0
   19.7085   17.1855   25.2640 H   0  0  0  0  0  0  0  0  0  0  0  0
   21.3677   17.6333   24.7955 H   0  0  0  0  0  0  0  0  0  0  0  0
   21.0242   17.0882   26.4453 H   0  0  0  0  0  0  0  0  0  0  0  0
   19.3307   19.1815   27.1252 N   0  3  0  0  0  0  0  0  0  0  0  0
   18.4271   18.8344   26.7944 H   0  0  0  0  0  0  0  0  0  0  0  0
   19.1894   20.1389   27.4600 H   0  0  0  0  0  0  0  0  0  0  0  0
   19.6021   18.6121   27.9318 H   0  0  0  0  0  0  0  0  0  0  0  0
  1  2  1  0  0  0  0
  1  3  1  0  0  0  0
  1  4  1  0  0  0  0
  1  5  1  0  0  0  0
  5  6  1  0  0  0  0
  5  7  1  0  0  0  0
  5  8  1  0  0  0  0
  8  9  1  0  0  0  0
  8 10  1  0  0  0  0
  8 11  1  0  0  0  0
 11 12  1  0  0  0  0
 11 13  1  0  0  0  0
 11 14  1  0  0  0  0
 14 15  1  0  0  0  0
 14 16  1  0  0  0  0
 14 17  1  0  0  0  0
 17 18  1  0  0  0  0
 17 19  1  0  0  0  0
 17 20  1  0  0  0  0
 20 21  1  0  0  0  0
 20 22  1  0  0  0  0
 22 23  1  0  0  0  0
 22 24  1  0  0  0  0
 22 25  1  0  0  0  0
 20 26  1  0  0  0  0
 26 27  1  0  0  0  0
 26 28  1  0  0  0  0
 26 29  1  0  0  0  0
M  END
> <VM2 Rank>
125

> <Conf_Id>
1675

> <Probability>
0.01

> <Sum Probability>
99.75

> <Delta G>
4.063

> <G>
37.765

> <E>
0.044

> <-TS>
37.721

> <U+W>
-24.101

> <U>
28.164

> <W>
-52.265

> <W(PB)>
-54.734

> <W(SA)>
2.469

> <Valence>
6.996

> <Coulomb>
19.940

> <VdW>
1.228

> <VdW6>
-10.119

> <VdW12>
11.347

> <Bond>
0.347

> <Angle>
2.178

> <Pdih>
4.471

> <Idih>
0.000

> <Tether>
0.000

$$$$
VeraChem MOL file


 29 28  0  0  0  0  0  0  0  0999 V2000     
   20.9808   19.8984   20.3561 C   0  0  0  0  0  0  0  0  0  0  0  0
   21.5756   20.4873   21.0663 H   0  0  0  0  0  0  0  0  0  0  0  0
   21.3155   18.8550   20.4091 H   0  0  0  0  0  0  0  0  0  0  0  0
   21.2039   20.2654   19.3459 H   0  0  0  0  0  0  0  0  0  0  0  0
   19.4701   20.0260   20.6563 C   0  0  0  0  0  0  0  0  0  0  0  0
   18.8989   19.4070   19.9504 H   0  0  0  0  0  0  0  0  0  0  0  0
   19.1598   21.0646   20.4752 H   0  0  0  0  0  0  0  0  0  0  0  0
   19.1000   19.6429   22.1093 C   0  0  0  0  0  0  0  0  0  0  0  0
   19.6596   20.2877   22.7955 H   0  0  0  0  0  0  0  0  0  0  0  0
   18.0366   19.8696   22.2654 H   0  0  0  0  0  0  0  0  0  0  0  0
   19.3511   18.1464   22.4288 C   0  0  0  0  0  0  0  0  0  0  0  0
   20.4192   17.9060   22.3478 H   0  0  0  0  0  0  0  0  0  0  0  0
   18.8459   17.5466   21.6591 H   0  0  0  0  0  0  0  0  0  0  0  0
   18.8186   17.6955   23.8143 C   0  0  0  0  0  0  0  0  0  0  0  0
   17.8711   18.2001   24.0451 H   0  0  0  0  0  0  0  0  0  0  0  0
   18.5678   16.6279   23.7444 H   0  0  0  0  0  0  0  0  0  0  0  0
   19.8276   17.8520   24.9842 C   0  0  0  0  0  0  0  0  0  0  0  0
   20.7274   17.2663   24.7538 H   0  0  0  0  0  0  0  0  0  0  0  0
   19.3935   17.3975   25.8847 H   0  0  0  0  0  0  0  0  0  0  0  0
   20.2437   19.3026   25.3080 C   0  0  2  0  0  0  0  0  0  0  0  0
   20.7120   19.7333   24.4192 H   0  0  0  0  0  0  0  0  0  0  0  0
   21.2787   19.3210   26.4438 C   0  0  0  0  0  0  0  0  0  0  0  0
   20.8621   18.9017   27.3682 H   0  0  0  0  0  0  0  0  0  0  0  0
   22.1656   18.7350   26.1720 H   0  0  0  0  0  0  0  0  0  0  0  0
   21.6084   20.3464   26.6518 H   0  0  0  0  0  0  0  0  0  0  0  0
   19.0653   20.1713   25.6533 N   0  3  0  0  0  0  0  0  0  0  0  0
   19.3518   21.1375   25.8349 H   0  0  0  0  0  0  0  0  0  0  0  0
   18.5860   19.8306   26.4910 H   0  0  0  0  0  0  0  0  0  0  0  0
   18.3822   20.1872   24.8913 H   0  0  0  0  0  0  0  0  0  0  0  0
  1  2  1  0  0  0  0
  1  3  1  0  0  0  0
  1  4  1  0  0  0  0
  1  5  1  0  0  0  0
  5  6  1  0  0  0  0
  5  7  1  0  0  0  0
  5  8  1  0  0  0  0
  8  9  1  0  0  0  0
  8 10  1  0  0  0  0
  8 11  1  0  0  0  0
 11 12  1  0  0  0  0
 11 13  1  0  0  0  0
 11 14  1  0  0  0  0
 14 15  1  0  0  0  0
 14 16  1  0  0  0  0
 14 17  1  0  0  0  0
 17 18  1  0  0  0  0
 17 19  1  0  0  0  0
 17 20  1  0  0  0  0
 20 21  1  0  0  0  0
 20 22  1  0  0  0  0
 22 23  1  0  0  0  0
 22 24  1  0  0  0  0
 22 25  1  0  0  0  0
 20 26  1  0  0  0  0
 26 27  1  0  0  0  0
 26 28  1  0  0  0  0
 26 29  1  0  0  0  0
M  END
> <VM2 Rank>
126

> <Conf_Id>
302

> <Probability>
0.01

> <Sum Probability>
99.76

> <Delta G>
4.079

> <G>
37.781

> <E>
-0.158

> <-TS>
37.940

> <U+W>
-24.303

> <U>
28.166

> <W>
-52.469

> <W(PB)>
-54.892

> <W(SA)>
2.423

> <Valence>
6.294

> <Coulomb>
21.099

> <VdW>
0.773

> <VdW6>
-10.791

> <VdW12>
11.563

> <Bond>
0.315

> <Angle>
2.120

> <Pdih>
3.859

> <Idih>
0.000

> <Tether>
0.000

$$$$
VeraChem MOL file


 29 28  0  0  0  0  0  0  0  0999 V2000     
   18.4301   19.5505   20.2498 C   0  0  0  0  0  0  0  0  0  0  0  0
   18.5926   18.8312   19.4367 H   0  0  0  0  0  0  0  0  0  0  0  0
   17.9201   19.0271   21.0657 H   0  0  0  0  0  0  0  0  0  0  0  0
   17.7496   20.3266   19.8764 H   0  0  0  0  0  0  0  0  0  0  0  0
   19.7678   20.1787   20.7056 C   0  0  0  0  0  0  0  0  0  0  0  0
   19.5885   20.9457   21.4716 H   0  0  0  0  0  0  0  0  0  0  0  0
   20.2029   20.7069   19.8456 H   0  0  0  0  0  0  0  0  0  0  0  0
   20.7966   19.1368   21.2156 C   0  0  0  0  0  0  0  0  0  0  0  0
   20.6493   18.1751   20.7052 H   0  0  0  0  0  0  0  0  0  0  0  0
   21.7996   19.4763   20.9222 H   0  0  0  0  0  0  0  0  0  0  0  0
   20.8066   18.9302   22.7520 C   0  0  0  0  0  0  0  0  0  0  0  0
   21.0536   19.8827   23.2394 H   0  0  0  0  0  0  0  0  0  0  0  0
   21.6233   18.2381   22.9996 H   0  0  0  0  0  0  0  0  0  0  0  0
   19.4827   18.3706   23.3272 C   0  0  0  0  0  0  0  0  0  0  0  0
   18.6829   19.1128   23.2149 H   0  0  0  0  0  0  0  0  0  0  0  0
   19.1773   17.4928   22.7413 H   0  0  0  0  0  0  0  0  0  0  0  0
   19.5959   17.9548   24.8161 C   0  0  0  0  0  0  0  0  0  0  0  0
   20.3229   17.1361   24.8999 H   0  0  0  0  0  0  0  0  0  0  0  0
   18.6330   17.5446   25.1481 H   0  0  0  0  0  0  0  0  0  0  0  0
   20.0177   19.1013   25.7621 C   0  0  2  0  0  0  0  0  0  0  0  0
   20.9844   19.4876   25.4257 H   0  0  0  0  0  0  0  0  0  0  0  0
   20.1841   18.5771   27.1971 C   0  0  0  0  0  0  0  0  0  0  0  0
   20.9320   17.7753   27.2346 H   0  0  0  0  0  0  0  0  0  0  0  0
   20.5212   19.3782   27.8664 H   0  0  0  0  0  0  0  0  0  0  0  0
   19.2383   18.1808   27.5874 H   0  0  0  0  0  0  0  0  0  0  0  0
   19.0544   20.2559   25.7284 N   0  3  0  0  0  0  0  0  0  0  0  0
   19.3622   21.0186   26.3386 H   0  0  0  0  0  0  0  0  0  0  0  0
   18.1216   19.9716   26.0388 H   0  0  0  0  0  0  0  0  0  0  0  0
   18.9635   20.6353   24.7820 H   0  0  0  0  0  0  0  0  0  0  0  0
  1  2  1  0  0  0  0
  1  3  1  0  0  0  0
  1  4  1  0  0  0  0
  1  5  1  0  0  0  0
  5  6  1  0  0  0  0
  5  7  1  0  0  0  0
  5  8  1  0  0  0  0
  8  9  1  0  0  0  0
  8 10  1  0  0  0  0
  8 11  1  0  0  0  0
 11 12  1  0  0  0  0
 11 13  1  0  0  0  0
 11 14  1  0  0  0  0
 14 15  1  0  0  0  0
 14 16  1  0  0  0  0
 14 17  1  0  0  0  0
 17 18  1  0  0  0  0
 17 19  1  0  0  0  0
 17 20  1  0  0  0  0
 20 21  1  0  0  0  0
 20 22  1  0  0  0  0
 22 23  1  0  0  0  0
 22 24  1  0  0  0  0
 22 25  1  0  0  0  0
 20 26  1  0  0  0  0
 26 27  1  0  0  0  0
 26 28  1  0  0  0  0
 26 29  1  0  0  0  0
M  END
> <VM2 Rank>
127

> <Conf_Id>
996

> <Probability>
0.01

> <Sum Probability>
99.78

> <Delta G>
4.093

> <G>
37.795

> <E>
-0.125

> <-TS>
37.920

> <U+W>
-24.269

> <U>
28.133

> <W>
-52.402

> <W(PB)>
-54.856

> <W(SA)>
2.454

> <Valence>
6.427

> <Coulomb>
20.720

> <VdW>
0.986

> <VdW6>
-10.460

> <VdW12>
11.446

> <Bond>
0.299

> <Angle>
1.839

> <Pdih>
4.289

> <Idih>
0.000

> <Tether>
0.000

$$$$
VeraChem MOL file


 29 28  0  0  0  0  0  0  0  0999 V2000     
   20.2680   20.7624   20.6480 C   0  0  0  0  0  0  0  0  0  0  0  0
   20.5638   20.9669   21.6845 H   0  0  0  0  0  0  0  0  0  0  0  0
   21.0716   21.1299   19.9968 H   0  0  0  0  0  0  0  0  0  0  0  0
   19.3635   21.3436   20.4265 H   0  0  0  0  0  0  0  0  0  0  0  0
   20.0295   19.2535   20.4143 C   0  0  0  0  0  0  0  0  0  0  0  0
   20.9395   18.6918   20.6644 H   0  0  0  0  0  0  0  0  0  0  0  0
   19.8570   19.0848   19.3422 H   0  0  0  0  0  0  0  0  0  0  0  0
   18.8195   18.6910   21.2028 C   0  0  0  0  0  0  0  0  0  0  0  0
   17.9050   19.1914   20.8558 H   0  0  0  0  0  0  0  0  0  0  0  0
   18.6950   17.6291   20.9499 H   0  0  0  0  0  0  0  0  0  0  0  0
   18.9129   18.8351   22.7435 C   0  0  0  0  0  0  0  0  0  0  0  0
   18.0014   18.4101   23.1859 H   0  0  0  0  0  0  0  0  0  0  0  0
   18.9212   19.9003   23.0010 H   0  0  0  0  0  0  0  0  0  0  0  0
   20.1516   18.1286   23.3486 C   0  0  0  0  0  0  0  0  0  0  0  0
   20.2315   17.1241   22.9108 H   0  0  0  0  0  0  0  0  0  0  0  0
   21.0650   18.6637   23.0558 H   0  0  0  0  0  0  0  0  0  0  0  0
   20.1247   17.9767   24.8923 C   0  0  0  0  0  0  0  0  0  0  0  0
   20.9834   17.3506   25.1690 H   0  0  0  0  0  0  0  0  0  0  0  0
   19.2332   17.4161   25.2032 H   0  0  0  0  0  0  0  0  0  0  0  0
   20.2135   19.3074   25.6764 C   0  0  2  0  0  0  0  0  0  0  0  0
   20.9368   19.9567   25.1737 H   0  0  0  0  0  0  0  0  0  0  0  0
   20.7104   19.0518   27.1089 C   0  0  0  0  0  0  0  0  0  0  0  0
   21.7032   18.5848   27.1009 H   0  0  0  0  0  0  0  0  0  0  0  0
   20.7924   19.9934   27.6657 H   0  0  0  0  0  0  0  0  0  0  0  0
   20.0255   18.3903   27.6542 H   0  0  0  0  0  0  0  0  0  0  0  0
   18.9059   20.0494   25.7193 N   0  3  0  0  0  0  0  0  0  0  0  0
   18.5565   20.2449   24.7785 H   0  0  0  0  0  0  0  0  0  0  0  0
   19.0002   20.9448   26.2072 H   0  0  0  0  0  0  0  0  0  0  0  0
   18.1882   19.5082   26.2088 H   0  0  0  0  0  0  0  0  0  0  0  0
  1  2  1  0  0  0  0
  1  3  1  0  0  0  0
  1  4  1  0  0  0  0
  1  5  1  0  0  0  0
  5  6  1  0  0  0  0
  5  7  1  0  0  0  0
  5  8  1  0  0  0  0
  8  9  1  0  0  0  0
  8 10  1  0  0  0  0
  8 11  1  0  0  0  0
 11 12  1  0  0  0  0
 11 13  1  0  0  0  0
 11 14  1  0  0  0  0
 14 15  1  0  0  0  0
 14 16  1  0  0  0  0
 14 17  1  0  0  0  0
 17 18  1  0  0  0  0
 17 19  1  0  0  0  0
 17 20  1  0  0  0  0
 20 21  1  0  0  0  0
 20 22  1  0  0  0  0
 22 23  1  0  0  0  0
 22 24  1  0  0  0  0
 22 25  1  0  0  0  0
 20 26  1  0  0  0  0
 26 27  1  0  0  0  0
 26 28  1  0  0  0  0
 26 29  1  0  0  0  0
M  END
> <VM2 Rank>
128

> <Conf_Id>
329

> <Probability>
0.01

> <Sum Probability>
99.79

> <Delta G>
4.113

> <G>
37.815

> <E>
0.011

> <-TS>
37.805

> <U+W>
-24.134

> <U>
28.192

> <W>
-52.326

> <W(PB)>
-54.782

> <W(SA)>
2.456

> <Valence>
5.839

> <Coulomb>
21.296

> <VdW>
1.058

> <VdW6>
-10.712

> <VdW12>
11.770

> <Bond>
0.323

> <Angle>
2.126

> <Pdih>
3.390

> <Idih>
0.000

> <Tether>
0.000

$$$$
VeraChem MOL file


 29 28  0  0  0  0  0  0  0  0999 V2000     
   18.9242   18.4555   19.9340 C   0  0  0  0  0  0  0  0  0  0  0  0
   18.0201   18.8626   20.4025 H   0  0  0  0  0  0  0  0  0  0  0  0
   19.1673   19.0772   19.0626 H   0  0  0  0  0  0  0  0  0  0  0  0
   18.6826   17.4487   19.5695 H   0  0  0  0  0  0  0  0  0  0  0  0
   20.1093   18.4013   20.9253 C   0  0  0  0  0  0  0  0  0  0  0  0
   20.9553   17.9054   20.4294 H   0  0  0  0  0  0  0  0  0  0  0  0
   19.8426   17.7671   21.7795 H   0  0  0  0  0  0  0  0  0  0  0  0
   20.5697   19.8030   21.4022 C   0  0  0  0  0  0  0  0  0  0  0  0
   21.5518   19.7226   21.8877 H   0  0  0  0  0  0  0  0  0  0  0  0
   20.7326   20.4308   20.5153 H   0  0  0  0  0  0  0  0  0  0  0  0
   19.5784   20.5275   22.3534 C   0  0  0  0  0  0  0  0  0  0  0  0
   18.5459   20.2133   22.1564 H   0  0  0  0  0  0  0  0  0  0  0  0
   19.6076   21.6010   22.1210 H   0  0  0  0  0  0  0  0  0  0  0  0
   19.8956   20.3692   23.8628 C   0  0  0  0  0  0  0  0  0  0  0  0
   20.8897   20.7877   24.0725 H   0  0  0  0  0  0  0  0  0  0  0  0
   19.1798   20.9854   24.4223 H   0  0  0  0  0  0  0  0  0  0  0  0
   19.8348   18.9081   24.3741 C   0  0  0  0  0  0  0  0  0  0  0  0
   20.6095   18.3211   23.8657 H   0  0  0  0  0  0  0  0  0  0  0  0
   18.8679   18.4600   24.1098 H   0  0  0  0  0  0  0  0  0  0  0  0
   20.0634   18.7911   25.8968 C   0  0  2  0  0  0  0  0  0  0  0  0
   21.0108   19.2817   26.1404 H   0  0  0  0  0  0  0  0  0  0  0  0
   20.1648   17.3137   26.3089 C   0  0  0  0  0  0  0  0  0  0  0  0
   20.3614   17.2232   27.3843 H   0  0  0  0  0  0  0  0  0  0  0  0
   19.2361   16.7743   26.0844 H   0  0  0  0  0  0  0  0  0  0  0  0
   20.9859   16.8160   25.7779 H   0  0  0  0  0  0  0  0  0  0  0  0
   18.9958   19.4866   26.6966 N   0  3  0  0  0  0  0  0  0  0  0  0
   19.1739   19.4123   27.7022 H   0  0  0  0  0  0  0  0  0  0  0  0
   18.0729   19.0821   26.5177 H   0  0  0  0  0  0  0  0  0  0  0  0
   18.9459   20.4829   26.4674 H   0  0  0  0  0  0  0  0  0  0  0  0
  1  2  1  0  0  0  0
  1  3  1  0  0  0  0
  1  4  1  0  0  0  0
  1  5  1  0  0  0  0
  5  6  1  0  0  0  0
  5  7  1  0  0  0  0
  5  8  1  0  0  0  0
  8  9  1  0  0  0  0
  8 10  1  0  0  0  0
  8 11  1  0  0  0  0
 11 12  1  0  0  0  0
 11 13  1  0  0  0  0
 11 14  1  0  0  0  0
 14 15  1  0  0  0  0
 14 16  1  0  0  0  0
 14 17  1  0  0  0  0
 17 18  1  0  0  0  0
 17 19  1  0  0  0  0
 17 20  1  0  0  0  0
 20 21  1  0  0  0  0
 20 22  1  0  0  0  0
 22 23  1  0  0  0  0
 22 24  1  0  0  0  0
 22 25  1  0  0  0  0
 20 26  1  0  0  0  0
 26 27  1  0  0  0  0
 26 28  1  0  0  0  0
 26 29  1  0  0  0  0
M  END
> <VM2 Rank>
129

> <Conf_Id>
637

> <Probability>
0.01

> <Sum Probability>
99.80

> <Delta G>
4.148

> <G>
37.851

> <E>
0.035

> <-TS>
37.815

> <U+W>
-24.109

> <U>
28.258

> <W>
-52.367

> <W(PB)>
-54.799

> <W(SA)>
2.432

> <Valence>
6.945

> <Coulomb>
20.034

> <VdW>
1.280

> <VdW6>
-10.156

> <VdW12>
11.436

> <Bond>
0.326

> <Angle>
1.948

> <Pdih>
4.671

> <Idih>
0.000

> <Tether>
0.000

$$$$
VeraChem MOL file


 29 28  0  0  0  0  0  0  0  0999 V2000     
   18.5034   19.3366   20.0502 C   0  0  0  0  0  0  0  0  0  0  0  0
   18.2282   20.3776   19.8366 H   0  0  0  0  0  0  0  0  0  0  0  0
   18.1838   18.7259   19.1959 H   0  0  0  0  0  0  0  0  0  0  0  0
   17.9306   19.0097   20.9251 H   0  0  0  0  0  0  0  0  0  0  0  0
   20.0285   19.2037   20.2696 C   0  0  0  0  0  0  0  0  0  0  0  0
   20.5324   19.5310   19.3494 H   0  0  0  0  0  0  0  0  0  0  0  0
   20.3047   18.1489   20.4063 H   0  0  0  0  0  0  0  0  0  0  0  0
   20.5554   20.0570   21.4520 C   0  0  0  0  0  0  0  0  0  0  0  0
   21.5468   20.4438   21.1785 H   0  0  0  0  0  0  0  0  0  0  0  0
   19.9216   20.9433   21.5931 H   0  0  0  0  0  0  0  0  0  0  0  0
   20.7077   19.2919   22.7920 C   0  0  0  0  0  0  0  0  0  0  0  0
   21.1549   19.9801   23.5207 H   0  0  0  0  0  0  0  0  0  0  0  0
   21.4281   18.4724   22.6632 H   0  0  0  0  0  0  0  0  0  0  0  0
   19.3814   18.7252   23.3558 C   0  0  0  0  0  0  0  0  0  0  0  0
   18.6269   19.5211   23.4086 H   0  0  0  0  0  0  0  0  0  0  0  0
   18.9887   17.9718   22.6612 H   0  0  0  0  0  0  0  0  0  0  0  0
   19.5432   18.0508   24.7427 C   0  0  0  0  0  0  0  0  0  0  0  0
   20.2394   17.2071   24.6461 H   0  0  0  0  0  0  0  0  0  0  0  0
   18.5791   17.6192   25.0431 H   0  0  0  0  0  0  0  0  0  0  0  0
   20.0470   18.9944   25.8579 C   0  0  2  0  0  0  0  0  0  0  0  0
   21.0216   19.3921   25.5605 H   0  0  0  0  0  0  0  0  0  0  0  0
   20.2287   18.2191   27.1723 C   0  0  0  0  0  0  0  0  0  0  0  0
   20.6244   18.8744   27.9580 H   0  0  0  0  0  0  0  0  0  0  0  0
   19.2762   17.8022   27.5226 H   0  0  0  0  0  0  0  0  0  0  0  0
   20.9367   17.3912   27.0414 H   0  0  0  0  0  0  0  0  0  0  0  0
   19.1408   20.1773   26.0615 N   0  3  0  0  0  0  0  0  0  0  0  0
   18.2033   19.8834   26.3482 H   0  0  0  0  0  0  0  0  0  0  0  0
   19.0443   20.7225   25.2004 H   0  0  0  0  0  0  0  0  0  0  0  0
   19.5011   20.8054   26.7855 H   0  0  0  0  0  0  0  0  0  0  0  0
  1  2  1  0  0  0  0
  1  3  1  0  0  0  0
  1  4  1  0  0  0  0
  1  5  1  0  0  0  0
  5  6  1  0  0  0  0
  5  7  1  0  0  0  0
  5  8  1  0  0  0  0
  8  9  1  0  0  0  0
  8 10  1  0  0  0  0
  8 11  1  0  0  0  0
 11 12  1  0  0  0  0
 11 13  1  0  0  0  0
 11 14  1  0  0  0  0
 14 15  1  0  0  0  0
 14 16  1  0  0  0  0
 14 17  1  0  0  0  0
 17 18  1  0  0  0  0
 17 19  1  0  0  0  0
 17 20  1  0  0  0  0
 20 21  1  0  0  0  0
 20 22  1  0  0  0  0
 22 23  1  0  0  0  0
 22 24  1  0  0  0  0
 22 25  1  0  0  0  0
 20 26  1  0  0  0  0
 26 27  1  0  0  0  0
 26 28  1  0  0  0  0
 26 29  1  0  0  0  0
M  END
> <VM2 Rank>
130

> <Conf_Id>
1301

> <Probability>
0.01

> <Sum Probability>
99.81

> <Delta G>
4.169

> <G>
37.871

> <E>
-0.035

> <-TS>
37.906

> <U+W>
-24.179

> <U>
28.057

> <W>
-52.237

> <W(PB)>
-54.697

> <W(SA)>
2.460

> <Valence>
6.543

> <Coulomb>
20.387

> <VdW>
1.127

> <VdW6>
-10.342

> <VdW12>
11.469

> <Bond>
0.308

> <Angle>
1.938

> <Pdih>
4.297

> <Idih>
0.000

> <Tether>
0.000

$$$$
VeraChem MOL file


 29 28  0  0  0  0  0  0  0  0999 V2000     
   18.1252   19.2760   20.4432 C   0  0  0  0  0  0  0  0  0  0  0  0
   17.9696   18.1897   20.4153 H   0  0  0  0  0  0  0  0  0  0  0  0
   17.6908   19.6627   21.3731 H   0  0  0  0  0  0  0  0  0  0  0  0
   17.5637   19.7169   19.6094 H   0  0  0  0  0  0  0  0  0  0  0  0
   19.6263   19.6255   20.3281 C   0  0  0  0  0  0  0  0  0  0  0  0
   19.7586   20.7145   20.3942 H   0  0  0  0  0  0  0  0  0  0  0  0
   19.9819   19.3328   19.3302 H   0  0  0  0  0  0  0  0  0  0  0  0
   20.5056   18.9257   21.3924 C   0  0  0  0  0  0  0  0  0  0  0  0
   20.3851   17.8367   21.3093 H   0  0  0  0  0  0  0  0  0  0  0  0
   21.5597   19.1383   21.1668 H   0  0  0  0  0  0  0  0  0  0  0  0
   20.1963   19.3761   22.8400 C   0  0  0  0  0  0  0  0  0  0  0  0
   19.1630   19.1063   23.0838 H   0  0  0  0  0  0  0  0  0  0  0  0
   20.2789   20.4695   22.9076 H   0  0  0  0  0  0  0  0  0  0  0  0
   21.1550   18.7174   23.8602 C   0  0  0  0  0  0  0  0  0  0  0  0
   21.0034   17.6296   23.8602 H   0  0  0  0  0  0  0  0  0  0  0  0
   22.1888   18.8725   23.5219 H   0  0  0  0  0  0  0  0  0  0  0  0
   21.0438   19.2714   25.3087 C   0  0  0  0  0  0  0  0  0  0  0  0
   21.3228   20.3332   25.3129 H   0  0  0  0  0  0  0  0  0  0  0  0
   21.8067   18.7682   25.9173 H   0  0  0  0  0  0  0  0  0  0  0  0
   19.6843   19.1062   26.0348 C   0  0  2  0  0  0  0  0  0  0  0  0
   19.8595   19.3409   27.0893 H   0  0  0  0  0  0  0  0  0  0  0  0
   19.1531   17.6638   25.9688 C   0  0  0  0  0  0  0  0  0  0  0  0
   18.8652   17.3842   24.9484 H   0  0  0  0  0  0  0  0  0  0  0  0
   19.9127   16.9538   26.3190 H   0  0  0  0  0  0  0  0  0  0  0  0
   18.2703   17.5498   26.6097 H   0  0  0  0  0  0  0  0  0  0  0  0
   18.6464   20.0940   25.5778 N   0  3  0  0  0  0  0  0  0  0  0  0
   18.4176   19.9620   24.5905 H   0  0  0  0  0  0  0  0  0  0  0  0
   18.9714   21.0582   25.6936 H   0  0  0  0  0  0  0  0  0  0  0  0
   17.7785   19.9978   26.1130 H   0  0  0  0  0  0  0  0  0  0  0  0
  1  2  1  0  0  0  0
  1  3  1  0  0  0  0
  1  4  1  0  0  0  0
  1  5  1  0  0  0  0
  5  6  1  0  0  0  0
  5  7  1  0  0  0  0
  5  8  1  0  0  0  0
  8  9  1  0  0  0  0
  8 10  1  0  0  0  0
  8 11  1  0  0  0  0
 11 12  1  0  0  0  0
 11 13  1  0  0  0  0
 11 14  1  0  0  0  0
 14 15  1  0  0  0  0
 14 16  1  0  0  0  0
 14 17  1  0  0  0  0
 17 18  1  0  0  0  0
 17 19  1  0  0  0  0
 17 20  1  0  0  0  0
 20 21  1  0  0  0  0
 20 22  1  0  0  0  0
 22 23  1  0  0  0  0
 22 24  1  0  0  0  0
 22 25  1  0  0  0  0
 20 26  1  0  0  0  0
 26 27  1  0  0  0  0
 26 28  1  0  0  0  0
 26 29  1  0  0  0  0
M  END
> <VM2 Rank>
131

> <Conf_Id>
1523

> <Probability>
0.01

> <Sum Probability>
99.81

> <Delta G>
4.207

> <G>
37.910

> <E>
-0.174

> <-TS>
38.083

> <U+W>
-24.318

> <U>
28.045

> <W>
-52.364

> <W(PB)>
-54.808

> <W(SA)>
2.445

> <Valence>
5.555

> <Coulomb>
21.509

> <VdW>
0.981

> <VdW6>
-10.796

> <VdW12>
11.777

> <Bond>
0.331

> <Angle>
2.400

> <Pdih>
2.824

> <Idih>
0.000

> <Tether>
0.000

$$$$
VeraChem MOL file


 29 28  0  0  0  0  0  0  0  0999 V2000     
   20.2255   21.0449   20.9130 C   0  0  0  0  0  0  0  0  0  0  0  0
   21.0199   21.3576   21.6031 H   0  0  0  0  0  0  0  0  0  0  0  0
   20.6927   20.7531   19.9633 H   0  0  0  0  0  0  0  0  0  0  0  0
   19.5848   21.9150   20.7199 H   0  0  0  0  0  0  0  0  0  0  0  0
   19.4018   19.8828   21.5061 C   0  0  0  0  0  0  0  0  0  0  0  0
   18.5957   19.6137   20.8094 H   0  0  0  0  0  0  0  0  0  0  0  0
   18.9187   20.2243   22.4294 H   0  0  0  0  0  0  0  0  0  0  0  0
   20.2841   18.6428   21.7824 C   0  0  0  0  0  0  0  0  0  0  0  0
   20.7580   18.3332   20.8406 H   0  0  0  0  0  0  0  0  0  0  0  0
   21.1104   18.9025   22.4558 H   0  0  0  0  0  0  0  0  0  0  0  0
   19.4963   17.4347   22.3478 C   0  0  0  0  0  0  0  0  0  0  0  0
   20.1820   16.5808   22.4357 H   0  0  0  0  0  0  0  0  0  0  0  0
   18.7401   17.1322   21.6104 H   0  0  0  0  0  0  0  0  0  0  0  0
   18.7937   17.6522   23.7156 C   0  0  0  0  0  0  0  0  0  0  0  0
   18.0069   18.4114   23.6283 H   0  0  0  0  0  0  0  0  0  0  0  0
   18.2665   16.7198   23.9602 H   0  0  0  0  0  0  0  0  0  0  0  0
   19.7535   17.9748   24.8932 C   0  0  0  0  0  0  0  0  0  0  0  0
   20.6796   17.3980   24.7689 H   0  0  0  0  0  0  0  0  0  0  0  0
   19.3009   17.6170   25.8276 H   0  0  0  0  0  0  0  0  0  0  0  0
   20.0874   19.4750   25.0590 C   0  0  2  0  0  0  0  0  0  0  0  0
   20.4363   19.8682   24.1014 H   0  0  0  0  0  0  0  0  0  0  0  0
   21.2116   19.6610   26.0901 C   0  0  0  0  0  0  0  0  0  0  0  0
   21.4722   20.7216   26.1934 H   0  0  0  0  0  0  0  0  0  0  0  0
   20.9123   19.2845   27.0763 H   0  0  0  0  0  0  0  0  0  0  0  0
   22.1172   19.1250   25.7799 H   0  0  0  0  0  0  0  0  0  0  0  0
   18.8821   20.2878   25.4468 N   0  3  0  0  0  0  0  0  0  0  0  0
   18.5088   19.9892   26.3519 H   0  0  0  0  0  0  0  0  0  0  0  0
   18.1303   20.1962   24.7589 H   0  0  0  0  0  0  0  0  0  0  0  0
   19.1110   21.2830   25.5239 H   0  0  0  0  0  0  0  0  0  0  0  0
  1  2  1  0  0  0  0
  1  3  1  0  0  0  0
  1  4  1  0  0  0  0
  1  5  1  0  0  0  0
  5  6  1  0  0  0  0
  5  7  1  0  0  0  0
  5  8  1  0  0  0  0
  8  9  1  0  0  0  0
  8 10  1  0  0  0  0
  8 11  1  0  0  0  0
 11 12  1  0  0  0  0
 11 13  1  0  0  0  0
 11 14  1  0  0  0  0
 14 15  1  0  0  0  0
 14 16  1  0  0  0  0
 14 17  1  0  0  0  0
 17 18  1  0  0  0  0
 17 19  1  0  0  0  0
 17 20  1  0  0  0  0
 20 21  1  0  0  0  0
 20 22  1  0  0  0  0
 22 23  1  0  0  0  0
 22 24  1  0  0  0  0
 22 25  1  0  0  0  0
 20 26  1  0  0  0  0
 26 27  1  0  0  0  0
 26 28  1  0  0  0  0
 26 29  1  0  0  0  0
M  END
> <VM2 Rank>
132

> <Conf_Id>
1053

> <Probability>
0.01

> <Sum Probability>
99.82

> <Delta G>
4.227

> <G>
37.929

> <E>
-0.489

> <-TS>
38.419

> <U+W>
-24.634

> <U>
28.071

> <W>
-52.705

> <W(PB)>
-55.097

> <W(SA)>
2.392

> <Valence>
6.291

> <Coulomb>
21.484

> <VdW>
0.295

> <VdW6>
-11.563

> <VdW12>
11.858

> <Bond>
0.313

> <Angle>
2.279

> <Pdih>
3.700

> <Idih>
0.000

> <Tether>
0.000

$$$$
VeraChem MOL file


 29 28  0  0  0  0  0  0  0  0999 V2000     
   19.3774   20.7004   20.0015 C   0  0  0  0  0  0  0  0  0  0  0  0
   19.8014   20.2666   19.0865 H   0  0  0  0  0  0  0  0  0  0  0  0
   18.2831   20.6566   19.9256 H   0  0  0  0  0  0  0  0  0  0  0  0
   19.6707   21.7575   20.0402 H   0  0  0  0  0  0  0  0  0  0  0  0
   19.8764   19.9503   21.2546 C   0  0  0  0  0  0  0  0  0  0  0  0
   19.4609   20.4368   22.1466 H   0  0  0  0  0  0  0  0  0  0  0  0
   20.9702   20.0341   21.3178 H   0  0  0  0  0  0  0  0  0  0  0  0
   19.4663   18.4603   21.2281 C   0  0  0  0  0  0  0  0  0  0  0  0
   18.3703   18.3835   21.2425 H   0  0  0  0  0  0  0  0  0  0  0  0
   19.7904   18.0184   20.2758 H   0  0  0  0  0  0  0  0  0  0  0  0
   20.0569   17.6118   22.3837 C   0  0  0  0  0  0  0  0  0  0  0  0
   21.1535   17.5939   22.3173 H   0  0  0  0  0  0  0  0  0  0  0  0
   19.7348   16.5728   22.2280 H   0  0  0  0  0  0  0  0  0  0  0  0
   19.6090   18.0493   23.8026 C   0  0  0  0  0  0  0  0  0  0  0  0
   18.6211   18.5248   23.7489 H   0  0  0  0  0  0  0  0  0  0  0  0
   19.4793   17.1446   24.4112 H   0  0  0  0  0  0  0  0  0  0  0  0
   20.6362   18.9773   24.5084 C   0  0  0  0  0  0  0  0  0  0  0  0
   20.8765   19.8320   23.8665 H   0  0  0  0  0  0  0  0  0  0  0  0
   21.5801   18.4319   24.6397 H   0  0  0  0  0  0  0  0  0  0  0  0
   20.1832   19.5187   25.8848 C   0  0  2  0  0  0  0  0  0  0  0  0
   20.9871   20.1575   26.2636 H   0  0  0  0  0  0  0  0  0  0  0  0
   19.9638   18.3909   26.9081 C   0  0  0  0  0  0  0  0  0  0  0  0
   19.1047   17.7636   26.6421 H   0  0  0  0  0  0  0  0  0  0  0  0
   20.8508   17.7491   26.9771 H   0  0  0  0  0  0  0  0  0  0  0  0
   19.7773   18.8088   27.9050 H   0  0  0  0  0  0  0  0  0  0  0  0
   18.9667   20.3970   25.7823 N   0  3  0  0  0  0  0  0  0  0  0  0
   18.1580   19.8720   25.4407 H   0  0  0  0  0  0  0  0  0  0  0  0
   19.1215   21.1798   25.1406 H   0  0  0  0  0  0  0  0  0  0  0  0
   18.7142   20.7926   26.6925 H   0  0  0  0  0  0  0  0  0  0  0  0
  1  2  1  0  0  0  0
  1  3  1  0  0  0  0
  1  4  1  0  0  0  0
  1  5  1  0  0  0  0
  5  6  1  0  0  0  0
  5  7  1  0  0  0  0
  5  8  1  0  0  0  0
  8  9  1  0  0  0  0
  8 10  1  0  0  0  0
  8 11  1  0  0  0  0
 11 12  1  0  0  0  0
 11 13  1  0  0  0  0
 11 14  1  0  0  0  0
 14 15  1  0  0  0  0
 14 16  1  0  0  0  0
 14 17  1  0  0  0  0
 17 18  1  0  0  0  0
 17 19  1  0  0  0  0
 17 20  1  0  0  0  0
 20 21  1  0  0  0  0
 20 22  1  0  0  0  0
 22 23  1  0  0  0  0
 22 24  1  0  0  0  0
 22 25  1  0  0  0  0
 20 26  1  0  0  0  0
 26 27  1  0  0  0  0
 26 28  1  0  0  0  0
 26 29  1  0  0  0  0
M  END
> <VM2 Rank>
133

> <Conf_Id>
1532

> <Probability>
0.01

> <Sum Probability>
99.83

> <Delta G>
4.241

> <G>
37.943

> <E>
-0.002

> <-TS>
37.945

> <U+W>
-24.147

> <U>
28.637

> <W>
-52.784

> <W(PB)>
-55.214

> <W(SA)>
2.430

> <Valence>
6.737

> <Coulomb>
20.768

> <VdW>
1.133

> <VdW6>
-10.383

> <VdW12>
11.516

> <Bond>
0.321

> <Angle>
1.946

> <Pdih>
4.470

> <Idih>
0.000

> <Tether>
0.000

$$$$
VeraChem MOL file


 29 28  0  0  0  0  0  0  0  0999 V2000     
   18.6689   19.2218   20.1140 C   0  0  0  0  0  0  0  0  0  0  0  0
   18.5642   18.1295   20.1391 H   0  0  0  0  0  0  0  0  0  0  0  0
   18.0970   19.6477   20.9476 H   0  0  0  0  0  0  0  0  0  0  0  0
   18.2105   19.5819   19.1839 H   0  0  0  0  0  0  0  0  0  0  0  0
   20.1537   19.6406   20.1810 C   0  0  0  0  0  0  0  0  0  0  0  0
   20.2219   20.7370   20.2100 H   0  0  0  0  0  0  0  0  0  0  0  0
   20.6498   19.3295   19.2510 H   0  0  0  0  0  0  0  0  0  0  0  0
   20.9328   19.0401   21.3789 C   0  0  0  0  0  0  0  0  0  0  0  0
   20.9559   17.9443   21.3037 H   0  0  0  0  0  0  0  0  0  0  0  0
   21.9786   19.3650   21.2887 H   0  0  0  0  0  0  0  0  0  0  0  0
   20.4105   19.4737   22.7732 C   0  0  0  0  0  0  0  0  0  0  0  0
   19.9395   20.4641   22.7068 H   0  0  0  0  0  0  0  0  0  0  0  0
   21.2753   19.5912   23.4397 H   0  0  0  0  0  0  0  0  0  0  0  0
   19.4330   18.4510   23.4071 C   0  0  0  0  0  0  0  0  0  0  0  0
   18.6114   18.2380   22.7130 H   0  0  0  0  0  0  0  0  0  0  0  0
   19.9478   17.4931   23.5580 H   0  0  0  0  0  0  0  0  0  0  0  0
   18.8224   18.9414   24.7452 C   0  0  0  0  0  0  0  0  0  0  0  0
   18.1356   18.1744   25.1271 H   0  0  0  0  0  0  0  0  0  0  0  0
   18.2060   19.8265   24.5397 H   0  0  0  0  0  0  0  0  0  0  0  0
   19.8508   19.2982   25.8443 C   0  0  2  0  0  0  0  0  0  0  0  0
   20.5268   20.0626   25.4500 H   0  0  0  0  0  0  0  0  0  0  0  0
   20.6885   18.0794   26.2702 C   0  0  0  0  0  0  0  0  0  0  0  0
   21.2967   17.7047   25.4387 H   0  0  0  0  0  0  0  0  0  0  0  0
   21.3768   18.3476   27.0811 H   0  0  0  0  0  0  0  0  0  0  0  0
   20.0479   17.2618   26.6236 H   0  0  0  0  0  0  0  0  0  0  0  0
   19.1754   19.9098   27.0401 N   0  3  0  0  0  0  0  0  0  0  0  0
   18.5220   19.2537   27.4765 H   0  0  0  0  0  0  0  0  0  0  0  0
   18.6457   20.7486   26.7861 H   0  0  0  0  0  0  0  0  0  0  0  0
   19.8559   20.1838   27.7546 H   0  0  0  0  0  0  0  0  0  0  0  0
  1  2  1  0  0  0  0
  1  3  1  0  0  0  0
  1  4  1  0  0  0  0
  1  5  1  0  0  0  0
  5  6  1  0  0  0  0
  5  7  1  0  0  0  0
  5  8  1  0  0  0  0
  8  9  1  0  0  0  0
  8 10  1  0  0  0  0
  8 11  1  0  0  0  0
 11 12  1  0  0  0  0
 11 13  1  0  0  0  0
 11 14  1  0  0  0  0
 14 15  1  0  0  0  0
 14 16  1  0  0  0  0
 14 17  1  0  0  0  0
 17 18  1  0  0  0  0
 17 19  1  0  0  0  0
 17 20  1  0  0  0  0
 20 21  1  0  0  0  0
 20 22  1  0  0  0  0
 22 23  1  0  0  0  0
 22 24  1  0  0  0  0
 22 25  1  0  0  0  0
 20 26  1  0  0  0  0
 26 27  1  0  0  0  0
 26 28  1  0  0  0  0
 26 29  1  0  0  0  0
M  END
> <VM2 Rank>
134

> <Conf_Id>
668

> <Probability>
0.01

> <Sum Probability>
99.84

> <Delta G>
4.255

> <G>
37.957

> <E>
-0.104

> <-TS>
38.061

> <U+W>
-24.249

> <U>
28.141

> <W>
-52.390

> <W(PB)>
-54.810

> <W(SA)>
2.420

> <Valence>
6.969

> <Coulomb>
20.046

> <VdW>
1.125

> <VdW6>
-10.615

> <VdW12>
11.740

> <Bond>
0.316

> <Angle>
2.134

> <Pdih>
4.519

> <Idih>
0.000

> <Tether>
0.000

$$$$
VeraChem MOL file


 29 28  0  0  0  0  0  0  0  0999 V2000     
   18.6509   20.3783   20.8254 C   0  0  0  0  0  0  0  0  0  0  0  0
   17.9133   20.1231   21.5972 H   0  0  0  0  0  0  0  0  0  0  0  0
   19.3758   21.0825   21.2516 H   0  0  0  0  0  0  0  0  0  0  0  0
   18.1241   20.9010   20.0166 H   0  0  0  0  0  0  0  0  0  0  0  0
   19.3511   19.1134   20.2834 C   0  0  0  0  0  0  0  0  0  0  0  0
   20.1346   19.4069   19.5709 H   0  0  0  0  0  0  0  0  0  0  0  0
   18.6212   18.5270   19.7080 H   0  0  0  0  0  0  0  0  0  0  0  0
   19.9585   18.2007   21.3791 C   0  0  0  0  0  0  0  0  0  0  0  0
   19.1614   17.8212   22.0298 H   0  0  0  0  0  0  0  0  0  0  0  0
   20.3723   17.3158   20.8763 H   0  0  0  0  0  0  0  0  0  0  0  0
   21.0959   18.8537   22.2115 C   0  0  0  0  0  0  0  0  0  0  0  0
   21.6257   19.5884   21.5898 H   0  0  0  0  0  0  0  0  0  0  0  0
   21.8419   18.0847   22.4550 H   0  0  0  0  0  0  0  0  0  0  0  0
   20.6420   19.5266   23.5335 C   0  0  0  0  0  0  0  0  0  0  0  0
   21.4876   20.1027   23.9340 H   0  0  0  0  0  0  0  0  0  0  0  0
   19.8453   20.2512   23.3337 H   0  0  0  0  0  0  0  0  0  0  0  0
   20.1803   18.5117   24.6112 C   0  0  0  0  0  0  0  0  0  0  0  0
   20.9645   17.7548   24.7453 H   0  0  0  0  0  0  0  0  0  0  0  0
   19.2834   17.9773   24.2750 H   0  0  0  0  0  0  0  0  0  0  0  0
   19.8940   19.1767   25.9747 C   0  0  2  0  0  0  0  0  0  0  0  0
   20.7913   19.7200   26.2868 H   0  0  0  0  0  0  0  0  0  0  0  0
   19.5826   18.1092   27.0357 C   0  0  0  0  0  0  0  0  0  0  0  0
   20.4193   17.4072   27.1396 H   0  0  0  0  0  0  0  0  0  0  0  0
   19.4141   18.5731   28.0155 H   0  0  0  0  0  0  0  0  0  0  0  0
   18.6859   17.5352   26.7703 H   0  0  0  0  0  0  0  0  0  0  0  0
   18.7807   20.1857   25.8995 N   0  3  0  0  0  0  0  0  0  0  0  0
   18.9940   20.9274   25.2271 H   0  0  0  0  0  0  0  0  0  0  0  0
   18.6184   20.6316   26.8069 H   0  0  0  0  0  0  0  0  0  0  0  0
   17.9013   19.7493   25.6101 H   0  0  0  0  0  0  0  0  0  0  0  0
  1  2  1  0  0  0  0
  1  3  1  0  0  0  0
  1  4  1  0  0  0  0
  1  5  1  0  0  0  0
  5  6  1  0  0  0  0
  5  7  1  0  0  0  0
  5  8  1  0  0  0  0
  8  9  1  0  0  0  0
  8 10  1  0  0  0  0
  8 11  1  0  0  0  0
 11 12  1  0  0  0  0
 11 13  1  0  0  0  0
 11 14  1  0  0  0  0
 14 15  1  0  0  0  0
 14 16  1  0  0  0  0
 14 17  1  0  0  0  0
 17 18  1  0  0  0  0
 17 19  1  0  0  0  0
 17 20  1  0  0  0  0
 20 21  1  0  0  0  0
 20 22  1  0  0  0  0
 22 23  1  0  0  0  0
 22 24  1  0  0  0  0
 22 25  1  0  0  0  0
 20 26  1  0  0  0  0
 26 27  1  0  0  0  0
 26 28  1  0  0  0  0
 26 29  1  0  0  0  0
M  END
> <VM2 Rank>
135

> <Conf_Id>
1360

> <Probability>
0.01

> <Sum Probability>
99.85

> <Delta G>
4.273

> <G>
37.975

> <E>
0.245

> <-TS>
37.730

> <U+W>
-23.900

> <U>
28.595

> <W>
-52.494

> <W(PB)>
-54.943

> <W(SA)>
2.449

> <Valence>
6.843

> <Coulomb>
20.557

> <VdW>
1.194

> <VdW6>
-10.198

> <VdW12>
11.392

> <Bond>
0.333

> <Angle>
1.972

> <Pdih>
4.539

> <Idih>
0.000

> <Tether>
0.000

$$$$
VeraChem MOL file


 29 28  0  0  0  0  0  0  0  0999 V2000     
   20.5987   20.6312   20.3095 C   0  0  0  0  0  0  0  0  0  0  0  0
   19.7432   20.9472   19.6983 H   0  0  0  0  0  0  0  0  0  0  0  0
   20.8068   21.4222   21.0417 H   0  0  0  0  0  0  0  0  0  0  0  0
   21.4711   20.5455   19.6487 H   0  0  0  0  0  0  0  0  0  0  0  0
   20.3131   19.2870   21.0118 C   0  0  0  0  0  0  0  0  0  0  0  0
   21.2046   18.9857   21.5761 H   0  0  0  0  0  0  0  0  0  0  0  0
   20.1406   18.5102   20.2540 H   0  0  0  0  0  0  0  0  0  0  0  0
   19.0847   19.3845   21.9477 C   0  0  0  0  0  0  0  0  0  0  0  0
   19.2555   20.1595   22.7023 H   0  0  0  0  0  0  0  0  0  0  0  0
   18.2244   19.7280   21.3570 H   0  0  0  0  0  0  0  0  0  0  0  0
   18.7032   18.0364   22.6142 C   0  0  0  0  0  0  0  0  0  0  0  0
   18.5664   17.2925   21.8172 H   0  0  0  0  0  0  0  0  0  0  0  0
   17.7198   18.1335   23.0943 H   0  0  0  0  0  0  0  0  0  0  0  0
   19.7221   17.4726   23.6431 C   0  0  0  0  0  0  0  0  0  0  0  0
   19.6050   16.3802   23.6574 H   0  0  0  0  0  0  0  0  0  0  0  0
   20.7546   17.6408   23.3162 H   0  0  0  0  0  0  0  0  0  0  0  0
   19.5183   17.9676   25.1011 C   0  0  0  0  0  0  0  0  0  0  0  0
   20.2040   17.4159   25.7578 H   0  0  0  0  0  0  0  0  0  0  0  0
   18.5063   17.6878   25.4221 H   0  0  0  0  0  0  0  0  0  0  0  0
   19.7116   19.4820   25.3402 C   0  0  2  0  0  0  0  0  0  0  0  0
   19.0259   20.0260   24.6860 H   0  0  0  0  0  0  0  0  0  0  0  0
   21.1520   19.9349   25.0413 C   0  0  0  0  0  0  0  0  0  0  0  0
   21.8750   19.3890   25.6601 H   0  0  0  0  0  0  0  0  0  0  0  0
   21.4124   19.7731   23.9895 H   0  0  0  0  0  0  0  0  0  0  0  0
   21.2703   21.0062   25.2448 H   0  0  0  0  0  0  0  0  0  0  0  0
   19.3322   19.8598   26.7451 N   0  3  0  0  0  0  0  0  0  0  0  0
   19.9297   19.3921   27.4321 H   0  0  0  0  0  0  0  0  0  0  0  0
   18.3630   19.6045   26.9557 H   0  0  0  0  0  0  0  0  0  0  0  0
   19.4221   20.8682   26.8986 H   0  0  0  0  0  0  0  0  0  0  0  0
  1  2  1  0  0  0  0
  1  3  1  0  0  0  0
  1  4  1  0  0  0  0
  1  5  1  0  0  0  0
  5  6  1  0  0  0  0
  5  7  1  0  0  0  0
  5  8  1  0  0  0  0
  8  9  1  0  0  0  0
  8 10  1  0  0  0  0
  8 11  1  0  0  0  0
 11 12  1  0  0  0  0
 11 13  1  0  0  0  0
 11 14  1  0  0  0  0
 14 15  1  0  0  0  0
 14 16  1  0  0  0  0
 14 17  1  0  0  0  0
 17 18  1  0  0  0  0
 17 19  1  0  0  0  0
 17 20  1  0  0  0  0
 20 21  1  0  0  0  0
 20 22  1  0  0  0  0
 22 23  1  0  0  0  0
 22 24  1  0  0  0  0
 22 25  1  0  0  0  0
 20 26  1  0  0  0  0
 26 27  1  0  0  0  0
 26 28  1  0  0  0  0
 26 29  1  0  0  0  0
M  END
> <VM2 Rank>
136

> <Conf_Id>
1040

> <Probability>
0.01

> <Sum Probability>
99.85

> <Delta G>
4.326

> <G>
38.029

> <E>
-0.424

> <-TS>
38.453

> <U+W>
-24.569

> <U>
28.202

> <W>
-52.771

> <W(PB)>
-55.154

> <W(SA)>
2.383

> <Valence>
7.096

> <Coulomb>
20.449

> <VdW>
0.656

> <VdW6>
-11.271

> <VdW12>
11.927

> <Bond>
0.347

> <Angle>
2.799

> <Pdih>
3.951

> <Idih>
0.000

> <Tether>
0.000

$$$$
VeraChem MOL file


 29 28  0  0  0  0  0  0  0  0999 V2000     
   18.4796   18.3187   20.8156 C   0  0  0  0  0  0  0  0  0  0  0  0
   18.3440   17.9717   21.8472 H   0  0  0  0  0  0  0  0  0  0  0  0
   17.6881   19.0448   20.5892 H   0  0  0  0  0  0  0  0  0  0  0  0
   18.3408   17.4531   20.1551 H   0  0  0  0  0  0  0  0  0  0  0  0
   19.8791   18.9399   20.6062 C   0  0  0  0  0  0  0  0  0  0  0  0
   20.0121   19.1588   19.5376 H   0  0  0  0  0  0  0  0  0  0  0  0
   20.6532   18.2035   20.8605 H   0  0  0  0  0  0  0  0  0  0  0  0
   20.0997   20.2478   21.4082 C   0  0  0  0  0  0  0  0  0  0  0  0
   21.0967   20.6441   21.1714 H   0  0  0  0  0  0  0  0  0  0  0  0
   19.3848   21.0047   21.0574 H   0  0  0  0  0  0  0  0  0  0  0  0
   19.9644   20.1091   22.9462 C   0  0  0  0  0  0  0  0  0  0  0  0
   18.9357   19.8209   23.1902 H   0  0  0  0  0  0  0  0  0  0  0  0
   20.1299   21.0970   23.3976 H   0  0  0  0  0  0  0  0  0  0  0  0
   20.9631   19.0962   23.5593 C   0  0  0  0  0  0  0  0  0  0  0  0
   20.7133   18.0785   23.2329 H   0  0  0  0  0  0  0  0  0  0  0  0
   21.9632   19.3024   23.1541 H   0  0  0  0  0  0  0  0  0  0  0  0
   21.0602   19.1404   25.1103 C   0  0  0  0  0  0  0  0  0  0  0  0
   21.4263   20.1270   25.4231 H   0  0  0  0  0  0  0  0  0  0  0  0
   21.8403   18.4307   25.4159 H   0  0  0  0  0  0  0  0  0  0  0  0
   19.7794   18.8007   25.9145 C   0  0  2  0  0  0  0  0  0  0  0  0
   20.0864   18.6719   26.9570 H   0  0  0  0  0  0  0  0  0  0  0  0
   19.1324   17.4807   25.4607 C   0  0  0  0  0  0  0  0  0  0  0  0
   18.7117   17.5619   24.4515 H   0  0  0  0  0  0  0  0  0  0  0  0
   19.8678   16.6666   25.4630 H   0  0  0  0  0  0  0  0  0  0  0  0
   18.3199   17.1974   26.1410 H   0  0  0  0  0  0  0  0  0  0  0  0
   18.7780   19.9225   25.9329 N   0  3  0  0  0  0  0  0  0  0  0  0
   19.1884   20.7839   26.3049 H   0  0  0  0  0  0  0  0  0  0  0  0
   17.9697   19.6917   26.5178 H   0  0  0  0  0  0  0  0  0  0  0  0
   18.4321   20.1262   24.9930 H   0  0  0  0  0  0  0  0  0  0  0  0
  1  2  1  0  0  0  0
  1  3  1  0  0  0  0
  1  4  1  0  0  0  0
  1  5  1  0  0  0  0
  5  6  1  0  0  0  0
  5  7  1  0  0  0  0
  5  8  1  0  0  0  0
  8  9  1  0  0  0  0
  8 10  1  0  0  0  0
  8 11  1  0  0  0  0
 11 12  1  0  0  0  0
 11 13  1  0  0  0  0
 11 14  1  0  0  0  0
 14 15  1  0  0  0  0
 14 16  1  0  0  0  0
 14 17  1  0  0  0  0
 17 18  1  0  0  0  0
 17 19  1  0  0  0  0
 17 20  1  0  0  0  0
 20 21  1  0  0  0  0
 20 22  1  0  0  0  0
 22 23  1  0  0  0  0
 22 24  1  0  0  0  0
 22 25  1  0  0  0  0
 20 26  1  0  0  0  0
 26 27  1  0  0  0  0
 26 28  1  0  0  0  0
 26 29  1  0  0  0  0
M  END
> <VM2 Rank>
137

> <Conf_Id>
1592

> <Probability>
0.01

> <Sum Probability>
99.86

> <Delta G>
4.333

> <G>
38.035

> <E>
-0.462

> <-TS>
38.497

> <U+W>
-24.606

> <U>
28.222

> <W>
-52.828

> <W(PB)>
-55.186

> <W(SA)>
2.358

> <Valence>
5.955

> <Coulomb>
21.478

> <VdW>
0.789

> <VdW6>
-11.977

> <VdW12>
12.766

> <Bond>
0.372

> <Angle>
2.690

> <Pdih>
2.893

> <Idih>
0.000

> <Tether>
0.000

$$$$
VeraChem MOL file


 29 28  0  0  0  0  0  0  0  0999 V2000     
   20.3064   19.7521   19.6628 C   0  0  0  0  0  0  0  0  0  0  0  0
   21.3171   20.0941   19.9207 H   0  0  0  0  0  0  0  0  0  0  0  0
   20.3391   18.6665   19.5097 H   0  0  0  0  0  0  0  0  0  0  0  0
   20.0317   20.2109   18.7041 H   0  0  0  0  0  0  0  0  0  0  0  0
   19.2901   20.1442   20.7595 C   0  0  0  0  0  0  0  0  0  0  0  0
   18.2938   19.7623   20.4965 H   0  0  0  0  0  0  0  0  0  0  0  0
   19.2032   21.2396   20.7811 H   0  0  0  0  0  0  0  0  0  0  0  0
   19.6848   19.6523   22.1731 C   0  0  0  0  0  0  0  0  0  0  0  0
   20.6919   20.0150   22.4205 H   0  0  0  0  0  0  0  0  0  0  0  0
   18.9945   20.1141   22.8899 H   0  0  0  0  0  0  0  0  0  0  0  0
   19.6232   18.1127   22.3308 C   0  0  0  0  0  0  0  0  0  0  0  0
   20.2200   17.6392   21.5411 H   0  0  0  0  0  0  0  0  0  0  0  0
   18.5899   17.7727   22.1770 H   0  0  0  0  0  0  0  0  0  0  0  0
   20.1439   17.5834   23.6924 C   0  0  0  0  0  0  0  0  0  0  0  0
   20.0826   16.4868   23.6620 H   0  0  0  0  0  0  0  0  0  0  0  0
   21.2117   17.8116   23.7959 H   0  0  0  0  0  0  0  0  0  0  0  0
   19.3463   18.0702   24.9334 C   0  0  0  0  0  0  0  0  0  0  0  0
   19.4236   17.3120   25.7241 H   0  0  0  0  0  0  0  0  0  0  0  0
   18.2814   18.1174   24.6706 H   0  0  0  0  0  0  0  0  0  0  0  0
   19.7986   19.4308   25.5172 C   0  0  2  0  0  0  0  0  0  0  0  0
   19.8779   20.1571   24.7053 H   0  0  0  0  0  0  0  0  0  0  0  0
   21.1687   19.3331   26.2125 C   0  0  0  0  0  0  0  0  0  0  0  0
   21.1514   18.5918   27.0211 H   0  0  0  0  0  0  0  0  0  0  0  0
   21.9588   19.0514   25.5077 H   0  0  0  0  0  0  0  0  0  0  0  0
   21.4507   20.3006   26.6459 H   0  0  0  0  0  0  0  0  0  0  0  0
   18.7740   19.9772   26.4723 N   0  3  0  0  0  0  0  0  0  0  0  0
   17.8619   20.0938   26.0214 H   0  0  0  0  0  0  0  0  0  0  0  0
   19.0531   20.8923   26.8374 H   0  0  0  0  0  0  0  0  0  0  0  0
   18.6429   19.3555   27.2749 H   0  0  0  0  0  0  0  0  0  0  0  0
  1  2  1  0  0  0  0
  1  3  1  0  0  0  0
  1  4  1  0  0  0  0
  1  5  1  0  0  0  0
  5  6  1  0  0  0  0
  5  7  1  0  0  0  0
  5  8  1  0  0  0  0
  8  9  1  0  0  0  0
  8 10  1  0  0  0  0
  8 11  1  0  0  0  0
 11 12  1  0  0  0  0
 11 13  1  0  0  0  0
 11 14  1  0  0  0  0
 14 15  1  0  0  0  0
 14 16  1  0  0  0  0
 14 17  1  0  0  0  0
 17 18  1  0  0  0  0
 17 19  1  0  0  0  0
 17 20  1  0  0  0  0
 20 21  1  0  0  0  0
 20 22  1  0  0  0  0
 22 23  1  0  0  0  0
 22 24  1  0  0  0  0
 22 25  1  0  0  0  0
 20 26  1  0  0  0  0
 26 27  1  0  0  0  0
 26 28  1  0  0  0  0
 26 29  1  0  0  0  0
M  END
> <VM2 Rank>
138

> <Conf_Id>
108

> <Probability>
0.01

> <Sum Probability>
99.87

> <Delta G>
4.336

> <G>
38.039

> <E>
0.299

> <-TS>
37.740

> <U+W>
-23.846

> <U>
28.801

> <W>
-52.647

> <W(PB)>
-55.111

> <W(SA)>
2.464

> <Valence>
7.007

> <Coulomb>
20.617

> <VdW>
1.177

> <VdW6>
-10.509

> <VdW12>
11.686

> <Bond>
0.329

> <Angle>
2.381

> <Pdih>
4.297

> <Idih>
0.000

> <Tether>
0.000

$$$$
VeraChem MOL file


 29 28  0  0  0  0  0  0  0  0999 V2000     
   18.7009   18.7534   20.0425 C   0  0  0  0  0  0  0  0  0  0  0  0
   18.3716   18.1386   20.8895 H   0  0  0  0  0  0  0  0  0  0  0  0
   17.9632   19.5515   19.8881 H   0  0  0  0  0  0  0  0  0  0  0  0
   18.6974   18.1147   19.1498 H   0  0  0  0  0  0  0  0  0  0  0  0
   20.1104   19.3390   20.2836 C   0  0  0  0  0  0  0  0  0  0  0  0
   20.4475   19.8380   19.3643 H   0  0  0  0  0  0  0  0  0  0  0  0
   20.8251   18.5243   20.4592 H   0  0  0  0  0  0  0  0  0  0  0  0
   20.1641   20.3632   21.4463 C   0  0  0  0  0  0  0  0  0  0  0  0
   21.1936   20.7345   21.5440 H   0  0  0  0  0  0  0  0  0  0  0  0
   19.5556   21.2361   21.1725 H   0  0  0  0  0  0  0  0  0  0  0  0
   19.6827   19.8403   22.8250 C   0  0  0  0  0  0  0  0  0  0  0  0
   18.6269   19.5450   22.7647 H   0  0  0  0  0  0  0  0  0  0  0  0
   19.7335   20.6819   23.5256 H   0  0  0  0  0  0  0  0  0  0  0  0
   20.5314   18.6662   23.3745 C   0  0  0  0  0  0  0  0  0  0  0  0
   20.5727   17.8668   22.6241 H   0  0  0  0  0  0  0  0  0  0  0  0
   21.5672   19.0016   23.5217 H   0  0  0  0  0  0  0  0  0  0  0  0
   20.0000   18.0375   24.6897 C   0  0  0  0  0  0  0  0  0  0  0  0
   20.6292   17.1634   24.9041 H   0  0  0  0  0  0  0  0  0  0  0  0
   18.9857   17.6450   24.5387 H   0  0  0  0  0  0  0  0  0  0  0  0
   20.0248   18.9776   25.9183 C   0  0  2  0  0  0  0  0  0  0  0  0
   20.9307   19.5894   25.8673 H   0  0  0  0  0  0  0  0  0  0  0  0
   20.0694   18.1589   27.2192 C   0  0  0  0  0  0  0  0  0  0  0  0
   20.9639   17.5244   27.2513 H   0  0  0  0  0  0  0  0  0  0  0  0
   20.1017   18.8203   28.0938 H   0  0  0  0  0  0  0  0  0  0  0  0
   19.1876   17.5123   27.3114 H   0  0  0  0  0  0  0  0  0  0  0  0
   18.8525   19.9198   25.9550 N   0  3  0  0  0  0  0  0  0  0  0  0
   18.9141   20.5622   26.7502 H   0  0  0  0  0  0  0  0  0  0  0  0
   17.9693   19.4098   26.0416 H   0  0  0  0  0  0  0  0  0  0  0  0
   18.7992   20.4849   25.1045 H   0  0  0  0  0  0  0  0  0  0  0  0
  1  2  1  0  0  0  0
  1  3  1  0  0  0  0
  1  4  1  0  0  0  0
  1  5  1  0  0  0  0
  5  6  1  0  0  0  0
  5  7  1  0  0  0  0
  5  8  1  0  0  0  0
  8  9  1  0  0  0  0
  8 10  1  0  0  0  0
  8 11  1  0  0  0  0
 11 12  1  0  0  0  0
 11 13  1  0  0  0  0
 11 14  1  0  0  0  0
 14 15  1  0  0  0  0
 14 16  1  0  0  0  0
 14 17  1  0  0  0  0
 17 18  1  0  0  0  0
 17 19  1  0  0  0  0
 17 20  1  0  0  0  0
 20 21  1  0  0  0  0
 20 22  1  0  0  0  0
 22 23  1  0  0  0  0
 22 24  1  0  0  0  0
 22 25  1  0  0  0  0
 20 26  1  0  0  0  0
 26 27  1  0  0  0  0
 26 28  1  0  0  0  0
 26 29  1  0  0  0  0
M  END
> <VM2 Rank>
139

> <Conf_Id>
1361

> <Probability>
0.01

> <Sum Probability>
99.88

> <Delta G>
4.368

> <G>
38.070

> <E>
0.332

> <-TS>
37.738

> <U+W>
-23.812

> <U>
28.429

> <W>
-52.242

> <W(PB)>
-54.684

> <W(SA)>
2.442

> <Valence>
6.077

> <Coulomb>
21.131

> <VdW>
1.221

> <VdW6>
-10.542

> <VdW12>
11.763

> <Bond>
0.334

> <Angle>
2.388

> <Pdih>
3.355

> <Idih>
0.000

> <Tether>
0.000

$$$$
VeraChem MOL file


 29 28  0  0  0  0  0  0  0  0999 V2000     
   19.5074   18.1720   19.9315 C   0  0  0  0  0  0  0  0  0  0  0  0
   20.4595   17.7437   19.5920 H   0  0  0  0  0  0  0  0  0  0  0  0
   19.1515   17.5731   20.7771 H   0  0  0  0  0  0  0  0  0  0  0  0
   18.7821   18.0598   19.1153 H   0  0  0  0  0  0  0  0  0  0  0  0
   19.6759   19.6634   20.3043 C   0  0  0  0  0  0  0  0  0  0  0  0
   18.7043   20.1038   20.5680 H   0  0  0  0  0  0  0  0  0  0  0  0
   20.0171   20.1998   19.4078 H   0  0  0  0  0  0  0  0  0  0  0  0
   20.7020   19.8995   21.4423 C   0  0  0  0  0  0  0  0  0  0  0  0
   21.4628   19.1068   21.4387 H   0  0  0  0  0  0  0  0  0  0  0  0
   21.2444   20.8301   21.2253 H   0  0  0  0  0  0  0  0  0  0  0  0
   20.0857   20.0391   22.8582 C   0  0  0  0  0  0  0  0  0  0  0  0
   19.4075   20.9033   22.8768 H   0  0  0  0  0  0  0  0  0  0  0  0
   20.9005   20.2737   23.5552 H   0  0  0  0  0  0  0  0  0  0  0  0
   19.3284   18.7809   23.3497 C   0  0  0  0  0  0  0  0  0  0  0  0
   18.4660   18.6017   22.6952 H   0  0  0  0  0  0  0  0  0  0  0  0
   19.9728   17.8967   23.2591 H   0  0  0  0  0  0  0  0  0  0  0  0
   18.7999   18.9111   24.8019 C   0  0  0  0  0  0  0  0  0  0  0  0
   18.2430   18.0005   25.0598 H   0  0  0  0  0  0  0  0  0  0  0  0
   18.0713   19.7320   24.8332 H   0  0  0  0  0  0  0  0  0  0  0  0
   19.8807   19.1665   25.8791 C   0  0  2  0  0  0  0  0  0  0  0  0
   20.4159   20.0852   25.6220 H   0  0  0  0  0  0  0  0  0  0  0  0
   20.8998   18.0163   25.9617 C   0  0  0  0  0  0  0  0  0  0  0  0
   21.6229   18.1974   26.7664 H   0  0  0  0  0  0  0  0  0  0  0  0
   20.4021   17.0588   26.1600 H   0  0  0  0  0  0  0  0  0  0  0  0
   21.4688   17.9219   25.0295 H   0  0  0  0  0  0  0  0  0  0  0  0
   19.2563   19.4073   27.2253 N   0  3  0  0  0  0  0  0  0  0  0  0
   18.7347   18.5876   27.5474 H   0  0  0  0  0  0  0  0  0  0  0  0
   18.6049   20.1973   27.2030 H   0  0  0  0  0  0  0  0  0  0  0  0
   19.9649   19.6165   27.9343 H   0  0  0  0  0  0  0  0  0  0  0  0
  1  2  1  0  0  0  0
  1  3  1  0  0  0  0
  1  4  1  0  0  0  0
  1  5  1  0  0  0  0
  5  6  1  0  0  0  0
  5  7  1  0  0  0  0
  5  8  1  0  0  0  0
  8  9  1  0  0  0  0
  8 10  1  0  0  0  0
  8 11  1  0  0  0  0
 11 12  1  0  0  0  0
 11 13  1  0  0  0  0
 11 14  1  0  0  0  0
 14 15  1  0  0  0  0
 14 16  1  0  0  0  0
 14 17  1  0  0  0  0
 17 18  1  0  0  0  0
 17 19  1  0  0  0  0
 17 20  1  0  0  0  0
 20 21  1  0  0  0  0
 20 22  1  0  0  0  0
 22 23  1  0  0  0  0
 22 24  1  0  0  0  0
 22 25  1  0  0  0  0
 20 26  1  0  0  0  0
 26 27  1  0  0  0  0
 26 28  1  0  0  0  0
 26 29  1  0  0  0  0
M  END
> <VM2 Rank>
140

> <Conf_Id>
1209

> <Probability>
0.01

> <Sum Probability>
99.88

> <Delta G>
4.394

> <G>
38.096

> <E>
0.102

> <-TS>
37.994

> <U+W>
-24.042

> <U>
28.220

> <W>
-52.263

> <W(PB)>
-54.725

> <W(SA)>
2.462

> <Valence>
7.040

> <Coulomb>
19.984

> <VdW>
1.197

> <VdW6>
-10.565

> <VdW12>
11.762

> <Bond>
0.320

> <Angle>
2.281

> <Pdih>
4.439

> <Idih>
0.000

> <Tether>
0.000

$$$$
VeraChem MOL file


 29 28  0  0  0  0  0  0  0  0999 V2000     
   20.0631   17.8071   20.1855 C   0  0  0  0  0  0  0  0  0  0  0  0
   21.0558   17.5426   20.5722 H   0  0  0  0  0  0  0  0  0  0  0  0
   19.3095   17.2748   20.7789 H   0  0  0  0  0  0  0  0  0  0  0  0
   19.9942   17.4357   19.1549 H   0  0  0  0  0  0  0  0  0  0  0  0
   19.8408   19.3361   20.2252 C   0  0  0  0  0  0  0  0  0  0  0  0
   18.8312   19.5726   19.8611 H   0  0  0  0  0  0  0  0  0  0  0  0
   20.5399   19.8141   19.5249 H   0  0  0  0  0  0  0  0  0  0  0  0
   20.0484   19.9496   21.6308 C   0  0  0  0  0  0  0  0  0  0  0  0
   21.0691   19.7293   21.9680 H   0  0  0  0  0  0  0  0  0  0  0  0
   19.9784   21.0429   21.5476 H   0  0  0  0  0  0  0  0  0  0  0  0
   19.0153   19.4532   22.6744 C   0  0  0  0  0  0  0  0  0  0  0  0
   19.1336   18.3764   22.8338 H   0  0  0  0  0  0  0  0  0  0  0  0
   18.0068   19.5901   22.2607 H   0  0  0  0  0  0  0  0  0  0  0  0
   19.0901   20.2102   24.0270 C   0  0  0  0  0  0  0  0  0  0  0  0
   19.0118   21.2860   23.8180 H   0  0  0  0  0  0  0  0  0  0  0  0
   18.2037   19.9673   24.6269 H   0  0  0  0  0  0  0  0  0  0  0  0
   20.3807   19.9622   24.8618 C   0  0  0  0  0  0  0  0  0  0  0  0
   20.6117   20.8841   25.4114 H   0  0  0  0  0  0  0  0  0  0  0  0
   21.2419   19.8011   24.2036 H   0  0  0  0  0  0  0  0  0  0  0  0
   20.3153   18.8141   25.8997 C   0  0  2  0  0  0  0  0  0  0  0  0
   21.2912   18.7745   26.3932 H   0  0  0  0  0  0  0  0  0  0  0  0
   20.0680   17.4387   25.2601 C   0  0  0  0  0  0  0  0  0  0  0  0
   19.0457   17.3540   24.8735 H   0  0  0  0  0  0  0  0  0  0  0  0
   20.7704   17.2579   24.4370 H   0  0  0  0  0  0  0  0  0  0  0  0
   20.2104   16.6420   26.0005 H   0  0  0  0  0  0  0  0  0  0  0  0
   19.3144   19.0848   26.9895 N   0  3  0  0  0  0  0  0  0  0  0  0
   19.5037   19.9739   27.4609 H   0  0  0  0  0  0  0  0  0  0  0  0
   19.3311   18.3504   27.7030 H   0  0  0  0  0  0  0  0  0  0  0  0
   18.3626   19.1298   26.6174 H   0  0  0  0  0  0  0  0  0  0  0  0
  1  2  1  0  0  0  0
  1  3  1  0  0  0  0
  1  4  1  0  0  0  0
  1  5  1  0  0  0  0
  5  6  1  0  0  0  0
  5  7  1  0  0  0  0
  5  8  1  0  0  0  0
  8  9  1  0  0  0  0
  8 10  1  0  0  0  0
  8 11  1  0  0  0  0
 11 12  1  0  0  0  0
 11 13  1  0  0  0  0
 11 14  1  0  0  0  0
 14 15  1  0  0  0  0
 14 16  1  0  0  0  0
 14 17  1  0  0  0  0
 17 18  1  0  0  0  0
 17 19  1  0  0  0  0
 17 20  1  0  0  0  0
 20 21  1  0  0  0  0
 20 22  1  0  0  0  0
 22 23  1  0  0  0  0
 22 24  1  0  0  0  0
 22 25  1  0  0  0  0
 20 26  1  0  0  0  0
 26 27  1  0  0  0  0
 26 28  1  0  0  0  0
 26 29  1  0  0  0  0
M  END
> <VM2 Rank>
141

> <Conf_Id>
1342

> <Probability>
0.01

> <Sum Probability>
99.89

> <Delta G>
4.415

> <G>
38.117

> <E>
0.402

> <-TS>
37.715

> <U+W>
-23.742

> <U>
28.725

> <W>
-52.468

> <W(PB)>
-54.857

> <W(SA)>
2.389

> <Valence>
7.453

> <Coulomb>
19.993

> <VdW>
1.279

> <VdW6>
-10.882

> <VdW12>
12.161

> <Bond>
0.391

> <Angle>
2.496

> <Pdih>
4.566

> <Idih>
0.000

> <Tether>
0.000

$$$$
VeraChem MOL file


 29 28  0  0  0  0  0  0  0  0999 V2000     
   20.8375   20.4659   20.6408 C   0  0  0  0  0  0  0  0  0  0  0  0
   20.1543   21.1822   21.1133 H   0  0  0  0  0  0  0  0  0  0  0  0
   21.7323   20.3758   21.2701 H   0  0  0  0  0  0  0  0  0  0  0  0
   21.1469   20.8916   19.6775 H   0  0  0  0  0  0  0  0  0  0  0  0
   20.1641   19.0905   20.4319 C   0  0  0  0  0  0  0  0  0  0  0  0
   20.8458   18.4464   19.8591 H   0  0  0  0  0  0  0  0  0  0  0  0
   19.2625   19.2094   19.8150 H   0  0  0  0  0  0  0  0  0  0  0  0
   19.8026   18.3773   21.7567 C   0  0  0  0  0  0  0  0  0  0  0  0
   19.4490   17.3639   21.5224 H   0  0  0  0  0  0  0  0  0  0  0  0
   20.7122   18.2538   22.3578 H   0  0  0  0  0  0  0  0  0  0  0  0
   18.7096   19.1144   22.5717 C   0  0  0  0  0  0  0  0  0  0  0  0
   17.8342   19.2688   21.9260 H   0  0  0  0  0  0  0  0  0  0  0  0
   19.0477   20.1163   22.8611 H   0  0  0  0  0  0  0  0  0  0  0  0
   18.2538   18.3340   23.8295 C   0  0  0  0  0  0  0  0  0  0  0  0
   17.4052   18.8638   24.2842 H   0  0  0  0  0  0  0  0  0  0  0  0
   17.8609   17.3571   23.5156 H   0  0  0  0  0  0  0  0  0  0  0  0
   19.3395   18.1092   24.9158 C   0  0  0  0  0  0  0  0  0  0  0  0
   20.1769   17.5232   24.5166 H   0  0  0  0  0  0  0  0  0  0  0  0
   18.8879   17.4756   25.6906 H   0  0  0  0  0  0  0  0  0  0  0  0
   19.8496   19.4140   25.5759 C   0  0  2  0  0  0  0  0  0  0  0  0
   19.0955   20.1923   25.4238 H   0  0  0  0  0  0  0  0  0  0  0  0
   21.1813   19.8890   24.9666 C   0  0  0  0  0  0  0  0  0  0  0  0
   21.9704   19.1398   25.1071 H   0  0  0  0  0  0  0  0  0  0  0  0
   21.0880   20.0852   23.8939 H   0  0  0  0  0  0  0  0  0  0  0  0
   21.5115   20.8211   25.4414 H   0  0  0  0  0  0  0  0  0  0  0  0
   19.9981   19.2616   27.0650 N   0  3  0  0  0  0  0  0  0  0  0  0
   20.6900   18.5449   27.3003 H   0  0  0  0  0  0  0  0  0  0  0  0
   19.1135   18.9935   27.5062 H   0  0  0  0  0  0  0  0  0  0  0  0
   20.3033   20.1362   27.5016 H   0  0  0  0  0  0  0  0  0  0  0  0
  1  2  1  0  0  0  0
  1  3  1  0  0  0  0
  1  4  1  0  0  0  0
  1  5  1  0  0  0  0
  5  6  1  0  0  0  0
  5  7  1  0  0  0  0
  5  8  1  0  0  0  0
  8  9  1  0  0  0  0
  8 10  1  0  0  0  0
  8 11  1  0  0  0  0
 11 12  1  0  0  0  0
 11 13  1  0  0  0  0
 11 14  1  0  0  0  0
 14 15  1  0  0  0  0
 14 16  1  0  0  0  0
 14 17  1  0  0  0  0
 17 18  1  0  0  0  0
 17 19  1  0  0  0  0
 17 20  1  0  0  0  0
 20 21  1  0  0  0  0
 20 22  1  0  0  0  0
 22 23  1  0  0  0  0
 22 24  1  0  0  0  0
 22 25  1  0  0  0  0
 20 26  1  0  0  0  0
 26 27  1  0  0  0  0
 26 28  1  0  0  0  0
 26 29  1  0  0  0  0
M  END
> <VM2 Rank>
142

> <Conf_Id>
1664

> <Probability>
0.01

> <Sum Probability>
99.89

> <Delta G>
4.417

> <G>
38.119

> <E>
-0.117

> <-TS>
38.236

> <U+W>
-24.262

> <U>
28.334

> <W>
-52.596

> <W(PB)>
-54.973

> <W(SA)>
2.377

> <Valence>
7.422

> <Coulomb>
20.098

> <VdW>
0.814

> <VdW6>
-11.202

> <VdW12>
12.016

> <Bond>
0.311

> <Angle>
2.207

> <Pdih>
4.903

> <Idih>
0.000

> <Tether>
0.000

$$$$
VeraChem MOL file


 29 28  0  0  0  0  0  0  0  0999 V2000     
   19.1108   20.6805   20.3746 C   0  0  0  0  0  0  0  0  0  0  0  0
   18.1376   20.2063   20.1922 H   0  0  0  0  0  0  0  0  0  0  0  0
   18.9431   21.7585   20.4963 H   0  0  0  0  0  0  0  0  0  0  0  0
   19.7344   20.5353   19.4828 H   0  0  0  0  0  0  0  0  0  0  0  0
   19.7886   20.0895   21.6287 C   0  0  0  0  0  0  0  0  0  0  0  0
   19.1575   20.2950   22.4999 H   0  0  0  0  0  0  0  0  0  0  0  0
   20.7436   20.6054   21.8005 H   0  0  0  0  0  0  0  0  0  0  0  0
   20.0369   18.5695   21.4777 C   0  0  0  0  0  0  0  0  0  0  0  0
   19.0879   18.0430   21.3066 H   0  0  0  0  0  0  0  0  0  0  0  0
   20.6366   18.4135   20.5702 H   0  0  0  0  0  0  0  0  0  0  0  0
   20.7945   17.9301   22.6710 C   0  0  0  0  0  0  0  0  0  0  0  0
   21.5144   18.6422   23.0959 H   0  0  0  0  0  0  0  0  0  0  0  0
   21.4034   17.1057   22.2750 H   0  0  0  0  0  0  0  0  0  0  0  0
   19.8866   17.3334   23.7802 C   0  0  0  0  0  0  0  0  0  0  0  0
   19.2240   16.5805   23.3317 H   0  0  0  0  0  0  0  0  0  0  0  0
   20.5168   16.7787   24.4881 H   0  0  0  0  0  0  0  0  0  0  0  0
   19.0210   18.3529   24.5648 C   0  0  0  0  0  0  0  0  0  0  0  0
   18.4728   17.8187   25.3521 H   0  0  0  0  0  0  0  0  0  0  0  0
   18.2529   18.7544   23.8927 H   0  0  0  0  0  0  0  0  0  0  0  0
   19.8091   19.5217   25.2014 C   0  0  2  0  0  0  0  0  0  0  0  0
   20.3682   20.0316   24.4115 H   0  0  0  0  0  0  0  0  0  0  0  0
   20.8085   19.0325   26.2644 C   0  0  0  0  0  0  0  0  0  0  0  0
   21.5753   18.3862   25.8216 H   0  0  0  0  0  0  0  0  0  0  0  0
   21.3264   19.8813   26.7278 H   0  0  0  0  0  0  0  0  0  0  0  0
   20.3004   18.4696   27.0572 H   0  0  0  0  0  0  0  0  0  0  0  0
   18.8799   20.5459   25.7914 N   0  3  0  0  0  0  0  0  0  0  0  0
   18.3205   20.1479   26.5507 H   0  0  0  0  0  0  0  0  0  0  0  0
   18.2301   20.9154   25.0917 H   0  0  0  0  0  0  0  0  0  0  0  0
   19.3969   21.3407   26.1783 H   0  0  0  0  0  0  0  0  0  0  0  0
  1  2  1  0  0  0  0
  1  3  1  0  0  0  0
  1  4  1  0  0  0  0
  1  5  1  0  0  0  0
  5  6  1  0  0  0  0
  5  7  1  0  0  0  0
  5  8  1  0  0  0  0
  8  9  1  0  0  0  0
  8 10  1  0  0  0  0
  8 11  1  0  0  0  0
 11 12  1  0  0  0  0
 11 13  1  0  0  0  0
 11 14  1  0  0  0  0
 14 15  1  0  0  0  0
 14 16  1  0  0  0  0
 14 17  1  0  0  0  0
 17 18  1  0  0  0  0
 17 19  1  0  0  0  0
 17 20  1  0  0  0  0
 20 21  1  0  0  0  0
 20 22  1  0  0  0  0
 22 23  1  0  0  0  0
 22 24  1  0  0  0  0
 22 25  1  0  0  0  0
 20 26  1  0  0  0  0
 26 27  1  0  0  0  0
 26 28  1  0  0  0  0
 26 29  1  0  0  0  0
M  END
> <VM2 Rank>
143

> <Conf_Id>
669

> <Probability>
0.01

> <Sum Probability>
99.90

> <Delta G>
4.483

> <G>
38.185

> <E>
-0.111

> <-TS>
38.296

> <U+W>
-24.256

> <U>
28.796

> <W>
-53.051

> <W(PB)>
-55.453

> <W(SA)>
2.402

> <Valence>
6.977

> <Coulomb>
21.301

> <VdW>
0.518

> <VdW6>
-11.513

> <VdW12>
12.031

> <Bond>
0.321

> <Angle>
2.483

> <Pdih>
4.172

> <Idih>
0.000

> <Tether>
0.000

$$$$
VeraChem MOL file


 29 28  0  0  0  0  0  0  0  0999 V2000     
   18.0536   19.5320   21.4932 C   0  0  0  0  0  0  0  0  0  0  0  0
   18.2069   19.8959   22.5139 H   0  0  0  0  0  0  0  0  0  0  0  0
   17.3252   20.1980   21.0130 H   0  0  0  0  0  0  0  0  0  0  0  0
   17.6033   18.5327   21.5508 H   0  0  0  0  0  0  0  0  0  0  0  0
   19.3699   19.5006   20.6825 C   0  0  0  0  0  0  0  0  0  0  0  0
   19.8000   20.5094   20.6148 H   0  0  0  0  0  0  0  0  0  0  0  0
   19.1218   19.2089   19.6523 H   0  0  0  0  0  0  0  0  0  0  0  0
   20.4217   18.5020   21.2319 C   0  0  0  0  0  0  0  0  0  0  0  0
   19.9274   17.6287   21.6772 H   0  0  0  0  0  0  0  0  0  0  0  0
   20.9861   18.1076   20.3755 H   0  0  0  0  0  0  0  0  0  0  0  0
   21.4558   19.1134   22.2157 C   0  0  0  0  0  0  0  0  0  0  0  0
   21.9912   19.9265   21.7063 H   0  0  0  0  0  0  0  0  0  0  0  0
   22.2165   18.3527   22.4392 H   0  0  0  0  0  0  0  0  0  0  0  0
   20.8894   19.6529   23.5521 C   0  0  0  0  0  0  0  0  0  0  0  0
   21.7207   20.0791   24.1305 H   0  0  0  0  0  0  0  0  0  0  0  0
   20.2067   20.4868   23.3509 H   0  0  0  0  0  0  0  0  0  0  0  0
   20.1949   18.5632   24.4086 C   0  0  0  0  0  0  0  0  0  0  0  0
   20.8882   17.7217   24.5389 H   0  0  0  0  0  0  0  0  0  0  0  0
   19.3176   18.1661   23.8834 H   0  0  0  0  0  0  0  0  0  0  0  0
   19.7680   19.0766   25.8004 C   0  0  2  0  0  0  0  0  0  0  0  0
   20.6519   19.4824   26.3021 H   0  0  0  0  0  0  0  0  0  0  0  0
   19.2179   17.9207   26.6508 C   0  0  0  0  0  0  0  0  0  0  0  0
   18.3254   17.4786   26.1903 H   0  0  0  0  0  0  0  0  0  0  0  0
   19.9697   17.1301   26.7669 H   0  0  0  0  0  0  0  0  0  0  0  0
   18.9467   18.2716   27.6542 H   0  0  0  0  0  0  0  0  0  0  0  0
   18.7649   20.1947   25.7188 N   0  3  0  0  0  0  0  0  0  0  0  0
   17.9015   19.8882   25.2628 H   0  0  0  0  0  0  0  0  0  0  0  0
   19.1331   20.9881   25.1872 H   0  0  0  0  0  0  0  0  0  0  0  0
   18.5144   20.5394   26.6500 H   0  0  0  0  0  0  0  0  0  0  0  0
  1  2  1  0  0  0  0
  1  3  1  0  0  0  0
  1  4  1  0  0  0  0
  1  5  1  0  0  0  0
  5  6  1  0  0  0  0
  5  7  1  0  0  0  0
  5  8  1  0  0  0  0
  8  9  1  0  0  0  0
  8 10  1  0  0  0  0
  8 11  1  0  0  0  0
 11 12  1  0  0  0  0
 11 13  1  0  0  0  0
 11 14  1  0  0  0  0
 14 15  1  0  0  0  0
 14 16  1  0  0  0  0
 14 17  1  0  0  0  0
 17 18  1  0  0  0  0
 17 19  1  0  0  0  0
 17 20  1  0  0  0  0
 20 21  1  0  0  0  0
 20 22  1  0  0  0  0
 22 23  1  0  0  0  0
 22 24  1  0  0  0  0
 22 25  1  0  0  0  0
 20 26  1  0  0  0  0
 26 27  1  0  0  0  0
 26 28  1  0  0  0  0
 26 29  1  0  0  0  0
M  END
> <VM2 Rank>
144

> <Conf_Id>
282

> <Probability>
0.01

> <Sum Probability>
99.91

> <Delta G>
4.507

> <G>
38.209

> <E>
-0.043

> <-TS>
38.252

> <U+W>
-24.187

> <U>
28.509

> <W>
-52.697

> <W(PB)>
-55.107

> <W(SA)>
2.410

> <Valence>
6.730

> <Coulomb>
21.117

> <VdW>
0.663

> <VdW6>
-11.041

> <VdW12>
11.704

> <Bond>
0.323

> <Angle>
2.297

> <Pdih>
4.110

> <Idih>
0.000

> <Tether>
0.000

$$$$
VeraChem MOL file


 29 28  0  0  0  0  0  0  0  0999 V2000     
   18.9664   17.9246   20.7315 C   0  0  0  0  0  0  0  0  0  0  0  0
   18.5733   17.3764   19.8656 H   0  0  0  0  0  0  0  0  0  0  0  0
   19.4840   17.2048   21.3788 H   0  0  0  0  0  0  0  0  0  0  0  0
   18.1072   18.3325   21.2777 H   0  0  0  0  0  0  0  0  0  0  0  0
   19.9214   19.0472   20.2709 C   0  0  0  0  0  0  0  0  0  0  0  0
   19.3582   19.7891   19.6878 H   0  0  0  0  0  0  0  0  0  0  0  0
   20.6622   18.6178   19.5821 H   0  0  0  0  0  0  0  0  0  0  0  0
   20.6768   19.7552   21.4243 C   0  0  0  0  0  0  0  0  0  0  0  0
   21.3206   19.0345   21.9428 H   0  0  0  0  0  0  0  0  0  0  0  0
   21.3604   20.4854   20.9697 H   0  0  0  0  0  0  0  0  0  0  0  0
   19.7650   20.5129   22.4280 C   0  0  0  0  0  0  0  0  0  0  0  0
   18.8630   20.8620   21.9069 H   0  0  0  0  0  0  0  0  0  0  0  0
   20.2823   21.4240   22.7591 H   0  0  0  0  0  0  0  0  0  0  0  0
   19.3541   19.7021   23.6850 C   0  0  0  0  0  0  0  0  0  0  0  0
   18.5575   20.2554   24.1990 H   0  0  0  0  0  0  0  0  0  0  0  0
   18.9178   18.7431   23.3857 H   0  0  0  0  0  0  0  0  0  0  0  0
   20.5308   19.4678   24.6722 C   0  0  0  0  0  0  0  0  0  0  0  0
   20.9897   20.4334   24.9217 H   0  0  0  0  0  0  0  0  0  0  0  0
   21.3166   18.8782   24.1851 H   0  0  0  0  0  0  0  0  0  0  0  0
   20.1405   18.7581   25.9901 C   0  0  2  0  0  0  0  0  0  0  0  0
   21.0476   18.6793   26.5974 H   0  0  0  0  0  0  0  0  0  0  0  0
   19.6192   17.3312   25.7456 C   0  0  0  0  0  0  0  0  0  0  0  0
   20.3328   16.7529   25.1455 H   0  0  0  0  0  0  0  0  0  0  0  0
   19.4822   16.8047   26.6981 H   0  0  0  0  0  0  0  0  0  0  0  0
   18.6549   17.3352   25.2238 H   0  0  0  0  0  0  0  0  0  0  0  0
   19.1619   19.5569   26.8063 N   0  3  0  0  0  0  0  0  0  0  0  0
   18.9639   19.1027   27.7025 H   0  0  0  0  0  0  0  0  0  0  0  0
   18.2717   19.6675   26.3147 H   0  0  0  0  0  0  0  0  0  0  0  0
   19.5206   20.4941   27.0105 H   0  0  0  0  0  0  0  0  0  0  0  0
  1  2  1  0  0  0  0
  1  3  1  0  0  0  0
  1  4  1  0  0  0  0
  1  5  1  0  0  0  0
  5  6  1  0  0  0  0
  5  7  1  0  0  0  0
  5  8  1  0  0  0  0
  8  9  1  0  0  0  0
  8 10  1  0  0  0  0
  8 11  1  0  0  0  0
 11 12  1  0  0  0  0
 11 13  1  0  0  0  0
 11 14  1  0  0  0  0
 14 15  1  0  0  0  0
 14 16  1  0  0  0  0
 14 17  1  0  0  0  0
 17 18  1  0  0  0  0
 17 19  1  0  0  0  0
 17 20  1  0  0  0  0
 20 21  1  0  0  0  0
 20 22  1  0  0  0  0
 22 23  1  0  0  0  0
 22 24  1  0  0  0  0
 22 25  1  0  0  0  0
 20 26  1  0  0  0  0
 26 27  1  0  0  0  0
 26 28  1  0  0  0  0
 26 29  1  0  0  0  0
M  END
> <VM2 Rank>
145

> <Conf_Id>
655

> <Probability>
0.01

> <Sum Probability>
99.91

> <Delta G>
4.527

> <G>
38.229

> <E>
0.342

> <-TS>
37.887

> <U+W>
-23.802

> <U>
28.700

> <W>
-52.502

> <W(PB)>
-54.904

> <W(SA)>
2.401

> <Valence>
7.367

> <Coulomb>
20.019

> <VdW>
1.314

> <VdW6>
-10.862

> <VdW12>
12.176

> <Bond>
0.376

> <Angle>
2.261

> <Pdih>
4.731

> <Idih>
0.000

> <Tether>
0.000

$$$$
VeraChem MOL file


 29 28  0  0  0  0  0  0  0  0999 V2000     
   20.3143   20.9736   20.8771 C   0  0  0  0  0  0  0  0  0  0  0  0
   21.3116   21.3523   20.6182 H   0  0  0  0  0  0  0  0  0  0  0  0
   19.7021   20.9863   19.9659 H   0  0  0  0  0  0  0  0  0  0  0  0
   19.8668   21.6684   21.5997 H   0  0  0  0  0  0  0  0  0  0  0  0
   20.4078   19.5491   21.4628 C   0  0  0  0  0  0  0  0  0  0  0  0
   21.0590   19.5693   22.3453 H   0  0  0  0  0  0  0  0  0  0  0  0
   20.8885   18.8844   20.7315 H   0  0  0  0  0  0  0  0  0  0  0  0
   19.0123   18.9926   21.8311 C   0  0  0  0  0  0  0  0  0  0  0  0
   18.5096   19.6588   22.5430 H   0  0  0  0  0  0  0  0  0  0  0  0
   18.3839   18.9971   20.9298 H   0  0  0  0  0  0  0  0  0  0  0  0
   19.0481   17.5476   22.3886 C   0  0  0  0  0  0  0  0  0  0  0  0
   19.4540   16.8831   21.6136 H   0  0  0  0  0  0  0  0  0  0  0  0
   18.0155   17.2113   22.5553 H   0  0  0  0  0  0  0  0  0  0  0  0
   19.8597   17.3344   23.6954 C   0  0  0  0  0  0  0  0  0  0  0  0
   19.8103   16.2632   23.9347 H   0  0  0  0  0  0  0  0  0  0  0  0
   20.9232   17.5386   23.5247 H   0  0  0  0  0  0  0  0  0  0  0  0
   19.3262   18.1162   24.9274 C   0  0  0  0  0  0  0  0  0  0  0  0
   19.5970   17.5685   25.8399 H   0  0  0  0  0  0  0  0  0  0  0  0
   18.2287   18.1144   24.8951 H   0  0  0  0  0  0  0  0  0  0  0  0
   19.8380   19.5705   25.0611 C   0  0  2  0  0  0  0  0  0  0  0  0
   19.7268   20.0750   24.0987 H   0  0  0  0  0  0  0  0  0  0  0  0
   21.3219   19.6220   25.4679 C   0  0  0  0  0  0  0  0  0  0  0  0
   21.4871   19.1182   26.4284 H   0  0  0  0  0  0  0  0  0  0  0  0
   21.9628   19.1443   24.7188 H   0  0  0  0  0  0  0  0  0  0  0  0
   21.6578   20.6614   25.5684 H   0  0  0  0  0  0  0  0  0  0  0  0
   19.0078   20.3500   26.0427 N   0  3  0  0  0  0  0  0  0  0  0  0
   18.0205   20.3684   25.7712 H   0  0  0  0  0  0  0  0  0  0  0  0
   19.3237   21.3216   26.1115 H   0  0  0  0  0  0  0  0  0  0  0  0
   19.0611   19.9447   26.9811 H   0  0  0  0  0  0  0  0  0  0  0  0
  1  2  1  0  0  0  0
  1  3  1  0  0  0  0
  1  4  1  0  0  0  0
  1  5  1  0  0  0  0
  5  6  1  0  0  0  0
  5  7  1  0  0  0  0
  5  8  1  0  0  0  0
  8  9  1  0  0  0  0
  8 10  1  0  0  0  0
  8 11  1  0  0  0  0
 11 12  1  0  0  0  0
 11 13  1  0  0  0  0
 11 14  1  0  0  0  0
 14 15  1  0  0  0  0
 14 16  1  0  0  0  0
 14 17  1  0  0  0  0
 17 18  1  0  0  0  0
 17 19  1  0  0  0  0
 17 20  1  0  0  0  0
 20 21  1  0  0  0  0
 20 22  1  0  0  0  0
 22 23  1  0  0  0  0
 22 24  1  0  0  0  0
 22 25  1  0  0  0  0
 20 26  1  0  0  0  0
 26 27  1  0  0  0  0
 26 28  1  0  0  0  0
 26 29  1  0  0  0  0
M  END
> <VM2 Rank>
146

> <Conf_Id>
1677

> <Probability>
0.01

> <Sum Probability>
99.92

> <Delta G>
4.528

> <G>
38.230

> <E>
-0.345

> <-TS>
38.575

> <U+W>
-24.489

> <U>
28.285

> <W>
-52.774

> <W(PB)>
-55.159

> <W(SA)>
2.385

> <Valence>
6.918

> <Coulomb>
20.924

> <VdW>
0.442

> <VdW6>
-11.731

> <VdW12>
12.173

> <Bond>
0.331

> <Angle>
2.608

> <Pdih>
3.979

> <Idih>
0.000

> <Tether>
0.000

$$$$
VeraChem MOL file


 29 28  0  0  0  0  0  0  0  0999 V2000     
   20.9264   20.0588   20.6775 C   0  0  0  0  0  0  0  0  0  0  0  0
   22.0095   20.0844   20.5011 H   0  0  0  0  0  0  0  0  0  0  0  0
   20.4299   20.4232   19.7689 H   0  0  0  0  0  0  0  0  0  0  0  0
   20.7057   20.7609   21.4904 H   0  0  0  0  0  0  0  0  0  0  0  0
   20.4670   18.6231   21.0197 C   0  0  0  0  0  0  0  0  0  0  0  0
   20.9872   18.2585   21.9145 H   0  0  0  0  0  0  0  0  0  0  0  0
   20.7757   17.9544   20.2042 H   0  0  0  0  0  0  0  0  0  0  0  0
   18.9347   18.4980   21.2022 C   0  0  0  0  0  0  0  0  0  0  0  0
   18.4454   18.7957   20.2647 H   0  0  0  0  0  0  0  0  0  0  0  0
   18.6819   17.4384   21.3450 H   0  0  0  0  0  0  0  0  0  0  0  0
   18.3175   19.3214   22.3648 C   0  0  0  0  0  0  0  0  0  0  0  0
   17.2284   19.1846   22.3147 H   0  0  0  0  0  0  0  0  0  0  0  0
   18.4803   20.3960   22.2099 H   0  0  0  0  0  0  0  0  0  0  0  0
   18.7835   18.8953   23.7821 C   0  0  0  0  0  0  0  0  0  0  0  0
   17.9296   19.0001   24.4641 H   0  0  0  0  0  0  0  0  0  0  0  0
   19.0414   17.8284   23.7783 H   0  0  0  0  0  0  0  0  0  0  0  0
   19.9607   19.7484   24.3303 C   0  0  0  0  0  0  0  0  0  0  0  0
   19.6699   20.8069   24.3214 H   0  0  0  0  0  0  0  0  0  0  0  0
   20.8266   19.6717   23.6644 H   0  0  0  0  0  0  0  0  0  0  0  0
   20.4172   19.3817   25.7620 C   0  0  2  0  0  0  0  0  0  0  0  0
   21.2128   20.0806   26.0381 H   0  0  0  0  0  0  0  0  0  0  0  0
   21.0022   17.9604   25.8347 C   0  0  0  0  0  0  0  0  0  0  0  0
   20.2348   17.1961   25.6641 H   0  0  0  0  0  0  0  0  0  0  0  0
   21.7939   17.8259   25.0873 H   0  0  0  0  0  0  0  0  0  0  0  0
   21.4428   17.7774   26.8224 H   0  0  0  0  0  0  0  0  0  0  0  0
   19.3268   19.5689   26.7807 N   0  3  0  0  0  0  0  0  0  0  0  0
   18.5419   18.9370   26.6040 H   0  0  0  0  0  0  0  0  0  0  0  0
   18.9621   20.5257   26.7686 H   0  0  0  0  0  0  0  0  0  0  0  0
   19.6648   19.3817   27.7291 H   0  0  0  0  0  0  0  0  0  0  0  0
  1  2  1  0  0  0  0
  1  3  1  0  0  0  0
  1  4  1  0  0  0  0
  1  5  1  0  0  0  0
  5  6  1  0  0  0  0
  5  7  1  0  0  0  0
  5  8  1  0  0  0  0
  8  9  1  0  0  0  0
  8 10  1  0  0  0  0
  8 11  1  0  0  0  0
 11 12  1  0  0  0  0
 11 13  1  0  0  0  0
 11 14  1  0  0  0  0
 14 15  1  0  0  0  0
 14 16  1  0  0  0  0
 14 17  1  0  0  0  0
 17 18  1  0  0  0  0
 17 19  1  0  0  0  0
 17 20  1  0  0  0  0
 20 21  1  0  0  0  0
 20 22  1  0  0  0  0
 22 23  1  0  0  0  0
 22 24  1  0  0  0  0
 22 25  1  0  0  0  0
 20 26  1  0  0  0  0
 26 27  1  0  0  0  0
 26 28  1  0  0  0  0
 26 29  1  0  0  0  0
M  END
> <VM2 Rank>
147

> <Conf_Id>
700

> <Probability>
0.01

> <Sum Probability>
99.92

> <Delta G>
4.541

> <G>
38.244

> <E>
-0.092

> <-TS>
38.335

> <U+W>
-24.236

> <U>
28.401

> <W>
-52.637

> <W(PB)>
-55.025

> <W(SA)>
2.388

> <Valence>
7.300

> <Coulomb>
20.101

> <VdW>
1.000

> <VdW6>
-11.394

> <VdW12>
12.394

> <Bond>
0.366

> <Angle>
2.502

> <Pdih>
4.432

> <Idih>
0.000

> <Tether>
0.000

$$$$
VeraChem MOL file


 29 28  0  0  0  0  0  0  0  0999 V2000     
   19.8426   20.3540   20.1187 C   0  0  0  0  0  0  0  0  0  0  0  0
   18.8204   20.7120   19.9403 H   0  0  0  0  0  0  0  0  0  0  0  0
   20.2663   20.9232   20.9555 H   0  0  0  0  0  0  0  0  0  0  0  0
   20.4400   20.5835   19.2270 H   0  0  0  0  0  0  0  0  0  0  0  0
   19.8572   18.8353   20.4037 C   0  0  0  0  0  0  0  0  0  0  0  0
   20.8854   18.5051   20.6020 H   0  0  0  0  0  0  0  0  0  0  0  0
   19.5428   18.3024   19.4955 H   0  0  0  0  0  0  0  0  0  0  0  0
   18.9229   18.4158   21.5676 C   0  0  0  0  0  0  0  0  0  0  0  0
   17.8843   18.6255   21.2767 H   0  0  0  0  0  0  0  0  0  0  0  0
   18.9841   17.3264   21.6958 H   0  0  0  0  0  0  0  0  0  0  0  0
   19.2007   19.1009   22.9311 C   0  0  0  0  0  0  0  0  0  0  0  0
   18.4416   18.7420   23.6353 H   0  0  0  0  0  0  0  0  0  0  0  0
   19.0556   20.1855   22.8413 H   0  0  0  0  0  0  0  0  0  0  0  0
   20.6102   18.8011   23.5004 C   0  0  0  0  0  0  0  0  0  0  0  0
   20.7276   17.7190   23.6455 H   0  0  0  0  0  0  0  0  0  0  0  0
   21.3654   19.0854   22.7569 H   0  0  0  0  0  0  0  0  0  0  0  0
   20.9546   19.5573   24.8147 C   0  0  0  0  0  0  0  0  0  0  0  0
   20.9512   20.6381   24.6222 H   0  0  0  0  0  0  0  0  0  0  0  0
   21.9926   19.3125   25.0758 H   0  0  0  0  0  0  0  0  0  0  0  0
   20.0814   19.2654   26.0617 C   0  0  2  0  0  0  0  0  0  0  0  0
   20.6091   19.6899   26.9214 H   0  0  0  0  0  0  0  0  0  0  0  0
   19.9149   17.7588   26.3255 C   0  0  0  0  0  0  0  0  0  0  0  0
   20.8917   17.2609   26.3627 H   0  0  0  0  0  0  0  0  0  0  0  0
   19.4181   17.5900   27.2887 H   0  0  0  0  0  0  0  0  0  0  0  0
   19.3116   17.2757   25.5476 H   0  0  0  0  0  0  0  0  0  0  0  0
   18.7516   19.9674   26.0307 N   0  3  0  0  0  0  0  0  0  0  0  0
   18.8655   20.9800   25.9283 H   0  0  0  0  0  0  0  0  0  0  0  0
   18.2239   19.8051   26.8932 H   0  0  0  0  0  0  0  0  0  0  0  0
   18.1769   19.6414   25.2512 H   0  0  0  0  0  0  0  0  0  0  0  0
  1  2  1  0  0  0  0
  1  3  1  0  0  0  0
  1  4  1  0  0  0  0
  1  5  1  0  0  0  0
  5  6  1  0  0  0  0
  5  7  1  0  0  0  0
  5  8  1  0  0  0  0
  8  9  1  0  0  0  0
  8 10  1  0  0  0  0
  8 11  1  0  0  0  0
 11 12  1  0  0  0  0
 11 13  1  0  0  0  0
 11 14  1  0  0  0  0
 14 15  1  0  0  0  0
 14 16  1  0  0  0  0
 14 17  1  0  0  0  0
 17 18  1  0  0  0  0
 17 19  1  0  0  0  0
 17 20  1  0  0  0  0
 20 21  1  0  0  0  0
 20 22  1  0  0  0  0
 22 23  1  0  0  0  0
 22 24  1  0  0  0  0
 22 25  1  0  0  0  0
 20 26  1  0  0  0  0
 26 27  1  0  0  0  0
 26 28  1  0  0  0  0
 26 29  1  0  0  0  0
M  END
> <VM2 Rank>
148

> <Conf_Id>
1363

> <Probability>
0.00

> <Sum Probability>
99.93

> <Delta G>
4.604

> <G>
38.307

> <E>
-0.029

> <-TS>
38.336

> <U+W>
-24.174

> <U>
28.517

> <W>
-52.691

> <W(PB)>
-55.070

> <W(SA)>
2.379

> <Valence>
6.153

> <Coulomb>
21.300

> <VdW>
1.064

> <VdW6>
-11.581

> <VdW12>
12.645

> <Bond>
0.386

> <Angle>
2.989

> <Pdih>
2.778

> <Idih>
0.000

> <Tether>
0.000

$$$$
VeraChem MOL file


 29 28  0  0  0  0  0  0  0  0999 V2000     
   19.9897   18.1518   19.6969 C   0  0  0  0  0  0  0  0  0  0  0  0
   19.3450   17.8160   18.8744 H   0  0  0  0  0  0  0  0  0  0  0  0
   20.7702   18.7964   19.2720 H   0  0  0  0  0  0  0  0  0  0  0  0
   20.4747   17.2664   20.1282 H   0  0  0  0  0  0  0  0  0  0  0  0
   19.1660   18.9068   20.7614 C   0  0  0  0  0  0  0  0  0  0  0  0
   18.3740   18.2479   21.1441 H   0  0  0  0  0  0  0  0  0  0  0  0
   18.6654   19.7660   20.2934 H   0  0  0  0  0  0  0  0  0  0  0  0
   20.0509   19.3916   21.9307 C   0  0  0  0  0  0  0  0  0  0  0  0
   20.5559   18.5272   22.3795 H   0  0  0  0  0  0  0  0  0  0  0  0
   20.8385   20.0530   21.5445 H   0  0  0  0  0  0  0  0  0  0  0  0
   19.2250   20.1444   23.0013 C   0  0  0  0  0  0  0  0  0  0  0  0
   18.4274   19.5013   23.3908 H   0  0  0  0  0  0  0  0  0  0  0  0
   18.7130   20.9887   22.5194 H   0  0  0  0  0  0  0  0  0  0  0  0
   20.0821   20.7016   24.1651 C   0  0  0  0  0  0  0  0  0  0  0  0
   20.7901   21.4312   23.7484 H   0  0  0  0  0  0  0  0  0  0  0  0
   19.4354   21.2820   24.8365 H   0  0  0  0  0  0  0  0  0  0  0  0
   20.8941   19.6641   24.9961 C   0  0  0  0  0  0  0  0  0  0  0  0
   21.4834   20.2320   25.7278 H   0  0  0  0  0  0  0  0  0  0  0  0
   21.6390   19.1683   24.3611 H   0  0  0  0  0  0  0  0  0  0  0  0
   20.0927   18.6014   25.7929 C   0  0  2  0  0  0  0  0  0  0  0  0
   20.7378   18.2789   26.6161 H   0  0  0  0  0  0  0  0  0  0  0  0
   19.7818   17.3390   24.9686 C   0  0  0  0  0  0  0  0  0  0  0  0
   19.3492   16.5626   25.6113 H   0  0  0  0  0  0  0  0  0  0  0  0
   19.0704   17.5320   24.1604 H   0  0  0  0  0  0  0  0  0  0  0  0
   20.6976   16.9266   24.5275 H   0  0  0  0  0  0  0  0  0  0  0  0
   18.8537   19.1553   26.4408 N   0  3  0  0  0  0  0  0  0  0  0  0
   18.3768   18.4466   27.0054 H   0  0  0  0  0  0  0  0  0  0  0  0
   18.1907   19.4909   25.7378 H   0  0  0  0  0  0  0  0  0  0  0  0
   19.0750   19.9422   27.0576 H   0  0  0  0  0  0  0  0  0  0  0  0
  1  2  1  0  0  0  0
  1  3  1  0  0  0  0
  1  4  1  0  0  0  0
  1  5  1  0  0  0  0
  5  6  1  0  0  0  0
  5  7  1  0  0  0  0
  5  8  1  0  0  0  0
  8  9  1  0  0  0  0
  8 10  1  0  0  0  0
  8 11  1  0  0  0  0
 11 12  1  0  0  0  0
 11 13  1  0  0  0  0
 11 14  1  0  0  0  0
 14 15  1  0  0  0  0
 14 16  1  0  0  0  0
 14 17  1  0  0  0  0
 17 18  1  0  0  0  0
 17 19  1  0  0  0  0
 17 20  1  0  0  0  0
 20 21  1  0  0  0  0
 20 22  1  0  0  0  0
 22 23  1  0  0  0  0
 22 24  1  0  0  0  0
 22 25  1  0  0  0  0
 20 26  1  0  0  0  0
 26 27  1  0  0  0  0
 26 28  1  0  0  0  0
 26 29  1  0  0  0  0
M  END
> <VM2 Rank>
149

> <Conf_Id>
1002

> <Probability>
0.00

> <Sum Probability>
99.93

> <Delta G>
4.611

> <G>
38.313

> <E>
-0.135

> <-TS>
38.449

> <U+W>
-24.280

> <U>
28.205

> <W>
-52.486

> <W(PB)>
-54.876

> <W(SA)>
2.391

> <Valence>
6.867

> <Coulomb>
20.598

> <VdW>
0.740

> <VdW6>
-11.267

> <VdW12>
12.008

> <Bond>
0.355

> <Angle>
2.996

> <Pdih>
3.516

> <Idih>
0.000

> <Tether>
0.000

$$$$
VeraChem MOL file


 29 28  0  0  0  0  0  0  0  0999 V2000     
   18.9253   19.6476   19.8135 C   0  0  0  0  0  0  0  0  0  0  0  0
   18.2199   19.9210   20.6080 H   0  0  0  0  0  0  0  0  0  0  0  0
   18.8678   20.4233   19.0391 H   0  0  0  0  0  0  0  0  0  0  0  0
   18.5920   18.7017   19.3675 H   0  0  0  0  0  0  0  0  0  0  0  0
   20.3681   19.5284   20.3542 C   0  0  0  0  0  0  0  0  0  0  0  0
   20.6723   20.4790   20.8122 H   0  0  0  0  0  0  0  0  0  0  0  0
   21.0508   19.3709   19.5076 H   0  0  0  0  0  0  0  0  0  0  0  0
   20.5544   18.3645   21.3606 C   0  0  0  0  0  0  0  0  0  0  0  0
   20.3563   17.4147   20.8452 H   0  0  0  0  0  0  0  0  0  0  0  0
   21.6092   18.3263   21.6657 H   0  0  0  0  0  0  0  0  0  0  0  0
   19.6663   18.4363   22.6294 C   0  0  0  0  0  0  0  0  0  0  0  0
   19.8700   17.5481   23.2392 H   0  0  0  0  0  0  0  0  0  0  0  0
   18.6076   18.3644   22.3473 H   0  0  0  0  0  0  0  0  0  0  0  0
   19.8939   19.7190   23.4699 C   0  0  0  0  0  0  0  0  0  0  0  0
   20.9661   19.8734   23.6534 H   0  0  0  0  0  0  0  0  0  0  0  0
   19.5580   20.5838   22.8825 H   0  0  0  0  0  0  0  0  0  0  0  0
   19.1177   19.7179   24.8135 C   0  0  0  0  0  0  0  0  0  0  0  0
   18.2196   19.0911   24.7345 H   0  0  0  0  0  0  0  0  0  0  0  0
   18.7547   20.7388   24.9915 H   0  0  0  0  0  0  0  0  0  0  0  0
   19.9553   19.3007   26.0463 C   0  0  2  0  0  0  0  0  0  0  0  0
   20.8145   19.9746   26.1172 H   0  0  0  0  0  0  0  0  0  0  0  0
   20.4835   17.8595   25.9501 C   0  0  0  0  0  0  0  0  0  0  0  0
   21.0087   17.5776   26.8710 H   0  0  0  0  0  0  0  0  0  0  0  0
   19.6653   17.1458   25.7925 H   0  0  0  0  0  0  0  0  0  0  0  0
   21.1997   17.7571   25.1265 H   0  0  0  0  0  0  0  0  0  0  0  0
   19.1714   19.4821   27.3164 N   0  3  0  0  0  0  0  0  0  0  0  0
   19.7355   19.2530   28.1398 H   0  0  0  0  0  0  0  0  0  0  0  0
   18.3448   18.8787   27.3348 H   0  0  0  0  0  0  0  0  0  0  0  0
   18.8500   20.4482   27.4266 H   0  0  0  0  0  0  0  0  0  0  0  0
  1  2  1  0  0  0  0
  1  3  1  0  0  0  0
  1  4  1  0  0  0  0
  1  5  1  0  0  0  0
  5  6  1  0  0  0  0
  5  7  1  0  0  0  0
  5  8  1  0  0  0  0
  8  9  1  0  0  0  0
  8 10  1  0  0  0  0
  8 11  1  0  0  0  0
 11 12  1  0  0  0  0
 11 13  1  0  0  0  0
 11 14  1  0  0  0  0
 14 15  1  0  0  0  0
 14 16  1  0  0  0  0
 14 17  1  0  0  0  0
 17 18  1  0  0  0  0
 17 19  1  0  0  0  0
 17 20  1  0  0  0  0
 20 21  1  0  0  0  0
 20 22  1  0  0  0  0
 22 23  1  0  0  0  0
 22 24  1  0  0  0  0
 22 25  1  0  0  0  0
 20 26  1  0  0  0  0
 26 27  1  0  0  0  0
 26 28  1  0  0  0  0
 26 29  1  0  0  0  0
M  END
> <VM2 Rank>
150

> <Conf_Id>
656

> <Probability>
0.00

> <Sum Probability>
99.94

> <Delta G>
4.616

> <G>
38.318

> <E>
0.173

> <-TS>
38.145

> <U+W>
-23.971

> <U>
28.230

> <W>
-52.201

> <W(PB)>
-54.645

> <W(SA)>
2.444

> <Valence>
7.255

> <Coulomb>
19.721

> <VdW>
1.254

> <VdW6>
-10.650

> <VdW12>
11.903

> <Bond>
0.331

> <Angle>
2.253

> <Pdih>
4.671

> <Idih>
0.000

> <Tether>
0.000

$$$$
VeraChem MOL file


 29 28  0  0  0  0  0  0  0  0999 V2000     
   18.1953   18.9172   20.4055 C   0  0  0  0  0  0  0  0  0  0  0  0
   17.8885   18.3226   21.2748 H   0  0  0  0  0  0  0  0  0  0  0  0
   17.7543   19.9181   20.4990 H   0  0  0  0  0  0  0  0  0  0  0  0
   17.7651   18.4430   19.5139 H   0  0  0  0  0  0  0  0  0  0  0  0
   19.7341   18.9969   20.2857 C   0  0  0  0  0  0  0  0  0  0  0  0
   19.9901   19.4891   19.3370 H   0  0  0  0  0  0  0  0  0  0  0  0
   20.1533   17.9826   20.2286 H   0  0  0  0  0  0  0  0  0  0  0  0
   20.4031   19.7752   21.4443 C   0  0  0  0  0  0  0  0  0  0  0  0
   21.4742   19.8771   21.2214 H   0  0  0  0  0  0  0  0  0  0  0  0
   19.9970   20.7954   21.4836 H   0  0  0  0  0  0  0  0  0  0  0  0
   20.2348   19.0924   22.8227 C   0  0  0  0  0  0  0  0  0  0  0  0
   20.6038   18.0591   22.7671 H   0  0  0  0  0  0  0  0  0  0  0  0
   19.1689   19.0475   23.0706 H   0  0  0  0  0  0  0  0  0  0  0  0
   20.9910   19.8551   23.9353 C   0  0  0  0  0  0  0  0  0  0  0  0
   22.0240   20.0263   23.6024 H   0  0  0  0  0  0  0  0  0  0  0  0
   20.5521   20.8539   24.0615 H   0  0  0  0  0  0  0  0  0  0  0  0
   21.0543   19.1233   25.3062 C   0  0  0  0  0  0  0  0  0  0  0  0
   21.6589   19.7450   25.9793 H   0  0  0  0  0  0  0  0  0  0  0  0
   21.6169   18.1866   25.1975 H   0  0  0  0  0  0  0  0  0  0  0  0
   19.7111   18.8404   26.0281 C   0  0  2  0  0  0  0  0  0  0  0  0
   19.9400   18.7654   27.0956 H   0  0  0  0  0  0  0  0  0  0  0  0
   19.0915   17.4899   25.6232 C   0  0  0  0  0  0  0  0  0  0  0  0
   18.2139   17.2721   26.2442 H   0  0  0  0  0  0  0  0  0  0  0  0
   18.7702   17.4716   24.5778 H   0  0  0  0  0  0  0  0  0  0  0  0
   19.8089   16.6736   25.7722 H   0  0  0  0  0  0  0  0  0  0  0  0
   18.7208   19.9656   25.9030 N   0  3  0  0  0  0  0  0  0  0  0  0
   19.1088   20.8445   26.2574 H   0  0  0  0  0  0  0  0  0  0  0  0
   17.8648   19.7725   26.4310 H   0  0  0  0  0  0  0  0  0  0  0  0
   18.4572   20.1164   24.9261 H   0  0  0  0  0  0  0  0  0  0  0  0
  1  2  1  0  0  0  0
  1  3  1  0  0  0  0
  1  4  1  0  0  0  0
  1  5  1  0  0  0  0
  5  6  1  0  0  0  0
  5  7  1  0  0  0  0
  5  8  1  0  0  0  0
  8  9  1  0  0  0  0
  8 10  1  0  0  0  0
  8 11  1  0  0  0  0
 11 12  1  0  0  0  0
 11 13  1  0  0  0  0
 11 14  1  0  0  0  0
 14 15  1  0  0  0  0
 14 16  1  0  0  0  0
 14 17  1  0  0  0  0
 17 18  1  0  0  0  0
 17 19  1  0  0  0  0
 17 20  1  0  0  0  0
 20 21  1  0  0  0  0
 20 22  1  0  0  0  0
 22 23  1  0  0  0  0
 22 24  1  0  0  0  0
 22 25  1  0  0  0  0
 20 26  1  0  0  0  0
 26 27  1  0  0  0  0
 26 28  1  0  0  0  0
 26 29  1  0  0  0  0
M  END
> <VM2 Rank>
151

> <Conf_Id>
1343

> <Probability>
0.00

> <Sum Probability>
99.94

> <Delta G>
4.645

> <G>
38.347

> <E>
0.337

> <-TS>
38.010

> <U+W>
-23.808

> <U>
28.617

> <W>
-52.424

> <W(PB)>
-54.855

> <W(SA)>
2.430

> <Valence>
6.762

> <Coulomb>
20.675

> <VdW>
1.180

> <VdW6>
-10.633

> <VdW12>
11.813

> <Bond>
0.336

> <Angle>
2.592

> <Pdih>
3.834

> <Idih>
0.000

> <Tether>
0.000

$$$$
VeraChem MOL file


 29 28  0  0  0  0  0  0  0  0999 V2000     
   18.5990   18.9222   19.8133 C   0  0  0  0  0  0  0  0  0  0  0  0
   19.0583   18.1054   19.2414 H   0  0  0  0  0  0  0  0  0  0  0  0
   17.7172   18.5234   20.3316 H   0  0  0  0  0  0  0  0  0  0  0  0
   18.2554   19.6817   19.0990 H   0  0  0  0  0  0  0  0  0  0  0  0
   19.6025   19.5312   20.8152 C   0  0  0  0  0  0  0  0  0  0  0  0
   19.1203   20.3677   21.3382 H   0  0  0  0  0  0  0  0  0  0  0  0
   20.4584   19.9481   20.2665 H   0  0  0  0  0  0  0  0  0  0  0  0
   20.0978   18.4799   21.8356 C   0  0  0  0  0  0  0  0  0  0  0  0
   19.2447   18.0958   22.4087 H   0  0  0  0  0  0  0  0  0  0  0  0
   20.5074   17.6190   21.2895 H   0  0  0  0  0  0  0  0  0  0  0  0
   21.1937   19.0150   22.7943 C   0  0  0  0  0  0  0  0  0  0  0  0
   22.0641   19.3173   22.1958 H   0  0  0  0  0  0  0  0  0  0  0  0
   21.5521   18.1975   23.4323 H   0  0  0  0  0  0  0  0  0  0  0  0
   20.7688   20.2146   23.6809 C   0  0  0  0  0  0  0  0  0  0  0  0
   21.6279   20.5179   24.2950 H   0  0  0  0  0  0  0  0  0  0  0  0
   20.5557   21.0777   23.0367 H   0  0  0  0  0  0  0  0  0  0  0  0
   19.5508   19.9761   24.6132 C   0  0  0  0  0  0  0  0  0  0  0  0
   18.6635   19.6882   24.0352 H   0  0  0  0  0  0  0  0  0  0  0  0
   19.3013   20.9479   25.0592 H   0  0  0  0  0  0  0  0  0  0  0  0
   19.8144   18.9652   25.7566 C   0  0  2  0  0  0  0  0  0  0  0  0
   20.8911   18.9384   25.9497 H   0  0  0  0  0  0  0  0  0  0  0  0
   19.3385   17.5446   25.4026 C   0  0  0  0  0  0  0  0  0  0  0  0
   18.2620   17.5285   25.1914 H   0  0  0  0  0  0  0  0  0  0  0  0
   19.8624   17.1478   24.5278 H   0  0  0  0  0  0  0  0  0  0  0  0
   19.5298   16.8560   26.2348 H   0  0  0  0  0  0  0  0  0  0  0  0
   19.1705   19.4071   27.0423 N   0  3  0  0  0  0  0  0  0  0  0  0
   19.5052   20.3303   27.3332 H   0  0  0  0  0  0  0  0  0  0  0  0
   19.3740   18.7552   27.8054 H   0  0  0  0  0  0  0  0  0  0  0  0
   18.1525   19.4624   26.9508 H   0  0  0  0  0  0  0  0  0  0  0  0
  1  2  1  0  0  0  0
  1  3  1  0  0  0  0
  1  4  1  0  0  0  0
  1  5  1  0  0  0  0
  5  6  1  0  0  0  0
  5  7  1  0  0  0  0
  5  8  1  0  0  0  0
  8  9  1  0  0  0  0
  8 10  1  0  0  0  0
  8 11  1  0  0  0  0
 11 12  1  0  0  0  0
 11 13  1  0  0  0  0
 11 14  1  0  0  0  0
 14 15  1  0  0  0  0
 14 16  1  0  0  0  0
 14 17  1  0  0  0  0
 17 18  1  0  0  0  0
 17 19  1  0  0  0  0
 17 20  1  0  0  0  0
 20 21  1  0  0  0  0
 20 22  1  0  0  0  0
 22 23  1  0  0  0  0
 22 24  1  0  0  0  0
 22 25  1  0  0  0  0
 20 26  1  0  0  0  0
 26 27  1  0  0  0  0
 26 28  1  0  0  0  0
 26 29  1  0  0  0  0
M  END
> <VM2 Rank>
152

> <Conf_Id>
339

> <Probability>
0.00

> <Sum Probability>
99.94

> <Delta G>
4.646

> <G>
38.348

> <E>
0.130

> <-TS>
38.218

> <U+W>
-24.015

> <U>
28.474

> <W>
-52.488

> <W(PB)>
-54.906

> <W(SA)>
2.418

> <Valence>
7.437

> <Coulomb>
20.128

> <VdW>
0.909

> <VdW6>
-11.079

> <VdW12>
11.988

> <Bond>
0.324

> <Angle>
2.509

> <Pdih>
4.604

> <Idih>
0.000

> <Tether>
0.000

$$$$
VeraChem MOL file


 29 28  0  0  0  0  0  0  0  0999 V2000     
   18.1575   18.8745   20.9694 C   0  0  0  0  0  0  0  0  0  0  0  0
   18.2704   17.9235   20.4330 H   0  0  0  0  0  0  0  0  0  0  0  0
   17.9926   18.6538   22.0308 H   0  0  0  0  0  0  0  0  0  0  0  0
   17.2539   19.3692   20.5904 H   0  0  0  0  0  0  0  0  0  0  0  0
   19.3948   19.7773   20.7650 C   0  0  0  0  0  0  0  0  0  0  0  0
   19.2691   20.7119   21.3276 H   0  0  0  0  0  0  0  0  0  0  0  0
   19.4479   20.0693   19.7069 H   0  0  0  0  0  0  0  0  0  0  0  0
   20.7295   19.0920   21.1539 C   0  0  0  0  0  0  0  0  0  0  0  0
   20.8907   18.2294   20.4928 H   0  0  0  0  0  0  0  0  0  0  0  0
   21.5562   19.7859   20.9484 H   0  0  0  0  0  0  0  0  0  0  0  0
   20.8260   18.6144   22.6259 C   0  0  0  0  0  0  0  0  0  0  0  0
   21.8042   18.1340   22.7647 H   0  0  0  0  0  0  0  0  0  0  0  0
   20.0814   17.8315   22.8060 H   0  0  0  0  0  0  0  0  0  0  0  0
   20.6794   19.7632   23.6570 C   0  0  0  0  0  0  0  0  0  0  0  0
   21.4100   20.5426   23.4002 H   0  0  0  0  0  0  0  0  0  0  0  0
   19.6928   20.2344   23.5719 H   0  0  0  0  0  0  0  0  0  0  0  0
   20.9405   19.3211   25.1244 C   0  0  0  0  0  0  0  0  0  0  0  0
   21.4133   20.1582   25.6547 H   0  0  0  0  0  0  0  0  0  0  0  0
   21.6823   18.5120   25.1453 H   0  0  0  0  0  0  0  0  0  0  0  0
   19.6969   18.8992   25.9458 C   0  0  2  0  0  0  0  0  0  0  0  0
   20.0524   18.6218   26.9430 H   0  0  0  0  0  0  0  0  0  0  0  0
   18.9749   17.6760   25.3591 C   0  0  0  0  0  0  0  0  0  0  0  0
   19.6813   16.8586   25.1686 H   0  0  0  0  0  0  0  0  0  0  0  0
   18.2186   17.3055   26.0618 H   0  0  0  0  0  0  0  0  0  0  0  0
   18.4641   17.9232   24.4216 H   0  0  0  0  0  0  0  0  0  0  0  0
   18.7365   20.0381   26.1536 N   0  3  0  0  0  0  0  0  0  0  0  0
   19.1949   20.8392   26.5973 H   0  0  0  0  0  0  0  0  0  0  0  0
   17.9542   19.7622   26.7540 H   0  0  0  0  0  0  0  0  0  0  0  0
   18.3440   20.3603   25.2657 H   0  0  0  0  0  0  0  0  0  0  0  0
  1  2  1  0  0  0  0
  1  3  1  0  0  0  0
  1  4  1  0  0  0  0
  1  5  1  0  0  0  0
  5  6  1  0  0  0  0
  5  7  1  0  0  0  0
  5  8  1  0  0  0  0
  8  9  1  0  0  0  0
  8 10  1  0  0  0  0
  8 11  1  0  0  0  0
 11 12  1  0  0  0  0
 11 13  1  0  0  0  0
 11 14  1  0  0  0  0
 14 15  1  0  0  0  0
 14 16  1  0  0  0  0
 14 17  1  0  0  0  0
 17 18  1  0  0  0  0
 17 19  1  0  0  0  0
 17 20  1  0  0  0  0
 20 21  1  0  0  0  0
 20 22  1  0  0  0  0
 22 23  1  0  0  0  0
 22 24  1  0  0  0  0
 22 25  1  0  0  0  0
 20 26  1  0  0  0  0
 26 27  1  0  0  0  0
 26 28  1  0  0  0  0
 26 29  1  0  0  0  0
M  END
> <VM2 Rank>
153

> <Conf_Id>
603

> <Probability>
0.00

> <Sum Probability>
99.95

> <Delta G>
4.673

> <G>
38.375

> <E>
0.080

> <-TS>
38.296

> <U+W>
-24.065

> <U>
28.758

> <W>
-52.823

> <W(PB)>
-55.197

> <W(SA)>
2.374

> <Valence>
7.223

> <Coulomb>
20.589

> <VdW>
0.946

> <VdW6>
-11.470

> <VdW12>
12.416

> <Bond>
0.372

> <Angle>
2.546

> <Pdih>
4.304

> <Idih>
0.000

> <Tether>
0.000

$$$$
VeraChem MOL file


 29 28  0  0  0  0  0  0  0  0999 V2000     
   18.2679   19.6426   19.9148 C   0  0  0  0  0  0  0  0  0  0  0  0
   18.4222   18.6819   19.4065 H   0  0  0  0  0  0  0  0  0  0  0  0
   17.3646   19.5611   20.5334 H   0  0  0  0  0  0  0  0  0  0  0  0
   18.0826   20.4044   19.1465 H   0  0  0  0  0  0  0  0  0  0  0  0
   19.4950   20.0200   20.7713 C   0  0  0  0  0  0  0  0  0  0  0  0
   19.3247   20.9996   21.2394 H   0  0  0  0  0  0  0  0  0  0  0  0
   20.3739   20.1285   20.1204 H   0  0  0  0  0  0  0  0  0  0  0  0
   19.7793   18.9615   21.8595 C   0  0  0  0  0  0  0  0  0  0  0  0
   18.8882   18.8457   22.4885 H   0  0  0  0  0  0  0  0  0  0  0  0
   19.9565   17.9871   21.3836 H   0  0  0  0  0  0  0  0  0  0  0  0
   21.0070   19.3413   22.7222 C   0  0  0  0  0  0  0  0  0  0  0  0
   20.8620   20.3231   23.1888 H   0  0  0  0  0  0  0  0  0  0  0  0
   21.8763   19.4595   22.0605 H   0  0  0  0  0  0  0  0  0  0  0  0
   21.3633   18.2834   23.7976 C   0  0  0  0  0  0  0  0  0  0  0  0
   21.6483   17.3526   23.2880 H   0  0  0  0  0  0  0  0  0  0  0  0
   22.2644   18.6165   24.3310 H   0  0  0  0  0  0  0  0  0  0  0  0
   20.2613   17.9513   24.8415 C   0  0  0  0  0  0  0  0  0  0  0  0
   20.6596   17.1523   25.4809 H   0  0  0  0  0  0  0  0  0  0  0  0
   19.3783   17.5211   24.3525 H   0  0  0  0  0  0  0  0  0  0  0  0
   19.8467   19.1385   25.7427 C   0  0  2  0  0  0  0  0  0  0  0  0
   20.7468   19.7056   25.9991 H   0  0  0  0  0  0  0  0  0  0  0  0
   19.2113   18.6275   27.0461 C   0  0  0  0  0  0  0  0  0  0  0  0
   19.9158   17.9979   27.6038 H   0  0  0  0  0  0  0  0  0  0  0  0
   18.9305   19.4654   27.6962 H   0  0  0  0  0  0  0  0  0  0  0  0
   18.3103   18.0352   26.8426 H   0  0  0  0  0  0  0  0  0  0  0  0
   18.9041   20.0898   25.0583 N   0  3  0  0  0  0  0  0  0  0  0  0
   18.0064   19.6408   24.8584 H   0  0  0  0  0  0  0  0  0  0  0  0
   19.2905   20.4175   24.1692 H   0  0  0  0  0  0  0  0  0  0  0  0
   18.7136   20.9111   25.6398 H   0  0  0  0  0  0  0  0  0  0  0  0
  1  2  1  0  0  0  0
  1  3  1  0  0  0  0
  1  4  1  0  0  0  0
  1  5  1  0  0  0  0
  5  6  1  0  0  0  0
  5  7  1  0  0  0  0
  5  8  1  0  0  0  0
  8  9  1  0  0  0  0
  8 10  1  0  0  0  0
  8 11  1  0  0  0  0
 11 12  1  0  0  0  0
 11 13  1  0  0  0  0
 11 14  1  0  0  0  0
 14 15  1  0  0  0  0
 14 16  1  0  0  0  0
 14 17  1  0  0  0  0
 17 18  1  0  0  0  0
 17 19  1  0  0  0  0
 17 20  1  0  0  0  0
 20 21  1  0  0  0  0
 20 22  1  0  0  0  0
 22 23  1  0  0  0  0
 22 24  1  0  0  0  0
 22 25  1  0  0  0  0
 20 26  1  0  0  0  0
 26 27  1  0  0  0  0
 26 28  1  0  0  0  0
 26 29  1  0  0  0  0
M  END
> <VM2 Rank>
154

> <Conf_Id>
980

> <Probability>
0.00

> <Sum Probability>
99.95

> <Delta G>
4.699

> <G>
38.402

> <E>
0.344

> <-TS>
38.058

> <U+W>
-23.801

> <U>
27.762

> <W>
-51.563

> <W(PB)>
-54.039

> <W(SA)>
2.477

> <Valence>
5.445

> <Coulomb>
21.562

> <VdW>
0.755

> <VdW6>
-10.491

> <VdW12>
11.245

> <Bond>
0.290

> <Angle>
2.160

> <Pdih>
2.995

> <Idih>
0.000

> <Tether>
0.000

$$$$
VeraChem MOL file


 29 28  0  0  0  0  0  0  0  0999 V2000     
   19.7064   20.8948   21.3177 C   0  0  0  0  0  0  0  0  0  0  0  0
   18.6385   21.1380   21.3904 H   0  0  0  0  0  0  0  0  0  0  0  0
   20.1210   20.8783   22.3310 H   0  0  0  0  0  0  0  0  0  0  0  0
   20.1975   21.7126   20.7748 H   0  0  0  0  0  0  0  0  0  0  0  0
   19.9195   19.5535   20.5782 C   0  0  0  0  0  0  0  0  0  0  0  0
   20.9924   19.3343   20.4875 H   0  0  0  0  0  0  0  0  0  0  0  0
   19.5486   19.6744   19.5507 H   0  0  0  0  0  0  0  0  0  0  0  0
   19.1779   18.3561   21.2273 C   0  0  0  0  0  0  0  0  0  0  0  0
   18.2408   18.6902   21.6912 H   0  0  0  0  0  0  0  0  0  0  0  0
   18.8714   17.6758   20.4208 H   0  0  0  0  0  0  0  0  0  0  0  0
   20.0254   17.5235   22.2275 C   0  0  0  0  0  0  0  0  0  0  0  0
   20.8904   17.1078   21.6925 H   0  0  0  0  0  0  0  0  0  0  0  0
   19.4329   16.6566   22.5511 H   0  0  0  0  0  0  0  0  0  0  0  0
   20.5368   18.2709   23.4843 C   0  0  0  0  0  0  0  0  0  0  0  0
   21.1635   17.5727   24.0539 H   0  0  0  0  0  0  0  0  0  0  0  0
   21.1998   19.0927   23.1864 H   0  0  0  0  0  0  0  0  0  0  0  0
   19.3985   18.7984   24.3962 C   0  0  0  0  0  0  0  0  0  0  0  0
   18.7860   17.9570   24.7459 H   0  0  0  0  0  0  0  0  0  0  0  0
   18.7337   19.4409   23.8071 H   0  0  0  0  0  0  0  0  0  0  0  0
   19.9020   19.6154   25.6079 C   0  0  2  0  0  0  0  0  0  0  0  0
   20.5497   20.4156   25.2368 H   0  0  0  0  0  0  0  0  0  0  0  0
   20.7085   18.7543   26.5966 C   0  0  0  0  0  0  0  0  0  0  0  0
   21.0022   19.3453   27.4728 H   0  0  0  0  0  0  0  0  0  0  0  0
   20.1209   17.8965   26.9465 H   0  0  0  0  0  0  0  0  0  0  0  0
   21.6296   18.3767   26.1382 H   0  0  0  0  0  0  0  0  0  0  0  0
   18.7610   20.2892   26.3183 N   0  3  0  0  0  0  0  0  0  0  0  0
   18.2354   20.9038   25.6900 H   0  0  0  0  0  0  0  0  0  0  0  0
   19.0934   20.8633   27.0985 H   0  0  0  0  0  0  0  0  0  0  0  0
   18.1032   19.6049   26.7014 H   0  0  0  0  0  0  0  0  0  0  0  0
  1  2  1  0  0  0  0
  1  3  1  0  0  0  0
  1  4  1  0  0  0  0
  1  5  1  0  0  0  0
  5  6  1  0  0  0  0
  5  7  1  0  0  0  0
  5  8  1  0  0  0  0
  8  9  1  0  0  0  0
  8 10  1  0  0  0  0
  8 11  1  0  0  0  0
 11 12  1  0  0  0  0
 11 13  1  0  0  0  0
 11 14  1  0  0  0  0
 14 15  1  0  0  0  0
 14 16  1  0  0  0  0
 14 17  1  0  0  0  0
 17 18  1  0  0  0  0
 17 19  1  0  0  0  0
 17 20  1  0  0  0  0
 20 21  1  0  0  0  0
 20 22  1  0  0  0  0
 22 23  1  0  0  0  0
 22 24  1  0  0  0  0
 22 25  1  0  0  0  0
 20 26  1  0  0  0  0
 26 27  1  0  0  0  0
 26 28  1  0  0  0  0
 26 29  1  0  0  0  0
M  END
> <VM2 Rank>
155

> <Conf_Id>
1348

> <Probability>
0.00

> <Sum Probability>
99.96

> <Delta G>
4.741

> <G>
38.443

> <E>
0.215

> <-TS>
38.228

> <U+W>
-23.929

> <U>
28.830

> <W>
-52.759

> <W(PB)>
-55.174

> <W(SA)>
2.415

> <Valence>
7.353

> <Coulomb>
20.480

> <VdW>
0.996

> <VdW6>
-11.026

> <VdW12>
12.023

> <Bond>
0.342

> <Angle>
2.651

> <Pdih>
4.359

> <Idih>
0.000

> <Tether>
0.000

$$$$
VeraChem MOL file


 29 28  0  0  0  0  0  0  0  0999 V2000     
   19.0692   19.7354   19.3829 C   0  0  0  0  0  0  0  0  0  0  0  0
   18.4134   20.5499   19.0486 H   0  0  0  0  0  0  0  0  0  0  0  0
   20.0615   19.8993   18.9428 H   0  0  0  0  0  0  0  0  0  0  0  0
   18.6687   18.7948   18.9829 H   0  0  0  0  0  0  0  0  0  0  0  0
   19.1462   19.6955   20.9237 C   0  0  0  0  0  0  0  0  0  0  0  0
   18.1361   19.5605   21.3351 H   0  0  0  0  0  0  0  0  0  0  0  0
   19.5121   20.6648   21.2875 H   0  0  0  0  0  0  0  0  0  0  0  0
   20.0688   18.5567   21.4187 C   0  0  0  0  0  0  0  0  0  0  0  0
   19.7278   17.6063   20.9854 H   0  0  0  0  0  0  0  0  0  0  0  0
   21.0890   18.7173   21.0437 H   0  0  0  0  0  0  0  0  0  0  0  0
   20.0985   18.4118   22.9598 C   0  0  0  0  0  0  0  0  0  0  0  0
   20.6938   17.5243   23.2149 H   0  0  0  0  0  0  0  0  0  0  0  0
   19.0781   18.2230   23.3147 H   0  0  0  0  0  0  0  0  0  0  0  0
   20.6927   19.6467   23.6804 C   0  0  0  0  0  0  0  0  0  0  0  0
   21.6205   19.9363   23.1680 H   0  0  0  0  0  0  0  0  0  0  0  0
   20.0159   20.5044   23.5762 H   0  0  0  0  0  0  0  0  0  0  0  0
   21.0321   19.4267   25.1820 C   0  0  0  0  0  0  0  0  0  0  0  0
   21.5005   20.3496   25.5485 H   0  0  0  0  0  0  0  0  0  0  0  0
   21.8072   18.6546   25.2755 H   0  0  0  0  0  0  0  0  0  0  0  0
   19.8562   19.0998   26.1388 C   0  0  2  0  0  0  0  0  0  0  0  0
   20.1730   19.4087   27.1398 H   0  0  0  0  0  0  0  0  0  0  0  0
   19.5598   17.5912   26.2250 C   0  0  0  0  0  0  0  0  0  0  0  0
   18.8196   17.3933   27.0099 H   0  0  0  0  0  0  0  0  0  0  0  0
   19.1642   17.1878   25.2883 H   0  0  0  0  0  0  0  0  0  0  0  0
   20.4673   17.0306   26.4811 H   0  0  0  0  0  0  0  0  0  0  0  0
   18.6125   19.8921   25.8428 N   0  3  0  0  0  0  0  0  0  0  0  0
   17.8713   19.6940   26.5211 H   0  0  0  0  0  0  0  0  0  0  0  0
   18.2499   19.6718   24.9119 H   0  0  0  0  0  0  0  0  0  0  0  0
   18.7959   20.8991   25.8730 H   0  0  0  0  0  0  0  0  0  0  0  0
  1  2  1  0  0  0  0
  1  3  1  0  0  0  0
  1  4  1  0  0  0  0
  1  5  1  0  0  0  0
  5  6  1  0  0  0  0
  5  7  1  0  0  0  0
  5  8  1  0  0  0  0
  8  9  1  0  0  0  0
  8 10  1  0  0  0  0
  8 11  1  0  0  0  0
 11 12  1  0  0  0  0
 11 13  1  0  0  0  0
 11 14  1  0  0  0  0
 14 15  1  0  0  0  0
 14 16  1  0  0  0  0
 14 17  1  0  0  0  0
 17 18  1  0  0  0  0
 17 19  1  0  0  0  0
 17 20  1  0  0  0  0
 20 21  1  0  0  0  0
 20 22  1  0  0  0  0
 22 23  1  0  0  0  0
 22 24  1  0  0  0  0
 22 25  1  0  0  0  0
 20 26  1  0  0  0  0
 26 27  1  0  0  0  0
 26 28  1  0  0  0  0
 26 29  1  0  0  0  0
M  END
> <VM2 Rank>
156

> <Conf_Id>
671

> <Probability>
0.00

> <Sum Probability>
99.96

> <Delta G>
4.782

> <G>
38.484

> <E>
0.472

> <-TS>
38.013

> <U+W>
-23.673

> <U>
28.749

> <W>
-52.422

> <W(PB)>
-54.870

> <W(SA)>
2.448

> <Valence>
6.743

> <Coulomb>
20.841

> <VdW>
1.165

> <VdW6>
-10.610

> <VdW12>
11.775

> <Bond>
0.335

> <Angle>
2.545

> <Pdih>
3.863

> <Idih>
0.000

> <Tether>
0.000

$$$$
VeraChem MOL file


 29 28  0  0  0  0  0  0  0  0999 V2000     
   19.2002   20.3517   20.4979 C   0  0  0  0  0  0  0  0  0  0  0  0
   18.9128   21.3961   20.3211 H   0  0  0  0  0  0  0  0  0  0  0  0
   19.6615   19.9696   19.5780 H   0  0  0  0  0  0  0  0  0  0  0  0
   18.2808   19.7826   20.6838 H   0  0  0  0  0  0  0  0  0  0  0  0
   20.1770   20.2534   21.6909 C   0  0  0  0  0  0  0  0  0  0  0  0
   19.6853   20.6260   22.5973 H   0  0  0  0  0  0  0  0  0  0  0  0
   21.0258   20.9273   21.5093 H   0  0  0  0  0  0  0  0  0  0  0  0
   20.7241   18.8214   21.9204 C   0  0  0  0  0  0  0  0  0  0  0  0
   21.2837   18.5152   21.0259 H   0  0  0  0  0  0  0  0  0  0  0  0
   21.4633   18.8361   22.7311 H   0  0  0  0  0  0  0  0  0  0  0  0
   19.6496   17.7424   22.2163 C   0  0  0  0  0  0  0  0  0  0  0  0
   20.1531   16.7740   22.3413 H   0  0  0  0  0  0  0  0  0  0  0  0
   19.0111   17.6229   21.3310 H   0  0  0  0  0  0  0  0  0  0  0  0
   18.7432   17.9967   23.4507 C   0  0  0  0  0  0  0  0  0  0  0  0
   18.1654   18.9201   23.3213 H   0  0  0  0  0  0  0  0  0  0  0  0
   17.9963   17.1911   23.4743 H   0  0  0  0  0  0  0  0  0  0  0  0
   19.4878   17.9862   24.8135 C   0  0  0  0  0  0  0  0  0  0  0  0
   20.2696   17.2155   24.7887 H   0  0  0  0  0  0  0  0  0  0  0  0
   18.7854   17.6749   25.5981 H   0  0  0  0  0  0  0  0  0  0  0  0
   20.1029   19.3431   25.2238 C   0  0  2  0  0  0  0  0  0  0  0  0
   20.7234   19.7123   24.4043 H   0  0  0  0  0  0  0  0  0  0  0  0
   20.9982   19.1712   26.4610 C   0  0  0  0  0  0  0  0  0  0  0  0
   21.8071   18.4576   26.2603 H   0  0  0  0  0  0  0  0  0  0  0  0
   21.4595   20.1258   26.7423 H   0  0  0  0  0  0  0  0  0  0  0  0
   20.4228   18.8030   27.3196 H   0  0  0  0  0  0  0  0  0  0  0  0
   19.0529   20.3900   25.4795 N   0  3  0  0  0  0  0  0  0  0  0  0
   18.4602   20.5353   24.6581 H   0  0  0  0  0  0  0  0  0  0  0  0
   19.4741   21.2916   25.7211 H   0  0  0  0  0  0  0  0  0  0  0  0
   18.4421   20.1207   26.2555 H   0  0  0  0  0  0  0  0  0  0  0  0
  1  2  1  0  0  0  0
  1  3  1  0  0  0  0
  1  4  1  0  0  0  0
  1  5  1  0  0  0  0
  5  6  1  0  0  0  0
  5  7  1  0  0  0  0
  5  8  1  0  0  0  0
  8  9  1  0  0  0  0
  8 10  1  0  0  0  0
  8 11  1  0  0  0  0
 11 12  1  0  0  0  0
 11 13  1  0  0  0  0
 11 14  1  0  0  0  0
 14 15  1  0  0  0  0
 14 16  1  0  0  0  0
 14 17  1  0  0  0  0
 17 18  1  0  0  0  0
 17 19  1  0  0  0  0
 17 20  1  0  0  0  0
 20 21  1  0  0  0  0
 20 22  1  0  0  0  0
 22 23  1  0  0  0  0
 22 24  1  0  0  0  0
 22 25  1  0  0  0  0
 20 26  1  0  0  0  0
 26 27  1  0  0  0  0
 26 28  1  0  0  0  0
 26 29  1  0  0  0  0
M  END
> <VM2 Rank>
157

> <Conf_Id>
1365

> <Probability>
0.00

> <Sum Probability>
99.96

> <Delta G>
4.786

> <G>
38.488

> <E>
-0.164

> <-TS>
38.652

> <U+W>
-24.308

> <U>
28.627

> <W>
-52.936

> <W(PB)>
-55.335

> <W(SA)>
2.399

> <Valence>
6.751

> <Coulomb>
21.512

> <VdW>
0.364

> <VdW6>
-12.196

> <VdW12>
12.561

> <Bond>
0.349

> <Angle>
2.626

> <Pdih>
3.776

> <Idih>
0.000

> <Tether>
0.000

$$$$
VeraChem MOL file


 29 28  0  0  0  0  0  0  0  0999 V2000     
   18.3815   19.9343   20.8097 C   0  0  0  0  0  0  0  0  0  0  0  0
   18.2069   19.4165   19.8576 H   0  0  0  0  0  0  0  0  0  0  0  0
   17.9216   19.3405   21.6085 H   0  0  0  0  0  0  0  0  0  0  0  0
   17.8577   20.8980   20.7681 H   0  0  0  0  0  0  0  0  0  0  0  0
   19.8930   20.1493   21.0518 C   0  0  0  0  0  0  0  0  0  0  0  0
   20.0561   20.6930   21.9911 H   0  0  0  0  0  0  0  0  0  0  0  0
   20.2834   20.8028   20.2592 H   0  0  0  0  0  0  0  0  0  0  0  0
   20.7067   18.8323   21.0459 C   0  0  0  0  0  0  0  0  0  0  0  0
   20.5744   18.3439   20.0707 H   0  0  0  0  0  0  0  0  0  0  0  0
   21.7757   19.0774   21.1119 H   0  0  0  0  0  0  0  0  0  0  0  0
   20.3573   17.8112   22.1621 C   0  0  0  0  0  0  0  0  0  0  0  0
   20.9525   16.9075   21.9710 H   0  0  0  0  0  0  0  0  0  0  0  0
   19.3106   17.4894   22.0829 H   0  0  0  0  0  0  0  0  0  0  0  0
   20.6744   18.2911   23.6031 C   0  0  0  0  0  0  0  0  0  0  0  0
   21.0354   17.4250   24.1729 H   0  0  0  0  0  0  0  0  0  0  0  0
   21.5030   19.0124   23.5864 H   0  0  0  0  0  0  0  0  0  0  0  0
   19.4502   18.8939   24.3403 C   0  0  0  0  0  0  0  0  0  0  0  0
   18.6728   18.1262   24.4499 H   0  0  0  0  0  0  0  0  0  0  0  0
   19.0115   19.6884   23.7280 H   0  0  0  0  0  0  0  0  0  0  0  0
   19.7903   19.4883   25.7261 C   0  0  2  0  0  0  0  0  0  0  0  0
   20.5951   20.2187   25.5978 H   0  0  0  0  0  0  0  0  0  0  0  0
   20.2624   18.4130   26.7212 C   0  0  0  0  0  0  0  0  0  0  0  0
   20.4413   18.8535   27.7097 H   0  0  0  0  0  0  0  0  0  0  0  0
   19.5131   17.6194   26.8331 H   0  0  0  0  0  0  0  0  0  0  0  0
   21.2036   17.9546   26.3966 H   0  0  0  0  0  0  0  0  0  0  0  0
   18.6202   20.2426   26.2939 N   0  3  0  0  0  0  0  0  0  0  0  0
   18.3160   20.9941   25.6681 H   0  0  0  0  0  0  0  0  0  0  0  0
   18.8535   20.6716   27.1940 H   0  0  0  0  0  0  0  0  0  0  0  0
   17.8176   19.6264   26.4484 H   0  0  0  0  0  0  0  0  0  0  0  0
  1  2  1  0  0  0  0
  1  3  1  0  0  0  0
  1  4  1  0  0  0  0
  1  5  1  0  0  0  0
  5  6  1  0  0  0  0
  5  7  1  0  0  0  0
  5  8  1  0  0  0  0
  8  9  1  0  0  0  0
  8 10  1  0  0  0  0
  8 11  1  0  0  0  0
 11 12  1  0  0  0  0
 11 13  1  0  0  0  0
 11 14  1  0  0  0  0
 14 15  1  0  0  0  0
 14 16  1  0  0  0  0
 14 17  1  0  0  0  0
 17 18  1  0  0  0  0
 17 19  1  0  0  0  0
 17 20  1  0  0  0  0
 20 21  1  0  0  0  0
 20 22  1  0  0  0  0
 22 23  1  0  0  0  0
 22 24  1  0  0  0  0
 22 25  1  0  0  0  0
 20 26  1  0  0  0  0
 26 27  1  0  0  0  0
 26 28  1  0  0  0  0
 26 29  1  0  0  0  0
M  END
> <VM2 Rank>
158

> <Conf_Id>
142

> <Probability>
0.00

> <Sum Probability>
99.97

> <Delta G>
4.796

> <G>
38.498

> <E>
0.265

> <-TS>
38.233

> <U+W>
-23.879

> <U>
28.814

> <W>
-52.693

> <W(PB)>
-55.133

> <W(SA)>
2.440

> <Valence>
7.405

> <Coulomb>
20.332

> <VdW>
1.077

> <VdW6>
-10.782

> <VdW12>
11.859

> <Bond>
0.335

> <Angle>
2.433

> <Pdih>
4.638

> <Idih>
0.000

> <Tether>
0.000

$$$$
VeraChem MOL file


 29 28  0  0  0  0  0  0  0  0999 V2000     
   18.9262   20.3917   19.8914 C   0  0  0  0  0  0  0  0  0  0  0  0
   19.8913   20.5730   19.4006 H   0  0  0  0  0  0  0  0  0  0  0  0
   18.1712   20.2482   19.1076 H   0  0  0  0  0  0  0  0  0  0  0  0
   18.6564   21.2921   20.4585 H   0  0  0  0  0  0  0  0  0  0  0  0
   18.9965   19.1557   20.8128 C   0  0  0  0  0  0  0  0  0  0  0  0
   19.2334   18.2664   20.2120 H   0  0  0  0  0  0  0  0  0  0  0  0
   18.0092   18.9804   21.2625 H   0  0  0  0  0  0  0  0  0  0  0  0
   20.0546   19.3312   21.9241 C   0  0  0  0  0  0  0  0  0  0  0  0
   21.0398   19.4985   21.4673 H   0  0  0  0  0  0  0  0  0  0  0  0
   19.8206   20.2326   22.5034 H   0  0  0  0  0  0  0  0  0  0  0  0
   20.1230   18.0943   22.8517 C   0  0  0  0  0  0  0  0  0  0  0  0
   20.3524   17.2106   22.2402 H   0  0  0  0  0  0  0  0  0  0  0  0
   19.1417   17.8941   23.2979 H   0  0  0  0  0  0  0  0  0  0  0  0
   21.2026   18.2074   23.9580 C   0  0  0  0  0  0  0  0  0  0  0  0
   21.2370   17.2629   24.5174 H   0  0  0  0  0  0  0  0  0  0  0  0
   22.1854   18.2908   23.4739 H   0  0  0  0  0  0  0  0  0  0  0  0
   21.0513   19.3929   24.9561 C   0  0  0  0  0  0  0  0  0  0  0  0
   21.1708   20.3452   24.4245 H   0  0  0  0  0  0  0  0  0  0  0  0
   21.8996   19.3479   25.6516 H   0  0  0  0  0  0  0  0  0  0  0  0
   19.7573   19.4445   25.8085 C   0  0  2  0  0  0  0  0  0  0  0  0
   19.9214   20.1940   26.5890 H   0  0  0  0  0  0  0  0  0  0  0  0
   19.4640   18.1084   26.5127 C   0  0  0  0  0  0  0  0  0  0  0  0
   19.1942   17.3233   25.7963 H   0  0  0  0  0  0  0  0  0  0  0  0
   20.3381   17.7694   27.0823 H   0  0  0  0  0  0  0  0  0  0  0  0
   18.6308   18.2204   27.2171 H   0  0  0  0  0  0  0  0  0  0  0  0
   18.5606   19.9300   25.0387 N   0  3  0  0  0  0  0  0  0  0  0  0
   17.7247   19.9632   25.6295 H   0  0  0  0  0  0  0  0  0  0  0  0
   18.3596   19.3164   24.2458 H   0  0  0  0  0  0  0  0  0  0  0  0
   18.7120   20.8728   24.6693 H   0  0  0  0  0  0  0  0  0  0  0  0
  1  2  1  0  0  0  0
  1  3  1  0  0  0  0
  1  4  1  0  0  0  0
  1  5  1  0  0  0  0
  5  6  1  0  0  0  0
  5  7  1  0  0  0  0
  5  8  1  0  0  0  0
  8  9  1  0  0  0  0
  8 10  1  0  0  0  0
  8 11  1  0  0  0  0
 11 12  1  0  0  0  0
 11 13  1  0  0  0  0
 11 14  1  0  0  0  0
 14 15  1  0  0  0  0
 14 16  1  0  0  0  0
 14 17  1  0  0  0  0
 17 18  1  0  0  0  0
 17 19  1  0  0  0  0
 17 20  1  0  0  0  0
 20 21  1  0  0  0  0
 20 22  1  0  0  0  0
 22 23  1  0  0  0  0
 22 24  1  0  0  0  0
 22 25  1  0  0  0  0
 20 26  1  0  0  0  0
 26 27  1  0  0  0  0
 26 28  1  0  0  0  0
 26 29  1  0  0  0  0
M  END
> <VM2 Rank>
159

> <Conf_Id>
661

> <Probability>
0.00

> <Sum Probability>
99.97

> <Delta G>
4.822

> <G>
38.524

> <E>
0.044

> <-TS>
38.481

> <U+W>
-24.101

> <U>
28.029

> <W>
-52.130

> <W(PB)>
-54.543

> <W(SA)>
2.413

> <Valence>
5.577

> <Coulomb>
21.811

> <VdW>
0.641

> <VdW6>
-11.463

> <VdW12>
12.103

> <Bond>
0.349

> <Angle>
2.654

> <Pdih>
2.574

> <Idih>
0.000

> <Tether>
0.000

$$$$
VeraChem MOL file


 29 28  0  0  0  0  0  0  0  0999 V2000     
   20.1154   18.7018   19.4450 C   0  0  0  0  0  0  0  0  0  0  0  0
   20.9679   18.1652   19.8794 H   0  0  0  0  0  0  0  0  0  0  0  0
   19.7862   18.1379   18.5627 H   0  0  0  0  0  0  0  0  0  0  0  0
   20.4645   19.6851   19.1039 H   0  0  0  0  0  0  0  0  0  0  0  0
   18.9574   18.8442   20.4585 C   0  0  0  0  0  0  0  0  0  0  0  0
   18.6489   17.8495   20.8095 H   0  0  0  0  0  0  0  0  0  0  0  0
   18.0865   19.2715   19.9421 H   0  0  0  0  0  0  0  0  0  0  0  0
   19.3048   19.7421   21.6705 C   0  0  0  0  0  0  0  0  0  0  0  0
   19.5949   20.7401   21.3143 H   0  0  0  0  0  0  0  0  0  0  0  0
   18.3927   19.8822   22.2642 H   0  0  0  0  0  0  0  0  0  0  0  0
   20.4299   19.1609   22.5647 C   0  0  0  0  0  0  0  0  0  0  0  0
   21.3536   19.0891   21.9761 H   0  0  0  0  0  0  0  0  0  0  0  0
   20.1734   18.1367   22.8612 H   0  0  0  0  0  0  0  0  0  0  0  0
   20.7248   20.0308   23.8144 C   0  0  0  0  0  0  0  0  0  0  0  0
   21.6986   19.7480   24.2376 H   0  0  0  0  0  0  0  0  0  0  0  0
   20.8398   21.0743   23.4899 H   0  0  0  0  0  0  0  0  0  0  0  0
   19.6405   19.9635   24.9255 C   0  0  0  0  0  0  0  0  0  0  0  0
   18.6570   19.7296   24.5009 H   0  0  0  0  0  0  0  0  0  0  0  0
   19.5465   20.9670   25.3610 H   0  0  0  0  0  0  0  0  0  0  0  0
   19.9597   18.9828   26.0791 C   0  0  2  0  0  0  0  0  0  0  0  0
   20.9256   19.2650   26.5090 H   0  0  0  0  0  0  0  0  0  0  0  0
   20.0516   17.5215   25.6083 C   0  0  0  0  0  0  0  0  0  0  0  0
   19.1363   17.2131   25.0880 H   0  0  0  0  0  0  0  0  0  0  0  0
   20.9021   17.3790   24.9318 H   0  0  0  0  0  0  0  0  0  0  0  0
   20.2019   16.8487   26.4616 H   0  0  0  0  0  0  0  0  0  0  0  0
   18.9520   19.1084   27.1879 N   0  3  0  0  0  0  0  0  0  0  0  0
   18.0126   18.8553   26.8697 H   0  0  0  0  0  0  0  0  0  0  0  0
   18.9072   20.0652   27.5503 H   0  0  0  0  0  0  0  0  0  0  0  0
   19.1836   18.4952   27.9747 H   0  0  0  0  0  0  0  0  0  0  0  0
  1  2  1  0  0  0  0
  1  3  1  0  0  0  0
  1  4  1  0  0  0  0
  1  5  1  0  0  0  0
  5  6  1  0  0  0  0
  5  7  1  0  0  0  0
  5  8  1  0  0  0  0
  8  9  1  0  0  0  0
  8 10  1  0  0  0  0
  8 11  1  0  0  0  0
 11 12  1  0  0  0  0
 11 13  1  0  0  0  0
 11 14  1  0  0  0  0
 14 15  1  0  0  0  0
 14 16  1  0  0  0  0
 14 17  1  0  0  0  0
 17 18  1  0  0  0  0
 17 19  1  0  0  0  0
 17 20  1  0  0  0  0
 20 21  1  0  0  0  0
 20 22  1  0  0  0  0
 22 23  1  0  0  0  0
 22 24  1  0  0  0  0
 22 25  1  0  0  0  0
 20 26  1  0  0  0  0
 26 27  1  0  0  0  0
 26 28  1  0  0  0  0
 26 29  1  0  0  0  0
M  END
> <VM2 Rank>
160

> <Conf_Id>
155

> <Probability>
0.00

> <Sum Probability>
99.97

> <Delta G>
4.839

> <G>
38.541

> <E>
0.669

> <-TS>
37.873

> <U+W>
-23.476

> <U>
28.780

> <W>
-52.256

> <W(PB)>
-54.715

> <W(SA)>
2.459

> <Valence>
7.565

> <Coulomb>
19.822

> <VdW>
1.392

> <VdW6>
-10.248

> <VdW12>
11.640

> <Bond>
0.340

> <Angle>
2.098

> <Pdih>
5.127

> <Idih>
0.000

> <Tether>
0.000

$$$$
VeraChem MOL file


 29 28  0  0  0  0  0  0  0  0999 V2000     
   19.0431   18.9013   19.5357 C   0  0  0  0  0  0  0  0  0  0  0  0
   19.0780   18.3057   18.6143 H   0  0  0  0  0  0  0  0  0  0  0  0
   18.1346   18.6139   20.0791 H   0  0  0  0  0  0  0  0  0  0  0  0
   18.9541   19.9574   19.2496 H   0  0  0  0  0  0  0  0  0  0  0  0
   20.3127   18.6603   20.3834 C   0  0  0  0  0  0  0  0  0  0  0  0
   21.1962   18.8407   19.7551 H   0  0  0  0  0  0  0  0  0  0  0  0
   20.3608   17.6047   20.6853 H   0  0  0  0  0  0  0  0  0  0  0  0
   20.4011   19.5670   21.6348 C   0  0  0  0  0  0  0  0  0  0  0  0
   21.3838   19.4136   22.0976 H   0  0  0  0  0  0  0  0  0  0  0  0
   20.3688   20.6206   21.3253 H   0  0  0  0  0  0  0  0  0  0  0  0
   19.2822   19.2944   22.6727 C   0  0  0  0  0  0  0  0  0  0  0  0
   19.2700   18.2291   22.9315 H   0  0  0  0  0  0  0  0  0  0  0  0
   18.3089   19.5088   22.2126 H   0  0  0  0  0  0  0  0  0  0  0  0
   19.4069   20.1649   23.9505 C   0  0  0  0  0  0  0  0  0  0  0  0
   19.5430   21.2103   23.6410 H   0  0  0  0  0  0  0  0  0  0  0  0
   18.4541   20.1459   24.4949 H   0  0  0  0  0  0  0  0  0  0  0  0
   20.5713   19.7698   24.9053 C   0  0  0  0  0  0  0  0  0  0  0  0
   20.9736   20.6877   25.3534 H   0  0  0  0  0  0  0  0  0  0  0  0
   21.4048   19.3379   24.3393 H   0  0  0  0  0  0  0  0  0  0  0  0
   20.2016   18.8119   26.0648 C   0  0  2  0  0  0  0  0  0  0  0  0
   21.1183   18.6270   26.6332 H   0  0  0  0  0  0  0  0  0  0  0  0
   19.6821   17.4516   25.5722 C   0  0  0  0  0  0  0  0  0  0  0  0
   18.7012   17.5463   25.0914 H   0  0  0  0  0  0  0  0  0  0  0  0
   20.3808   17.0038   24.8547 H   0  0  0  0  0  0  0  0  0  0  0  0
   19.5763   16.7548   26.4126 H   0  0  0  0  0  0  0  0  0  0  0  0
   19.2350   19.4349   27.0346 N   0  3  0  0  0  0  0  0  0  0  0  0
   19.5963   20.3162   27.4108 H   0  0  0  0  0  0  0  0  0  0  0  0
   19.0513   18.8156   27.8291 H   0  0  0  0  0  0  0  0  0  0  0  0
   18.3371   19.6359   26.5878 H   0  0  0  0  0  0  0  0  0  0  0  0
  1  2  1  0  0  0  0
  1  3  1  0  0  0  0
  1  4  1  0  0  0  0
  1  5  1  0  0  0  0
  5  6  1  0  0  0  0
  5  7  1  0  0  0  0
  5  8  1  0  0  0  0
  8  9  1  0  0  0  0
  8 10  1  0  0  0  0
  8 11  1  0  0  0  0
 11 12  1  0  0  0  0
 11 13  1  0  0  0  0
 11 14  1  0  0  0  0
 14 15  1  0  0  0  0
 14 16  1  0  0  0  0
 14 17  1  0  0  0  0
 17 18  1  0  0  0  0
 17 19  1  0  0  0  0
 17 20  1  0  0  0  0
 20 21  1  0  0  0  0
 20 22  1  0  0  0  0
 22 23  1  0  0  0  0
 22 24  1  0  0  0  0
 22 25  1  0  0  0  0
 20 26  1  0  0  0  0
 26 27  1  0  0  0  0
 26 28  1  0  0  0  0
 26 29  1  0  0  0  0
M  END
> <VM2 Rank>
161

> <Conf_Id>
157

> <Probability>
0.00

> <Sum Probability>
99.97

> <Delta G>
4.852

> <G>
38.555

> <E>
0.644

> <-TS>
37.911

> <U+W>
-23.501

> <U>
28.852

> <W>
-52.353

> <W(PB)>
-54.783

> <W(SA)>
2.430

> <Valence>
7.579

> <Coulomb>
19.889

> <VdW>
1.385

> <VdW6>
-10.700

> <VdW12>
12.085

> <Bond>
0.383

> <Angle>
2.313

> <Pdih>
4.883

> <Idih>
0.000

> <Tether>
0.000

$$$$
VeraChem MOL file


 29 28  0  0  0  0  0  0  0  0999 V2000     
   20.5487   20.4439   20.7002 C   0  0  0  0  0  0  0  0  0  0  0  0
   20.5819   21.5371   20.6072 H   0  0  0  0  0  0  0  0  0  0  0  0
   21.3152   20.1490   21.4266 H   0  0  0  0  0  0  0  0  0  0  0  0
   20.8202   20.0162   19.7264 H   0  0  0  0  0  0  0  0  0  0  0  0
   19.1393   19.9797   21.1333 C   0  0  0  0  0  0  0  0  0  0  0  0
   18.4081   20.3607   20.4068 H   0  0  0  0  0  0  0  0  0  0  0  0
   18.8662   20.4335   22.0942 H   0  0  0  0  0  0  0  0  0  0  0  0
   18.9985   18.4398   21.2082 C   0  0  0  0  0  0  0  0  0  0  0  0
   17.9492   18.1910   21.4179 H   0  0  0  0  0  0  0  0  0  0  0  0
   19.2096   18.0208   20.2147 H   0  0  0  0  0  0  0  0  0  0  0  0
   19.9009   17.7232   22.2488 C   0  0  0  0  0  0  0  0  0  0  0  0
   20.9627   17.8894   22.0241 H   0  0  0  0  0  0  0  0  0  0  0  0
   19.7448   16.6430   22.1221 H   0  0  0  0  0  0  0  0  0  0  0  0
   19.5928   18.0757   23.7279 C   0  0  0  0  0  0  0  0  0  0  0  0
   18.5338   18.3457   23.8314 H   0  0  0  0  0  0  0  0  0  0  0  0
   19.7352   17.1659   24.3257 H   0  0  0  0  0  0  0  0  0  0  0  0
   20.5072   19.1925   24.3025 C   0  0  0  0  0  0  0  0  0  0  0  0
   20.4382   20.0917   23.6819 H   0  0  0  0  0  0  0  0  0  0  0  0
   21.5542   18.8676   24.2408 H   0  0  0  0  0  0  0  0  0  0  0  0
   20.1998   19.5960   25.7639 C   0  0  2  0  0  0  0  0  0  0  0  0
   20.8934   20.3990   26.0318 H   0  0  0  0  0  0  0  0  0  0  0  0
   20.4304   18.4360   26.7480 C   0  0  0  0  0  0  0  0  0  0  0  0
   20.3412   18.7882   27.7830 H   0  0  0  0  0  0  0  0  0  0  0  0
   19.6999   17.6309   26.6048 H   0  0  0  0  0  0  0  0  0  0  0  0
   21.4359   18.0147   26.6257 H   0  0  0  0  0  0  0  0  0  0  0  0
   18.8184   20.1692   25.9212 N   0  3  0  0  0  0  0  0  0  0  0  0
   18.6731   20.9733   25.3042 H   0  0  0  0  0  0  0  0  0  0  0  0
   18.6520   20.4852   26.8809 H   0  0  0  0  0  0  0  0  0  0  0  0
   18.1015   19.4745   25.6978 H   0  0  0  0  0  0  0  0  0  0  0  0
  1  2  1  0  0  0  0
  1  3  1  0  0  0  0
  1  4  1  0  0  0  0
  1  5  1  0  0  0  0
  5  6  1  0  0  0  0
  5  7  1  0  0  0  0
  5  8  1  0  0  0  0
  8  9  1  0  0  0  0
  8 10  1  0  0  0  0
  8 11  1  0  0  0  0
 11 12  1  0  0  0  0
 11 13  1  0  0  0  0
 11 14  1  0  0  0  0
 14 15  1  0  0  0  0
 14 16  1  0  0  0  0
 14 17  1  0  0  0  0
 17 18  1  0  0  0  0
 17 19  1  0  0  0  0
 17 20  1  0  0  0  0
 20 21  1  0  0  0  0
 20 22  1  0  0  0  0
 22 23  1  0  0  0  0
 22 24  1  0  0  0  0
 22 25  1  0  0  0  0
 20 26  1  0  0  0  0
 26 27  1  0  0  0  0
 26 28  1  0  0  0  0
 26 29  1  0  0  0  0
M  END
> <VM2 Rank>
162

> <Conf_Id>
305

> <Probability>
0.00

> <Sum Probability>
99.98

> <Delta G>
4.933

> <G>
38.635

> <E>
0.283

> <-TS>
38.352

> <U+W>
-23.862

> <U>
28.974

> <W>
-52.835

> <W(PB)>
-55.217

> <W(SA)>
2.382

> <Valence>
7.347

> <Coulomb>
20.625

> <VdW>
1.002

> <VdW6>
-11.327

> <VdW12>
12.329

> <Bond>
0.364

> <Angle>
2.516

> <Pdih>
4.467

> <Idih>
0.000

> <Tether>
0.000

$$$$
VeraChem MOL file


 29 28  0  0  0  0  0  0  0  0999 V2000     
   18.3966   19.6214   20.7608 C   0  0  0  0  0  0  0  0  0  0  0  0
   17.8968   19.5214   19.7887 H   0  0  0  0  0  0  0  0  0  0  0  0
   18.0009   18.8362   21.4129 H   0  0  0  0  0  0  0  0  0  0  0  0
   18.1116   20.5937   21.1828 H   0  0  0  0  0  0  0  0  0  0  0  0
   19.9297   19.5188   20.5893 C   0  0  0  0  0  0  0  0  0  0  0  0
   20.2330   20.2667   19.8434 H   0  0  0  0  0  0  0  0  0  0  0  0
   20.2002   18.5425   20.1640 H   0  0  0  0  0  0  0  0  0  0  0  0
   20.7308   19.7800   21.8914 C   0  0  0  0  0  0  0  0  0  0  0  0
   21.6904   20.2316   21.6039 H   0  0  0  0  0  0  0  0  0  0  0  0
   20.2290   20.5378   22.5071 H   0  0  0  0  0  0  0  0  0  0  0  0
   21.0583   18.5130   22.7270 C   0  0  0  0  0  0  0  0  0  0  0  0
   21.7763   18.7889   23.5108 H   0  0  0  0  0  0  0  0  0  0  0  0
   21.5896   17.7943   22.0880 H   0  0  0  0  0  0  0  0  0  0  0  0
   19.8503   17.7954   23.3830 C   0  0  0  0  0  0  0  0  0  0  0  0
   19.2067   17.3740   22.6012 H   0  0  0  0  0  0  0  0  0  0  0  0
   20.2207   16.9261   23.9422 H   0  0  0  0  0  0  0  0  0  0  0  0
   18.9998   18.6862   24.3285 C   0  0  0  0  0  0  0  0  0  0  0  0
   18.2071   18.0737   24.7778 H   0  0  0  0  0  0  0  0  0  0  0  0
   18.4858   19.4490   23.7313 H   0  0  0  0  0  0  0  0  0  0  0  0
   19.7980   19.3912   25.4498 C   0  0  2  0  0  0  0  0  0  0  0  0
   20.5943   19.9813   24.9866 H   0  0  0  0  0  0  0  0  0  0  0  0
   20.4387   18.3852   26.4224 C   0  0  0  0  0  0  0  0  0  0  0  0
   19.6805   17.7356   26.8773 H   0  0  0  0  0  0  0  0  0  0  0  0
   21.1728   17.7507   25.9122 H   0  0  0  0  0  0  0  0  0  0  0  0
   20.9662   18.9093   27.2287 H   0  0  0  0  0  0  0  0  0  0  0  0
   18.9337   20.3648   26.2017 N   0  3  0  0  0  0  0  0  0  0  0  0
   18.1586   19.8899   26.6722 H   0  0  0  0  0  0  0  0  0  0  0  0
   18.5302   21.0705   25.5789 H   0  0  0  0  0  0  0  0  0  0  0  0
   19.4683   20.8618   26.9200 H   0  0  0  0  0  0  0  0  0  0  0  0
  1  2  1  0  0  0  0
  1  3  1  0  0  0  0
  1  4  1  0  0  0  0
  1  5  1  0  0  0  0
  5  6  1  0  0  0  0
  5  7  1  0  0  0  0
  5  8  1  0  0  0  0
  8  9  1  0  0  0  0
  8 10  1  0  0  0  0
  8 11  1  0  0  0  0
 11 12  1  0  0  0  0
 11 13  1  0  0  0  0
 11 14  1  0  0  0  0
 14 15  1  0  0  0  0
 14 16  1  0  0  0  0
 14 17  1  0  0  0  0
 17 18  1  0  0  0  0
 17 19  1  0  0  0  0
 17 20  1  0  0  0  0
 20 21  1  0  0  0  0
 20 22  1  0  0  0  0
 22 23  1  0  0  0  0
 22 24  1  0  0  0  0
 22 25  1  0  0  0  0
 20 26  1  0  0  0  0
 26 27  1  0  0  0  0
 26 28  1  0  0  0  0
 26 29  1  0  0  0  0
M  END
> <VM2 Rank>
163

> <Conf_Id>
1043

> <Probability>
0.00

> <Sum Probability>
99.98

> <Delta G>
4.980

> <G>
38.682

> <E>
0.090

> <-TS>
38.593

> <U+W>
-24.055

> <U>
28.920

> <W>
-52.975

> <W(PB)>
-55.346

> <W(SA)>
2.370

> <Valence>
7.503

> <Coulomb>
20.758

> <VdW>
0.660

> <VdW6>
-12.102

> <VdW12>
12.762

> <Bond>
0.368

> <Angle>
2.904

> <Pdih>
4.231

> <Idih>
0.000

> <Tether>
0.000

$$$$
VeraChem MOL file


 29 28  0  0  0  0  0  0  0  0999 V2000     
   20.8469   20.5731   21.2844 C   0  0  0  0  0  0  0  0  0  0  0  0
   20.3421   20.9295   20.3771 H   0  0  0  0  0  0  0  0  0  0  0  0
   20.4363   21.1191   22.1418 H   0  0  0  0  0  0  0  0  0  0  0  0
   21.9085   20.8405   21.2030 H   0  0  0  0  0  0  0  0  0  0  0  0
   20.6871   19.0437   21.4439 C   0  0  0  0  0  0  0  0  0  0  0  0
   21.1898   18.7140   22.3592 H   0  0  0  0  0  0  0  0  0  0  0  0
   21.2225   18.5531   20.6191 H   0  0  0  0  0  0  0  0  0  0  0  0
   19.2111   18.5672   21.4140 C   0  0  0  0  0  0  0  0  0  0  0  0
   18.7707   18.9032   20.4651 H   0  0  0  0  0  0  0  0  0  0  0  0
   19.1823   17.4696   21.3770 H   0  0  0  0  0  0  0  0  0  0  0  0
   18.3069   19.0673   22.5746 C   0  0  0  0  0  0  0  0  0  0  0  0
   17.2787   19.1172   22.1904 H   0  0  0  0  0  0  0  0  0  0  0  0
   18.5537   20.0981   22.8533 H   0  0  0  0  0  0  0  0  0  0  0  0
   18.2748   18.1508   23.8279 C   0  0  0  0  0  0  0  0  0  0  0  0
   17.5052   18.5273   24.5150 H   0  0  0  0  0  0  0  0  0  0  0  0
   17.9342   17.1498   23.5297 H   0  0  0  0  0  0  0  0  0  0  0  0
   19.6119   18.0111   24.5997 C   0  0  0  0  0  0  0  0  0  0  0  0
   20.3221   17.4428   23.9870 H   0  0  0  0  0  0  0  0  0  0  0  0
   19.4416   17.4006   25.4964 H   0  0  0  0  0  0  0  0  0  0  0  0
   20.2425   19.3585   25.0152 C   0  0  2  0  0  0  0  0  0  0  0  0
   20.3936   19.9596   24.1141 H   0  0  0  0  0  0  0  0  0  0  0  0
   21.6116   19.1298   25.6740 C   0  0  0  0  0  0  0  0  0  0  0  0
   21.5168   18.5326   26.5896 H   0  0  0  0  0  0  0  0  0  0  0  0
   22.2895   18.6030   24.9909 H   0  0  0  0  0  0  0  0  0  0  0  0
   22.0806   20.0860   25.9364 H   0  0  0  0  0  0  0  0  0  0  0  0
   19.3432   20.1545   25.9204 N   0  3  0  0  0  0  0  0  0  0  0  0
   18.4393   20.3382   25.4765 H   0  0  0  0  0  0  0  0  0  0  0  0
   19.7587   21.0587   26.1620 H   0  0  0  0  0  0  0  0  0  0  0  0
   19.1614   19.6564   26.7958 H   0  0  0  0  0  0  0  0  0  0  0  0
  1  2  1  0  0  0  0
  1  3  1  0  0  0  0
  1  4  1  0  0  0  0
  1  5  1  0  0  0  0
  5  6  1  0  0  0  0
  5  7  1  0  0  0  0
  5  8  1  0  0  0  0
  8  9  1  0  0  0  0
  8 10  1  0  0  0  0
  8 11  1  0  0  0  0
 11 12  1  0  0  0  0
 11 13  1  0  0  0  0
 11 14  1  0  0  0  0
 14 15  1  0  0  0  0
 14 16  1  0  0  0  0
 14 17  1  0  0  0  0
 17 18  1  0  0  0  0
 17 19  1  0  0  0  0
 17 20  1  0  0  0  0
 20 21  1  0  0  0  0
 20 22  1  0  0  0  0
 22 23  1  0  0  0  0
 22 24  1  0  0  0  0
 22 25  1  0  0  0  0
 20 26  1  0  0  0  0
 26 27  1  0  0  0  0
 26 28  1  0  0  0  0
 26 29  1  0  0  0  0
M  END
> <VM2 Rank>
164

> <Conf_Id>
200

> <Probability>
0.00

> <Sum Probability>
99.98

> <Delta G>
4.993

> <G>
38.695

> <E>
0.028

> <-TS>
38.668

> <U+W>
-24.117

> <U>
28.386

> <W>
-52.503

> <W(PB)>
-54.864

> <W(SA)>
2.361

> <Valence>
7.169

> <Coulomb>
20.924

> <VdW>
0.293

> <VdW6>
-12.437

> <VdW12>
12.730

> <Bond>
0.372

> <Angle>
2.824

> <Pdih>
3.974

> <Idih>
0.000

> <Tether>
0.000

$$$$
VeraChem MOL file


 29 28  0  0  0  0  0  0  0  0999 V2000     
   19.4944   19.5162   19.1422 C   0  0  0  0  0  0  0  0  0  0  0  0
   20.2902   19.5338   18.3862 H   0  0  0  0  0  0  0  0  0  0  0  0
   18.7563   18.7632   18.8367 H   0  0  0  0  0  0  0  0  0  0  0  0
   19.0033   20.4981   19.1378 H   0  0  0  0  0  0  0  0  0  0  0  0
   20.0738   19.1928   20.5356 C   0  0  0  0  0  0  0  0  0  0  0  0
   20.8362   19.9421   20.7852 H   0  0  0  0  0  0  0  0  0  0  0  0
   20.5829   18.2194   20.5008 H   0  0  0  0  0  0  0  0  0  0  0  0
   18.9695   19.1663   21.6190 C   0  0  0  0  0  0  0  0  0  0  0  0
   18.4959   20.1550   21.6920 H   0  0  0  0  0  0  0  0  0  0  0  0
   18.1808   18.4702   21.3016 H   0  0  0  0  0  0  0  0  0  0  0  0
   19.4750   18.7257   23.0151 C   0  0  0  0  0  0  0  0  0  0  0  0
   19.9816   17.7542   22.9334 H   0  0  0  0  0  0  0  0  0  0  0  0
   18.5949   18.5711   23.6497 H   0  0  0  0  0  0  0  0  0  0  0  0
   20.4147   19.7573   23.6875 C   0  0  0  0  0  0  0  0  0  0  0  0
   21.2396   19.9927   23.0039 H   0  0  0  0  0  0  0  0  0  0  0  0
   19.8764   20.7026   23.8376 H   0  0  0  0  0  0  0  0  0  0  0  0
   21.0512   19.2883   25.0271 C   0  0  0  0  0  0  0  0  0  0  0  0
   21.7276   20.0856   25.3618 H   0  0  0  0  0  0  0  0  0  0  0  0
   21.6992   18.4213   24.8423 H   0  0  0  0  0  0  0  0  0  0  0  0
   20.0933   18.9781   26.2066 C   0  0  2  0  0  0  0  0  0  0  0  0
   20.6676   19.1351   27.1249 H   0  0  0  0  0  0  0  0  0  0  0  0
   19.6371   17.5073   26.2296 C   0  0  0  0  0  0  0  0  0  0  0  0
   19.0588   17.3018   27.1387 H   0  0  0  0  0  0  0  0  0  0  0  0
   19.0097   17.2485   25.3717 H   0  0  0  0  0  0  0  0  0  0  0  0
   20.5025   16.8331   26.2324 H   0  0  0  0  0  0  0  0  0  0  0  0
   18.9269   19.9240   26.2912 N   0  3  0  0  0  0  0  0  0  0  0  0
   18.3410   19.7256   27.1073 H   0  0  0  0  0  0  0  0  0  0  0  0
   18.3360   19.8545   25.4591 H   0  0  0  0  0  0  0  0  0  0  0  0
   19.2401   20.8960   26.3668 H   0  0  0  0  0  0  0  0  0  0  0  0
  1  2  1  0  0  0  0
  1  3  1  0  0  0  0
  1  4  1  0  0  0  0
  1  5  1  0  0  0  0
  5  6  1  0  0  0  0
  5  7  1  0  0  0  0
  5  8  1  0  0  0  0
  8  9  1  0  0  0  0
  8 10  1  0  0  0  0
  8 11  1  0  0  0  0
 11 12  1  0  0  0  0
 11 13  1  0  0  0  0
 11 14  1  0  0  0  0
 14 15  1  0  0  0  0
 14 16  1  0  0  0  0
 14 17  1  0  0  0  0
 17 18  1  0  0  0  0
 17 19  1  0  0  0  0
 17 20  1  0  0  0  0
 20 21  1  0  0  0  0
 20 22  1  0  0  0  0
 22 23  1  0  0  0  0
 22 24  1  0  0  0  0
 22 25  1  0  0  0  0
 20 26  1  0  0  0  0
 26 27  1  0  0  0  0
 26 28  1  0  0  0  0
 26 29  1  0  0  0  0
M  END
> <VM2 Rank>
165

> <Conf_Id>
673

> <Probability>
0.00

> <Sum Probability>
99.98

> <Delta G>
5.032

> <G>
38.734

> <E>
0.815

> <-TS>
37.920

> <U+W>
-23.330

> <U>
28.836

> <W>
-52.165

> <W(PB)>
-54.630

> <W(SA)>
2.465

> <Valence>
6.993

> <Coulomb>
20.553

> <VdW>
1.290

> <VdW6>
-10.457

> <VdW12>
11.747

> <Bond>
0.348

> <Angle>
2.717

> <Pdih>
3.928

> <Idih>
0.000

> <Tether>
0.000

$$$$
VeraChem MOL file


 29 28  0  0  0  0  0  0  0  0999 V2000     
   18.2989   18.5353   20.7151 C   0  0  0  0  0  0  0  0  0  0  0  0
   18.2123   17.5869   21.2609 H   0  0  0  0  0  0  0  0  0  0  0  0
   17.7340   19.3004   21.2616 H   0  0  0  0  0  0  0  0  0  0  0  0
   17.8167   18.4048   19.7376 H   0  0  0  0  0  0  0  0  0  0  0  0
   19.7797   18.9406   20.5369 C   0  0  0  0  0  0  0  0  0  0  0  0
   19.8397   19.9019   20.0078 H   0  0  0  0  0  0  0  0  0  0  0  0
   20.2731   18.2021   19.8898 H   0  0  0  0  0  0  0  0  0  0  0  0
   20.5559   19.0278   21.8726 C   0  0  0  0  0  0  0  0  0  0  0  0
   20.4976   18.0592   22.3846 H   0  0  0  0  0  0  0  0  0  0  0  0
   21.6185   19.1950   21.6495 H   0  0  0  0  0  0  0  0  0  0  0  0
   20.0532   20.1618   22.8014 C   0  0  0  0  0  0  0  0  0  0  0  0
   19.0062   20.0027   23.0800 H   0  0  0  0  0  0  0  0  0  0  0  0
   20.0692   21.1068   22.2411 H   0  0  0  0  0  0  0  0  0  0  0  0
   20.9158   20.3411   24.0754 C   0  0  0  0  0  0  0  0  0  0  0  0
   21.9314   20.6212   23.7633 H   0  0  0  0  0  0  0  0  0  0  0  0
   20.5417   21.2055   24.6399 H   0  0  0  0  0  0  0  0  0  0  0  0
   21.0260   19.1098   25.0229 C   0  0  0  0  0  0  0  0  0  0  0  0
   21.7207   19.3864   25.8267 H   0  0  0  0  0  0  0  0  0  0  0  0
   21.5147   18.2750   24.5051 H   0  0  0  0  0  0  0  0  0  0  0  0
   19.7243   18.6138   25.7058 C   0  0  2  0  0  0  0  0  0  0  0  0
   20.0319   18.0858   26.6136 H   0  0  0  0  0  0  0  0  0  0  0  0
   18.9486   17.5921   24.8547 C   0  0  0  0  0  0  0  0  0  0  0  0
   19.6014   16.7665   24.5460 H   0  0  0  0  0  0  0  0  0  0  0  0
   18.1259   17.1595   25.4369 H   0  0  0  0  0  0  0  0  0  0  0  0
   18.5158   18.0399   23.9556 H   0  0  0  0  0  0  0  0  0  0  0  0
   18.8337   19.7335   26.1692 N   0  3  0  0  0  0  0  0  0  0  0  0
   18.5019   20.2901   25.3777 H   0  0  0  0  0  0  0  0  0  0  0  0
   19.3287   20.3650   26.8054 H   0  0  0  0  0  0  0  0  0  0  0  0
   18.0120   19.3780   26.6662 H   0  0  0  0  0  0  0  0  0  0  0  0
  1  2  1  0  0  0  0
  1  3  1  0  0  0  0
  1  4  1  0  0  0  0
  1  5  1  0  0  0  0
  5  6  1  0  0  0  0
  5  7  1  0  0  0  0
  5  8  1  0  0  0  0
  8  9  1  0  0  0  0
  8 10  1  0  0  0  0
  8 11  1  0  0  0  0
 11 12  1  0  0  0  0
 11 13  1  0  0  0  0
 11 14  1  0  0  0  0
 14 15  1  0  0  0  0
 14 16  1  0  0  0  0
 14 17  1  0  0  0  0
 17 18  1  0  0  0  0
 17 19  1  0  0  0  0
 17 20  1  0  0  0  0
 20 21  1  0  0  0  0
 20 22  1  0  0  0  0
 22 23  1  0  0  0  0
 22 24  1  0  0  0  0
 22 25  1  0  0  0  0
 20 26  1  0  0  0  0
 26 27  1  0  0  0  0
 26 28  1  0  0  0  0
 26 29  1  0  0  0  0
M  END
> <VM2 Rank>
166

> <Conf_Id>
132

> <Probability>
0.00

> <Sum Probability>
99.99

> <Delta G>
5.120

> <G>
38.822

> <E>
0.158

> <-TS>
38.664

> <U+W>
-23.987

> <U>
28.728

> <W>
-52.715

> <W(PB)>
-55.059

> <W(SA)>
2.345

> <Valence>
7.346

> <Coulomb>
20.700

> <VdW>
0.681

> <VdW6>
-12.201

> <VdW12>
12.882

> <Bond>
0.393

> <Angle>
3.198

> <Pdih>
3.755

> <Idih>
0.000

> <Tether>
0.000

$$$$
VeraChem MOL file


 29 28  0  0  0  0  0  0  0  0999 V2000     
   20.6737   18.7243   19.7782 C   0  0  0  0  0  0  0  0  0  0  0  0
   21.0610   19.4107   19.0140 H   0  0  0  0  0  0  0  0  0  0  0  0
   21.5256   18.1786   20.2044 H   0  0  0  0  0  0  0  0  0  0  0  0
   20.0182   17.9991   19.2784 H   0  0  0  0  0  0  0  0  0  0  0  0
   19.9102   19.5012   20.8714 C   0  0  0  0  0  0  0  0  0  0  0  0
   19.0834   20.0604   20.4118 H   0  0  0  0  0  0  0  0  0  0  0  0
   20.5857   20.2418   21.3199 H   0  0  0  0  0  0  0  0  0  0  0  0
   19.3576   18.5546   21.9625 C   0  0  0  0  0  0  0  0  0  0  0  0
   18.7415   17.7810   21.4839 H   0  0  0  0  0  0  0  0  0  0  0  0
   20.1888   18.0239   22.4430 H   0  0  0  0  0  0  0  0  0  0  0  0
   18.4930   19.2764   23.0286 C   0  0  0  0  0  0  0  0  0  0  0  0
   18.0676   18.5364   23.7165 H   0  0  0  0  0  0  0  0  0  0  0  0
   17.6278   19.7304   22.5262 H   0  0  0  0  0  0  0  0  0  0  0  0
   19.2230   20.3812   23.8364 C   0  0  0  0  0  0  0  0  0  0  0  0
   19.4776   21.2013   23.1522 H   0  0  0  0  0  0  0  0  0  0  0  0
   18.5154   20.8245   24.5493 H   0  0  0  0  0  0  0  0  0  0  0  0
   20.5205   19.9568   24.5861 C   0  0  0  0  0  0  0  0  0  0  0  0
   20.9597   20.8708   25.0066 H   0  0  0  0  0  0  0  0  0  0  0  0
   21.2683   19.5885   23.8726 H   0  0  0  0  0  0  0  0  0  0  0  0
   20.3727   18.9517   25.7585 C   0  0  2  0  0  0  0  0  0  0  0  0
   21.2468   19.0945   26.4014 H   0  0  0  0  0  0  0  0  0  0  0  0
   20.4072   17.4821   25.3031 C   0  0  0  0  0  0  0  0  0  0  0  0
   21.2930   17.2854   24.6868 H   0  0  0  0  0  0  0  0  0  0  0  0
   20.4586   16.8162   26.1731 H   0  0  0  0  0  0  0  0  0  0  0  0
   19.5196   17.2037   24.7275 H   0  0  0  0  0  0  0  0  0  0  0  0
   19.1782   19.2277   26.6293 N   0  3  0  0  0  0  0  0  0  0  0  0
   18.3076   19.1187   26.1032 H   0  0  0  0  0  0  0  0  0  0  0  0
   19.1984   20.1822   26.9996 H   0  0  0  0  0  0  0  0  0  0  0  0
   19.1406   18.5883   27.4282 H   0  0  0  0  0  0  0  0  0  0  0  0
  1  2  1  0  0  0  0
  1  3  1  0  0  0  0
  1  4  1  0  0  0  0
  1  5  1  0  0  0  0
  5  6  1  0  0  0  0
  5  7  1  0  0  0  0
  5  8  1  0  0  0  0
  8  9  1  0  0  0  0
  8 10  1  0  0  0  0
  8 11  1  0  0  0  0
 11 12  1  0  0  0  0
 11 13  1  0  0  0  0
 11 14  1  0  0  0  0
 14 15  1  0  0  0  0
 14 16  1  0  0  0  0
 14 17  1  0  0  0  0
 17 18  1  0  0  0  0
 17 19  1  0  0  0  0
 17 20  1  0  0  0  0
 20 21  1  0  0  0  0
 20 22  1  0  0  0  0
 22 23  1  0  0  0  0
 22 24  1  0  0  0  0
 22 25  1  0  0  0  0
 20 26  1  0  0  0  0
 26 27  1  0  0  0  0
 26 28  1  0  0  0  0
 26 29  1  0  0  0  0
M  END
> <VM2 Rank>
167

> <Conf_Id>
654

> <Probability>
0.00

> <Sum Probability>
99.99

> <Delta G>
5.237

> <G>
38.939

> <E>
0.260

> <-TS>
38.679

> <U+W>
-23.885

> <U>
28.683

> <W>
-52.568

> <W(PB)>
-54.935

> <W(SA)>
2.367

> <Valence>
7.341

> <Coulomb>
20.552

> <VdW>
0.790

> <VdW6>
-12.015

> <VdW12>
12.805

> <Bond>
0.401

> <Angle>
3.355

> <Pdih>
3.585

> <Idih>
0.000

> <Tether>
0.000

$$$$
VeraChem MOL file


 29 28  0  0  0  0  0  0  0  0999 V2000     
   20.0150   19.8031   19.7917 C   0  0  0  0  0  0  0  0  0  0  0  0
   19.6291   20.5860   19.1262 H   0  0  0  0  0  0  0  0  0  0  0  0
   20.9170   20.1960   20.2772 H   0  0  0  0  0  0  0  0  0  0  0  0
   20.3052   18.9462   19.1701 H   0  0  0  0  0  0  0  0  0  0  0  0
   18.9440   19.3977   20.8293 C   0  0  0  0  0  0  0  0  0  0  0  0
   18.0274   19.1087   20.2966 H   0  0  0  0  0  0  0  0  0  0  0  0
   18.6730   20.2667   21.4439 H   0  0  0  0  0  0  0  0  0  0  0  0
   19.3821   18.2185   21.7340 C   0  0  0  0  0  0  0  0  0  0  0  0
   18.5491   17.9479   22.3953 H   0  0  0  0  0  0  0  0  0  0  0  0
   19.5500   17.3346   21.1034 H   0  0  0  0  0  0  0  0  0  0  0  0
   20.6606   18.4685   22.5799 C   0  0  0  0  0  0  0  0  0  0  0  0
   21.5239   18.5318   21.9042 H   0  0  0  0  0  0  0  0  0  0  0  0
   20.8453   17.5817   23.1965 H   0  0  0  0  0  0  0  0  0  0  0  0
   20.6418   19.7435   23.4698 C   0  0  0  0  0  0  0  0  0  0  0  0
   21.6164   19.8556   23.9645 H   0  0  0  0  0  0  0  0  0  0  0  0
   20.5536   20.6206   22.8155 H   0  0  0  0  0  0  0  0  0  0  0  0
   19.5132   19.8082   24.5367 C   0  0  0  0  0  0  0  0  0  0  0  0
   18.6072   19.3028   24.1840 H   0  0  0  0  0  0  0  0  0  0  0  0
   19.2321   20.8633   24.6519 H   0  0  0  0  0  0  0  0  0  0  0  0
   19.9015   19.2835   25.9400 C   0  0  2  0  0  0  0  0  0  0  0  0
   20.7673   19.8539   26.2901 H   0  0  0  0  0  0  0  0  0  0  0  0
   20.2776   17.7928   25.9415 C   0  0  0  0  0  0  0  0  0  0  0  0
   19.4963   17.1839   25.4698 H   0  0  0  0  0  0  0  0  0  0  0  0
   21.2212   17.6275   25.4099 H   0  0  0  0  0  0  0  0  0  0  0  0
   20.4209   17.4300   26.9668 H   0  0  0  0  0  0  0  0  0  0  0  0
   18.8002   19.5401   26.9310 N   0  3  0  0  0  0  0  0  0  0  0  0
   18.5640   20.5353   26.9831 H   0  0  0  0  0  0  0  0  0  0  0  0
   19.0680   19.2410   27.8730 H   0  0  0  0  0  0  0  0  0  0  0  0
   17.9468   19.0335   26.6805 H   0  0  0  0  0  0  0  0  0  0  0  0
  1  2  1  0  0  0  0
  1  3  1  0  0  0  0
  1  4  1  0  0  0  0
  1  5  1  0  0  0  0
  5  6  1  0  0  0  0
  5  7  1  0  0  0  0
  5  8  1  0  0  0  0
  8  9  1  0  0  0  0
  8 10  1  0  0  0  0
  8 11  1  0  0  0  0
 11 12  1  0  0  0  0
 11 13  1  0  0  0  0
 11 14  1  0  0  0  0
 14 15  1  0  0  0  0
 14 16  1  0  0  0  0
 14 17  1  0  0  0  0
 17 18  1  0  0  0  0
 17 19  1  0  0  0  0
 17 20  1  0  0  0  0
 20 21  1  0  0  0  0
 20 22  1  0  0  0  0
 22 23  1  0  0  0  0
 22 24  1  0  0  0  0
 22 25  1  0  0  0  0
 20 26  1  0  0  0  0
 26 27  1  0  0  0  0
 26 28  1  0  0  0  0
 26 29  1  0  0  0  0
M  END
> <VM2 Rank>
168

> <Conf_Id>
117

> <Probability>
0.00

> <Sum Probability>
99.99

> <Delta G>
5.296

> <G>
38.998

> <E>
0.830

> <-TS>
38.168

> <U+W>
-23.315

> <U>
29.271

> <W>
-52.585

> <W(PB)>
-54.988

> <W(SA)>
2.403

> <Valence>
7.971

> <Coulomb>
20.084

> <VdW>
1.216

> <VdW6>
-11.598

> <VdW12>
12.815

> <Bond>
0.421

> <Angle>
3.122

> <Pdih>
4.428

> <Idih>
0.000

> <Tether>
0.000

$$$$
VeraChem MOL file


 29 28  0  0  0  0  0  0  0  0999 V2000     
   19.4659   20.0169   19.6995 C   0  0  0  0  0  0  0  0  0  0  0  0
   20.2842   20.6888   19.9864 H   0  0  0  0  0  0  0  0  0  0  0  0
   19.8978   19.1455   19.1904 H   0  0  0  0  0  0  0  0  0  0  0  0
   18.8389   20.5522   18.9748 H   0  0  0  0  0  0  0  0  0  0  0  0
   18.6281   19.5859   20.9245 C   0  0  0  0  0  0  0  0  0  0  0  0
   17.7525   19.0228   20.5724 H   0  0  0  0  0  0  0  0  0  0  0  0
   18.2355   20.4766   21.4345 H   0  0  0  0  0  0  0  0  0  0  0  0
   19.4113   18.7066   21.9290 C   0  0  0  0  0  0  0  0  0  0  0  0
   18.7068   18.3502   22.6902 H   0  0  0  0  0  0  0  0  0  0  0  0
   19.7849   17.8097   21.4160 H   0  0  0  0  0  0  0  0  0  0  0  0
   20.5945   19.4468   22.6034 C   0  0  0  0  0  0  0  0  0  0  0  0
   20.2564   20.3896   23.0499 H   0  0  0  0  0  0  0  0  0  0  0  0
   21.3209   19.7338   21.8318 H   0  0  0  0  0  0  0  0  0  0  0  0
   21.3453   18.5923   23.6568 C   0  0  0  0  0  0  0  0  0  0  0  0
   21.7908   17.7261   23.1485 H   0  0  0  0  0  0  0  0  0  0  0  0
   22.1923   19.1780   24.0401 H   0  0  0  0  0  0  0  0  0  0  0  0
   20.5132   18.0771   24.8638 C   0  0  0  0  0  0  0  0  0  0  0  0
   21.1892   17.4687   25.4793 H   0  0  0  0  0  0  0  0  0  0  0  0
   19.7258   17.3899   24.5299 H   0  0  0  0  0  0  0  0  0  0  0  0
   19.9082   19.1891   25.7530 C   0  0  2  0  0  0  0  0  0  0  0  0
   20.6443   19.9935   25.8453 H   0  0  0  0  0  0  0  0  0  0  0  0
   19.6062   18.6480   27.1600 C   0  0  0  0  0  0  0  0  0  0  0  0
   20.5203   18.2784   27.6412 H   0  0  0  0  0  0  0  0  0  0  0  0
   19.1918   19.4373   27.7993 H   0  0  0  0  0  0  0  0  0  0  0  0
   18.8828   17.8238   27.1213 H   0  0  0  0  0  0  0  0  0  0  0  0
   18.6633   19.7932   25.1639 N   0  3  0  0  0  0  0  0  0  0  0  0
   17.9039   19.1083   25.1226 H   0  0  0  0  0  0  0  0  0  0  0  0
   18.8304   20.1272   24.2111 H   0  0  0  0  0  0  0  0  0  0  0  0
   18.3316   20.5858   25.7215 H   0  0  0  0  0  0  0  0  0  0  0  0
  1  2  1  0  0  0  0
  1  3  1  0  0  0  0
  1  4  1  0  0  0  0
  1  5  1  0  0  0  0
  5  6  1  0  0  0  0
  5  7  1  0  0  0  0
  5  8  1  0  0  0  0
  8  9  1  0  0  0  0
  8 10  1  0  0  0  0
  8 11  1  0  0  0  0
 11 12  1  0  0  0  0
 11 13  1  0  0  0  0
 11 14  1  0  0  0  0
 14 15  1  0  0  0  0
 14 16  1  0  0  0  0
 14 17  1  0  0  0  0
 17 18  1  0  0  0  0
 17 19  1  0  0  0  0
 17 20  1  0  0  0  0
 20 21  1  0  0  0  0
 20 22  1  0  0  0  0
 22 23  1  0  0  0  0
 22 24  1  0  0  0  0
 22 25  1  0  0  0  0
 20 26  1  0  0  0  0
 26 27  1  0  0  0  0
 26 28  1  0  0  0  0
 26 29  1  0  0  0  0
M  END
> <VM2 Rank>
169

> <Conf_Id>
1163

> <Probability>
0.00

> <Sum Probability>
99.99

> <Delta G>
5.472

> <G>
39.174

> <E>
0.988

> <-TS>
38.186

> <U+W>
-23.157

> <U>
28.491

> <W>
-51.648

> <W(PB)>
-54.089

> <W(SA)>
2.441

> <Valence>
6.023

> <Coulomb>
21.518

> <VdW>
0.950

> <VdW6>
-11.102

> <VdW12>
12.052

> <Bond>
0.333

> <Angle>
2.459

> <Pdih>
3.230

> <Idih>
0.000

> <Tether>
0.000

$$$$
VeraChem MOL file


 29 28  0  0  0  0  0  0  0  0999 V2000     
   19.0963   19.0066   19.7717 C   0  0  0  0  0  0  0  0  0  0  0  0
   20.0682   19.1988   19.2990 H   0  0  0  0  0  0  0  0  0  0  0  0
   19.0588   17.9503   20.0653 H   0  0  0  0  0  0  0  0  0  0  0  0
   18.3175   19.1659   19.0147 H   0  0  0  0  0  0  0  0  0  0  0  0
   18.8726   19.9413   20.9820 C   0  0  0  0  0  0  0  0  0  0  0  0
   17.9097   19.7065   21.4562 H   0  0  0  0  0  0  0  0  0  0  0  0
   18.7920   20.9754   20.6188 H   0  0  0  0  0  0  0  0  0  0  0  0
   20.0071   19.8723   22.0326 C   0  0  0  0  0  0  0  0  0  0  0  0
   20.9634   20.1271   21.5555 H   0  0  0  0  0  0  0  0  0  0  0  0
   19.8242   20.6510   22.7827 H   0  0  0  0  0  0  0  0  0  0  0  0
   20.1252   18.4888   22.7213 C   0  0  0  0  0  0  0  0  0  0  0  0
   20.3791   17.7348   21.9648 H   0  0  0  0  0  0  0  0  0  0  0  0
   19.1563   18.1793   23.1300 H   0  0  0  0  0  0  0  0  0  0  0  0
   21.2157   18.4336   23.8219 C   0  0  0  0  0  0  0  0  0  0  0  0
   21.2893   17.4030   24.1940 H   0  0  0  0  0  0  0  0  0  0  0  0
   22.1883   18.6411   23.3550 H   0  0  0  0  0  0  0  0  0  0  0  0
   21.0393   19.4030   25.0279 C   0  0  0  0  0  0  0  0  0  0  0  0
   21.1323   20.4421   24.6885 H   0  0  0  0  0  0  0  0  0  0  0  0
   21.8920   19.2481   25.7019 H   0  0  0  0  0  0  0  0  0  0  0  0
   19.7488   19.2577   25.8745 C   0  0  2  0  0  0  0  0  0  0  0  0
   19.8965   19.8501   26.7827 H   0  0  0  0  0  0  0  0  0  0  0  0
   19.4946   17.8049   26.3129 C   0  0  0  0  0  0  0  0  0  0  0  0
   20.3797   17.3888   26.8099 H   0  0  0  0  0  0  0  0  0  0  0  0
   18.6611   17.7588   27.0244 H   0  0  0  0  0  0  0  0  0  0  0  0
   19.2442   17.1620   25.4608 H   0  0  0  0  0  0  0  0  0  0  0  0
   18.5364   19.8478   25.2093 N   0  3  0  0  0  0  0  0  0  0  0  0
   18.3506   19.3915   24.3132 H   0  0  0  0  0  0  0  0  0  0  0  0
   18.6607   20.8476   25.0270 H   0  0  0  0  0  0  0  0  0  0  0  0
   17.7018   19.7442   25.7937 H   0  0  0  0  0  0  0  0  0  0  0  0
  1  2  1  0  0  0  0
  1  3  1  0  0  0  0
  1  4  1  0  0  0  0
  1  5  1  0  0  0  0
  5  6  1  0  0  0  0
  5  7  1  0  0  0  0
  5  8  1  0  0  0  0
  8  9  1  0  0  0  0
  8 10  1  0  0  0  0
  8 11  1  0  0  0  0
 11 12  1  0  0  0  0
 11 13  1  0  0  0  0
 11 14  1  0  0  0  0
 14 15  1  0  0  0  0
 14 16  1  0  0  0  0
 14 17  1  0  0  0  0
 17 18  1  0  0  0  0
 17 19  1  0  0  0  0
 17 20  1  0  0  0  0
 20 21  1  0  0  0  0
 20 22  1  0  0  0  0
 22 23  1  0  0  0  0
 22 24  1  0  0  0  0
 22 25  1  0  0  0  0
 20 26  1  0  0  0  0
 26 27  1  0  0  0  0
 26 28  1  0  0  0  0
 26 29  1  0  0  0  0
M  END
> <VM2 Rank>
170

> <Conf_Id>
862

> <Probability>
0.00

> <Sum Probability>
99.99

> <Delta G>
5.589

> <G>
39.291

> <E>
0.689

> <-TS>
38.602

> <U+W>
-23.455

> <U>
28.745

> <W>
-52.201

> <W(PB)>
-54.565

> <W(SA)>
2.364

> <Valence>
6.147

> <Coulomb>
21.776

> <VdW>
0.823

> <VdW6>
-12.079

> <VdW12>
12.901

> <Bond>
0.393

> <Angle>
2.949

> <Pdih>
2.805

> <Idih>
0.000

> <Tether>
0.000

$$$$
VeraChem MOL file


 29 28  0  0  0  0  0  0  0  0999 V2000     
   19.8760   19.0717   19.8411 C   0  0  0  0  0  0  0  0  0  0  0  0
   18.8641   18.9537   19.4325 H   0  0  0  0  0  0  0  0  0  0  0  0
   20.5315   19.4033   19.0255 H   0  0  0  0  0  0  0  0  0  0  0  0
   20.2310   18.0875   20.1710 H   0  0  0  0  0  0  0  0  0  0  0  0
   19.8913   20.0960   20.9981 C   0  0  0  0  0  0  0  0  0  0  0  0
   19.6415   21.0874   20.5953 H   0  0  0  0  0  0  0  0  0  0  0  0
   20.9086   20.1831   21.4023 H   0  0  0  0  0  0  0  0  0  0  0  0
   18.8912   19.7585   22.1329 C   0  0  0  0  0  0  0  0  0  0  0  0
   18.9214   20.5643   22.8764 H   0  0  0  0  0  0  0  0  0  0  0  0
   17.8727   19.7736   21.7213 H   0  0  0  0  0  0  0  0  0  0  0  0
   19.1233   18.3906   22.8305 C   0  0  0  0  0  0  0  0  0  0  0  0
   18.9574   17.5865   22.1014 H   0  0  0  0  0  0  0  0  0  0  0  0
   18.3535   18.2359   23.5956 H   0  0  0  0  0  0  0  0  0  0  0  0
   20.5292   18.2007   23.4591 C   0  0  0  0  0  0  0  0  0  0  0  0
   20.5892   17.1949   23.8950 H   0  0  0  0  0  0  0  0  0  0  0  0
   21.2764   18.2018   22.6547 H   0  0  0  0  0  0  0  0  0  0  0  0
   20.9563   19.2541   24.5229 C   0  0  0  0  0  0  0  0  0  0  0  0
   20.9958   20.2505   24.0654 H   0  0  0  0  0  0  0  0  0  0  0  0
   21.9923   19.0307   24.8097 H   0  0  0  0  0  0  0  0  0  0  0  0
   20.1225   19.3249   25.8282 C   0  0  2  0  0  0  0  0  0  0  0  0
   20.6824   19.9535   26.5275 H   0  0  0  0  0  0  0  0  0  0  0  0
   19.9485   17.9472   26.4905 C   0  0  0  0  0  0  0  0  0  0  0  0
   19.4905   18.0528   27.4815 H   0  0  0  0  0  0  0  0  0  0  0  0
   19.3060   17.2894   25.8930 H   0  0  0  0  0  0  0  0  0  0  0  0
   20.9194   17.4539   26.6232 H   0  0  0  0  0  0  0  0  0  0  0  0
   18.7977   20.0123   25.6506 N   0  3  0  0  0  0  0  0  0  0  0  0
   18.2120   19.5129   24.9778 H   0  0  0  0  0  0  0  0  0  0  0  0
   18.9170   20.9697   25.3082 H   0  0  0  0  0  0  0  0  0  0  0  0
   18.2830   20.0646   26.5344 H   0  0  0  0  0  0  0  0  0  0  0  0
  1  2  1  0  0  0  0
  1  3  1  0  0  0  0
  1  4  1  0  0  0  0
  1  5  1  0  0  0  0
  5  6  1  0  0  0  0
  5  7  1  0  0  0  0
  5  8  1  0  0  0  0
  8  9  1  0  0  0  0
  8 10  1  0  0  0  0
  8 11  1  0  0  0  0
 11 12  1  0  0  0  0
 11 13  1  0  0  0  0
 11 14  1  0  0  0  0
 14 15  1  0  0  0  0
 14 16  1  0  0  0  0
 14 17  1  0  0  0  0
 17 18  1  0  0  0  0
 17 19  1  0  0  0  0
 17 20  1  0  0  0  0
 20 21  1  0  0  0  0
 20 22  1  0  0  0  0
 22 23  1  0  0  0  0
 22 24  1  0  0  0  0
 22 25  1  0  0  0  0
 20 26  1  0  0  0  0
 26 27  1  0  0  0  0
 26 28  1  0  0  0  0
 26 29  1  0  0  0  0
M  END
> <VM2 Rank>
171

> <Conf_Id>
178

> <Probability>
0.00

> <Sum Probability>
99.99

> <Delta G>
5.721

> <G>
39.423

> <E>
0.461

> <-TS>
38.962

> <U+W>
-23.684

> <U>
28.969

> <W>
-52.652

> <W(PB)>
-55.007

> <W(SA)>
2.355

> <Valence>
6.483

> <Coulomb>
21.800

> <VdW>
0.686

> <VdW6>
-13.002

> <VdW12>
13.688

> <Bond>
0.441

> <Angle>
3.285

> <Pdih>
2.757

> <Idih>
0.000

> <Tether>
0.000

$$$$
VeraChem MOL file


 29 28  0  0  0  0  0  0  0  0999 V2000     
   19.3474   21.0141   20.5453 C   0  0  0  0  0  0  0  0  0  0  0  0
   19.5448   21.7699   21.3166 H   0  0  0  0  0  0  0  0  0  0  0  0
   20.1737   21.0393   19.8229 H   0  0  0  0  0  0  0  0  0  0  0  0
   18.4298   21.3036   20.0167 H   0  0  0  0  0  0  0  0  0  0  0  0
   19.1975   19.6100   21.1678 C   0  0  0  0  0  0  0  0  0  0  0  0
   18.9723   18.8832   20.3748 H   0  0  0  0  0  0  0  0  0  0  0  0
   18.3348   19.6140   21.8448 H   0  0  0  0  0  0  0  0  0  0  0  0
   20.4823   19.1806   21.9159 C   0  0  0  0  0  0  0  0  0  0  0  0
   21.3233   19.2223   21.2099 H   0  0  0  0  0  0  0  0  0  0  0  0
   20.7218   19.9098   22.6964 H   0  0  0  0  0  0  0  0  0  0  0  0
   20.4191   17.7428   22.4969 C   0  0  0  0  0  0  0  0  0  0  0  0
   21.4106   17.4612   22.8771 H   0  0  0  0  0  0  0  0  0  0  0  0
   20.2192   17.0539   21.6645 H   0  0  0  0  0  0  0  0  0  0  0  0
   19.3570   17.4895   23.6027 C   0  0  0  0  0  0  0  0  0  0  0  0
   18.4037   17.9714   23.3574 H   0  0  0  0  0  0  0  0  0  0  0  0
   19.1352   16.4133   23.6023 H   0  0  0  0  0  0  0  0  0  0  0  0
   19.8018   17.8563   25.0450 C   0  0  0  0  0  0  0  0  0  0  0  0
   20.6969   17.2728   25.2980 H   0  0  0  0  0  0  0  0  0  0  0  0
   19.0202   17.5273   25.7427 H   0  0  0  0  0  0  0  0  0  0  0  0
   20.0944   19.3512   25.2951 C   0  0  2  0  0  0  0  0  0  0  0  0
   20.9357   19.6473   24.6635 H   0  0  0  0  0  0  0  0  0  0  0  0
   20.5026   19.5778   26.7592 C   0  0  0  0  0  0  0  0  0  0  0  0
   19.6911   19.3045   27.4452 H   0  0  0  0  0  0  0  0  0  0  0  0
   21.3838   18.9763   27.0153 H   0  0  0  0  0  0  0  0  0  0  0  0
   20.7564   20.6308   26.9328 H   0  0  0  0  0  0  0  0  0  0  0  0
   18.9339   20.2337   24.9262 N   0  3  0  0  0  0  0  0  0  0  0  0
   18.6897   20.1214   23.9383 H   0  0  0  0  0  0  0  0  0  0  0  0
   19.1502   21.2222   25.0840 H   0  0  0  0  0  0  0  0  0  0  0  0
   18.1042   20.0075   25.4816 H   0  0  0  0  0  0  0  0  0  0  0  0
  1  2  1  0  0  0  0
  1  3  1  0  0  0  0
  1  4  1  0  0  0  0
  1  5  1  0  0  0  0
  5  6  1  0  0  0  0
  5  7  1  0  0  0  0
  5  8  1  0  0  0  0
  8  9  1  0  0  0  0
  8 10  1  0  0  0  0
  8 11  1  0  0  0  0
 11 12  1  0  0  0  0
 11 13  1  0  0  0  0
 11 14  1  0  0  0  0
 14 15  1  0  0  0  0
 14 16  1  0  0  0  0
 14 17  1  0  0  0  0
 17 18  1  0  0  0  0
 17 19  1  0  0  0  0
 17 20  1  0  0  0  0
 20 21  1  0  0  0  0
 20 22  1  0  0  0  0
 22 23  1  0  0  0  0
 22 24  1  0  0  0  0
 22 25  1  0  0  0  0
 20 26  1  0  0  0  0
 26 27  1  0  0  0  0
 26 28  1  0  0  0  0
 26 29  1  0  0  0  0
M  END
> <VM2 Rank>
172

> <Conf_Id>
341

> <Probability>
0.00

> <Sum Probability>
99.99

> <Delta G>
5.736

> <G>
39.438

> <E>
1.176

> <-TS>
38.262

> <U+W>
-22.968

> <U>
28.534

> <W>
-51.502

> <W(PB)>
-53.928

> <W(SA)>
2.426

> <Valence>
6.517

> <Coulomb>
21.463

> <VdW>
0.554

> <VdW6>
-11.294

> <VdW12>
11.848

> <Bond>
0.345

> <Angle>
2.713

> <Pdih>
3.460

> <Idih>
0.000

> <Tether>
0.000

$$$$
VeraChem MOL file


 29 28  0  0  0  0  0  0  0  0999 V2000     
   18.2554   19.8991   20.8905 C   0  0  0  0  0  0  0  0  0  0  0  0
   17.6662   19.0302   20.5698 H   0  0  0  0  0  0  0  0  0  0  0  0
   18.0517   20.0804   21.9525 H   0  0  0  0  0  0  0  0  0  0  0  0
   17.8965   20.7731   20.3316 H   0  0  0  0  0  0  0  0  0  0  0  0
   19.7622   19.6738   20.6322 C   0  0  0  0  0  0  0  0  0  0  0  0
   20.3327   20.5452   20.9805 H   0  0  0  0  0  0  0  0  0  0  0  0
   19.9300   19.6189   19.5476 H   0  0  0  0  0  0  0  0  0  0  0  0
   20.3123   18.3784   21.2815 C   0  0  0  0  0  0  0  0  0  0  0  0
   19.7994   17.5133   20.8393 H   0  0  0  0  0  0  0  0  0  0  0  0
   21.3717   18.2694   21.0113 H   0  0  0  0  0  0  0  0  0  0  0  0
   20.1754   18.3042   22.8239 C   0  0  0  0  0  0  0  0  0  0  0  0
   20.5860   17.3430   23.1621 H   0  0  0  0  0  0  0  0  0  0  0  0
   19.1122   18.2991   23.0893 H   0  0  0  0  0  0  0  0  0  0  0  0
   20.9052   19.4548   23.5590 C   0  0  0  0  0  0  0  0  0  0  0  0
   21.9129   19.5559   23.1330 H   0  0  0  0  0  0  0  0  0  0  0  0
   20.4006   20.4083   23.3566 H   0  0  0  0  0  0  0  0  0  0  0  0
   21.0590   19.2575   25.0939 C   0  0  0  0  0  0  0  0  0  0  0  0
   21.6435   20.1055   25.4740 H   0  0  0  0  0  0  0  0  0  0  0  0
   21.6765   18.3714   25.2915 H   0  0  0  0  0  0  0  0  0  0  0  0
   19.7597   19.1831   25.9373 C   0  0  2  0  0  0  0  0  0  0  0  0
   20.0287   19.4893   26.9530 H   0  0  0  0  0  0  0  0  0  0  0  0
   19.2038   17.7516   26.0497 C   0  0  0  0  0  0  0  0  0  0  0  0
   18.8381   17.3675   25.0930 H   0  0  0  0  0  0  0  0  0  0  0  0
   19.9735   17.0638   26.4210 H   0  0  0  0  0  0  0  0  0  0  0  0
   18.3682   17.7226   26.7598 H   0  0  0  0  0  0  0  0  0  0  0  0
   18.7029   20.1534   25.4859 N   0  3  0  0  0  0  0  0  0  0  0  0
   17.8783   20.1182   26.0923 H   0  0  0  0  0  0  0  0  0  0  0  0
   18.3986   19.9451   24.5319 H   0  0  0  0  0  0  0  0  0  0  0  0
   19.0520   21.1161   25.4971 H   0  0  0  0  0  0  0  0  0  0  0  0
  1  2  1  0  0  0  0
  1  3  1  0  0  0  0
  1  4  1  0  0  0  0
  1  5  1  0  0  0  0
  5  6  1  0  0  0  0
  5  7  1  0  0  0  0
  5  8  1  0  0  0  0
  8  9  1  0  0  0  0
  8 10  1  0  0  0  0
  8 11  1  0  0  0  0
 11 12  1  0  0  0  0
 11 13  1  0  0  0  0
 11 14  1  0  0  0  0
 14 15  1  0  0  0  0
 14 16  1  0  0  0  0
 14 17  1  0  0  0  0
 17 18  1  0  0  0  0
 17 19  1  0  0  0  0
 17 20  1  0  0  0  0
 20 21  1  0  0  0  0
 20 22  1  0  0  0  0
 22 23  1  0  0  0  0
 22 24  1  0  0  0  0
 22 25  1  0  0  0  0
 20 26  1  0  0  0  0
 26 27  1  0  0  0  0
 26 28  1  0  0  0  0
 26 29  1  0  0  0  0
M  END
> <VM2 Rank>
173

> <Conf_Id>
165

> <Probability>
0.00

> <Sum Probability>
99.99

> <Delta G>
5.824

> <G>
39.526

> <E>
1.228

> <-TS>
38.298

> <U+W>
-22.916

> <U>
29.417

> <W>
-52.333

> <W(PB)>
-54.688

> <W(SA)>
2.355

> <Valence>
7.176

> <Coulomb>
21.250

> <VdW>
0.991

> <VdW6>
-11.694

> <VdW12>
12.685

> <Bond>
0.376

> <Angle>
2.904

> <Pdih>
3.896

> <Idih>
0.000

> <Tether>
0.000

$$$$
VeraChem MOL file


 29 28  0  0  0  0  0  0  0  0999 V2000     
   21.0340   20.6088   21.0222 C   0  0  0  0  0  0  0  0  0  0  0  0
   20.4977   20.9620   20.1318 H   0  0  0  0  0  0  0  0  0  0  0  0
   20.9181   21.3619   21.8125 H   0  0  0  0  0  0  0  0  0  0  0  0
   22.1007   20.5461   20.7705 H   0  0  0  0  0  0  0  0  0  0  0  0
   20.5011   19.2358   21.4818 C   0  0  0  0  0  0  0  0  0  0  0  0
   21.0838   18.8916   22.3444 H   0  0  0  0  0  0  0  0  0  0  0  0
   20.6665   18.4968   20.6853 H   0  0  0  0  0  0  0  0  0  0  0  0
   18.9925   19.2939   21.8232 C   0  0  0  0  0  0  0  0  0  0  0  0
   18.7751   20.1259   22.5058 H   0  0  0  0  0  0  0  0  0  0  0  0
   18.4451   19.5191   20.8974 H   0  0  0  0  0  0  0  0  0  0  0  0
   18.4482   17.9654   22.4068 C   0  0  0  0  0  0  0  0  0  0  0  0
   19.0422   17.1175   22.0386 H   0  0  0  0  0  0  0  0  0  0  0  0
   17.4375   17.8095   22.0046 H   0  0  0  0  0  0  0  0  0  0  0  0
   18.3424   17.9074   23.9549 C   0  0  0  0  0  0  0  0  0  0  0  0
   17.6445   18.6765   24.3096 H   0  0  0  0  0  0  0  0  0  0  0  0
   17.8708   16.9488   24.2120 H   0  0  0  0  0  0  0  0  0  0  0  0
   19.6883   17.9902   24.7243 C   0  0  0  0  0  0  0  0  0  0  0  0
   20.4426   17.3952   24.1931 H   0  0  0  0  0  0  0  0  0  0  0  0
   19.5631   17.5086   25.7033 H   0  0  0  0  0  0  0  0  0  0  0  0
   20.2131   19.4262   24.9561 C   0  0  2  0  0  0  0  0  0  0  0  0
   20.2729   19.9397   23.9939 H   0  0  0  0  0  0  0  0  0  0  0  0
   21.6244   19.3866   25.5628 C   0  0  0  0  0  0  0  0  0  0  0  0
   22.3171   18.8486   24.9037 H   0  0  0  0  0  0  0  0  0  0  0  0
   22.0169   20.4018   25.6996 H   0  0  0  0  0  0  0  0  0  0  0  0
   21.6232   18.8858   26.5391 H   0  0  0  0  0  0  0  0  0  0  0  0
   19.2920   20.2417   25.8219 N   0  3  0  0  0  0  0  0  0  0  0  0
   19.1891   19.8254   26.7512 H   0  0  0  0  0  0  0  0  0  0  0  0
   18.3575   20.3129   25.4110 H   0  0  0  0  0  0  0  0  0  0  0  0
   19.6448   21.1944   25.9505 H   0  0  0  0  0  0  0  0  0  0  0  0
  1  2  1  0  0  0  0
  1  3  1  0  0  0  0
  1  4  1  0  0  0  0
  1  5  1  0  0  0  0
  5  6  1  0  0  0  0
  5  7  1  0  0  0  0
  5  8  1  0  0  0  0
  8  9  1  0  0  0  0
  8 10  1  0  0  0  0
  8 11  1  0  0  0  0
 11 12  1  0  0  0  0
 11 13  1  0  0  0  0
 11 14  1  0  0  0  0
 14 15  1  0  0  0  0
 14 16  1  0  0  0  0
 14 17  1  0  0  0  0
 17 18  1  0  0  0  0
 17 19  1  0  0  0  0
 17 20  1  0  0  0  0
 20 21  1  0  0  0  0
 20 22  1  0  0  0  0
 22 23  1  0  0  0  0
 22 24  1  0  0  0  0
 22 25  1  0  0  0  0
 20 26  1  0  0  0  0
 26 27  1  0  0  0  0
 26 28  1  0  0  0  0
 26 29  1  0  0  0  0
M  END
> <VM2 Rank>
174

> <Conf_Id>
728

> <Probability>
0.00

> <Sum Probability>
99.99

> <Delta G>
5.851

> <G>
39.553

> <E>
1.178

> <-TS>
38.375

> <U+W>
-22.967

> <U>
29.616

> <W>
-52.582

> <W(PB)>
-54.955

> <W(SA)>
2.373

> <Valence>
8.185

> <Coulomb>
21.112

> <VdW>
0.319

> <VdW6>
-11.889

> <VdW12>
12.208

> <Bond>
0.321

> <Angle>
2.381

> <Pdih>
5.483

> <Idih>
0.000

> <Tether>
0.000

$$$$
VeraChem MOL file


 29 28  0  0  0  0  0  0  0  0999 V2000     
   19.6940   19.6694   19.8782 C   0  0  0  0  0  0  0  0  0  0  0  0
   19.2774   20.5757   20.3350 H   0  0  0  0  0  0  0  0  0  0  0  0
   20.3756   19.9856   19.0781 H   0  0  0  0  0  0  0  0  0  0  0  0
   18.8717   19.1072   19.4170 H   0  0  0  0  0  0  0  0  0  0  0  0
   20.4430   18.8049   20.9172 C   0  0  0  0  0  0  0  0  0  0  0  0
   21.2485   19.3930   21.3768 H   0  0  0  0  0  0  0  0  0  0  0  0
   20.9371   17.9739   20.3948 H   0  0  0  0  0  0  0  0  0  0  0  0
   19.5166   18.2179   22.0122 C   0  0  0  0  0  0  0  0  0  0  0  0
   18.7794   17.5578   21.5350 H   0  0  0  0  0  0  0  0  0  0  0  0
   20.1123   17.5697   22.6667 H   0  0  0  0  0  0  0  0  0  0  0  0
   18.7590   19.2686   22.8684 C   0  0  0  0  0  0  0  0  0  0  0  0
   18.1191   18.7533   23.5940 H   0  0  0  0  0  0  0  0  0  0  0  0
   18.0619   19.8185   22.2225 H   0  0  0  0  0  0  0  0  0  0  0  0
   19.6606   20.2940   23.6038 C   0  0  0  0  0  0  0  0  0  0  0  0
   20.1667   20.9129   22.8511 H   0  0  0  0  0  0  0  0  0  0  0  0
   19.0223   20.9951   24.1571 H   0  0  0  0  0  0  0  0  0  0  0  0
   20.7446   19.7109   24.5580 C   0  0  0  0  0  0  0  0  0  0  0  0
   21.3566   20.5556   24.9002 H   0  0  0  0  0  0  0  0  0  0  0  0
   21.4378   19.0700   23.9988 H   0  0  0  0  0  0  0  0  0  0  0  0
   20.2545   18.9700   25.8298 C   0  0  2  0  0  0  0  0  0  0  0  0
   21.0758   19.0164   26.5515 H   0  0  0  0  0  0  0  0  0  0  0  0
   19.9757   17.4757   25.5890 C   0  0  0  0  0  0  0  0  0  0  0  0
   20.8397   16.9881   25.1212 H   0  0  0  0  0  0  0  0  0  0  0  0
   19.7880   16.9663   26.5421 H   0  0  0  0  0  0  0  0  0  0  0  0
   19.1021   17.3125   24.9512 H   0  0  0  0  0  0  0  0  0  0  0  0
   19.0881   19.6447   26.4974 N   0  3  0  0  0  0  0  0  0  0  0  0
   19.3041   20.6176   26.7327 H   0  0  0  0  0  0  0  0  0  0  0  0
   18.8259   19.1689   27.3653 H   0  0  0  0  0  0  0  0  0  0  0  0
   18.2680   19.6494   25.8858 H   0  0  0  0  0  0  0  0  0  0  0  0
  1  2  1  0  0  0  0
  1  3  1  0  0  0  0
  1  4  1  0  0  0  0
  1  5  1  0  0  0  0
  5  6  1  0  0  0  0
  5  7  1  0  0  0  0
  5  8  1  0  0  0  0
  8  9  1  0  0  0  0
  8 10  1  0  0  0  0
  8 11  1  0  0  0  0
 11 12  1  0  0  0  0
 11 13  1  0  0  0  0
 11 14  1  0  0  0  0
 14 15  1  0  0  0  0
 14 16  1  0  0  0  0
 14 17  1  0  0  0  0
 17 18  1  0  0  0  0
 17 19  1  0  0  0  0
 17 20  1  0  0  0  0
 20 21  1  0  0  0  0
 20 22  1  0  0  0  0
 22 23  1  0  0  0  0
 22 24  1  0  0  0  0
 22 25  1  0  0  0  0
 20 26  1  0  0  0  0
 26 27  1  0  0  0  0
 26 28  1  0  0  0  0
 26 29  1  0  0  0  0
M  END
> <VM2 Rank>
175

> <Conf_Id>
958

> <Probability>
0.00

> <Sum Probability>
99.99

> <Delta G>
5.938

> <G>
39.640

> <E>
0.655

> <-TS>
38.985

> <U+W>
-23.490

> <U>
29.136

> <W>
-52.625

> <W(PB)>
-54.969

> <W(SA)>
2.344

> <Valence>
7.786

> <Coulomb>
20.543

> <VdW>
0.806

> <VdW6>
-12.839

> <VdW12>
13.645

> <Bond>
0.443

> <Angle>
3.663

> <Pdih>
3.681

> <Idih>
0.000

> <Tether>
0.000

$$$$
VeraChem MOL file


 29 28  0  0  0  0  0  0  0  0999 V2000     
   19.0108   19.6997   20.0897 C   0  0  0  0  0  0  0  0  0  0  0  0
   19.8548   19.6590   19.3891 H   0  0  0  0  0  0  0  0  0  0  0  0
   18.6403   18.6784   20.2431 H   0  0  0  0  0  0  0  0  0  0  0  0
   18.2061   20.2747   19.6136 H   0  0  0  0  0  0  0  0  0  0  0  0
   19.4280   20.3559   21.4249 C   0  0  0  0  0  0  0  0  0  0  0  0
   18.5725   20.3628   22.1111 H   0  0  0  0  0  0  0  0  0  0  0  0
   19.6692   21.4115   21.2371 H   0  0  0  0  0  0  0  0  0  0  0  0
   20.6583   19.6819   22.0863 C   0  0  0  0  0  0  0  0  0  0  0  0
   21.5193   19.8062   21.4152 H   0  0  0  0  0  0  0  0  0  0  0  0
   20.9236   20.2336   22.9946 H   0  0  0  0  0  0  0  0  0  0  0  0
   20.5081   18.1667   22.3985 C   0  0  0  0  0  0  0  0  0  0  0  0
   21.4565   17.7861   22.8016 H   0  0  0  0  0  0  0  0  0  0  0  0
   20.3686   17.6323   21.4496 H   0  0  0  0  0  0  0  0  0  0  0  0
   19.3505   17.7725   23.3567 C   0  0  0  0  0  0  0  0  0  0  0  0
   18.4469   18.3575   23.1498 H   0  0  0  0  0  0  0  0  0  0  0  0
   19.0724   16.7347   23.1268 H   0  0  0  0  0  0  0  0  0  0  0  0
   19.7046   17.8203   24.8681 C   0  0  0  0  0  0  0  0  0  0  0  0
   20.5399   17.1327   25.0558 H   0  0  0  0  0  0  0  0  0  0  0  0
   18.8538   17.4245   25.4387 H   0  0  0  0  0  0  0  0  0  0  0  0
   20.0722   19.2134   25.4210 C   0  0  2  0  0  0  0  0  0  0  0  0
   20.9585   19.5713   24.8911 H   0  0  0  0  0  0  0  0  0  0  0  0
   20.4203   19.1208   26.9150 C   0  0  0  0  0  0  0  0  0  0  0  0
   19.5622   18.7705   27.5022 H   0  0  0  0  0  0  0  0  0  0  0  0
   21.2531   18.4255   27.0785 H   0  0  0  0  0  0  0  0  0  0  0  0
   20.7234   20.1006   27.3043 H   0  0  0  0  0  0  0  0  0  0  0  0
   18.9833   20.2248   25.1936 N   0  3  0  0  0  0  0  0  0  0  0  0
   18.1195   19.9539   25.6713 H   0  0  0  0  0  0  0  0  0  0  0  0
   18.7732   20.3160   24.1963 H   0  0  0  0  0  0  0  0  0  0  0  0
   19.2517   21.1494   25.5429 H   0  0  0  0  0  0  0  0  0  0  0  0
  1  2  1  0  0  0  0
  1  3  1  0  0  0  0
  1  4  1  0  0  0  0
  1  5  1  0  0  0  0
  5  6  1  0  0  0  0
  5  7  1  0  0  0  0
  5  8  1  0  0  0  0
  8  9  1  0  0  0  0
  8 10  1  0  0  0  0
  8 11  1  0  0  0  0
 11 12  1  0  0  0  0
 11 13  1  0  0  0  0
 11 14  1  0  0  0  0
 14 15  1  0  0  0  0
 14 16  1  0  0  0  0
 14 17  1  0  0  0  0
 17 18  1  0  0  0  0
 17 19  1  0  0  0  0
 17 20  1  0  0  0  0
 20 21  1  0  0  0  0
 20 22  1  0  0  0  0
 22 23  1  0  0  0  0
 22 24  1  0  0  0  0
 22 25  1  0  0  0  0
 20 26  1  0  0  0  0
 26 27  1  0  0  0  0
 26 28  1  0  0  0  0
 26 29  1  0  0  0  0
M  END
> <VM2 Rank>
176

> <Conf_Id>
620

> <Probability>
0.00

> <Sum Probability>
99.99

> <Delta G>
6.008

> <G>
39.710

> <E>
1.225

> <-TS>
38.486

> <U+W>
-22.920

> <U>
29.194

> <W>
-52.113

> <W(PB)>
-54.495

> <W(SA)>
2.382

> <Valence>
7.015

> <Coulomb>
21.615

> <VdW>
0.564

> <VdW6>
-12.006

> <VdW12>
12.570

> <Bond>
0.392

> <Angle>
2.975

> <Pdih>
3.647

> <Idih>
0.000

> <Tether>
0.000

$$$$
VeraChem MOL file


 29 28  0  0  0  0  0  0  0  0999 V2000     
   20.7481   20.3440   20.6905 C   0  0  0  0  0  0  0  0  0  0  0  0
   20.8852   20.6990   21.7190 H   0  0  0  0  0  0  0  0  0  0  0  0
   21.4557   19.5259   20.5036 H   0  0  0  0  0  0  0  0  0  0  0  0
   21.0091   21.1740   20.0213 H   0  0  0  0  0  0  0  0  0  0  0  0
   19.2929   19.8904   20.4439 C   0  0  0  0  0  0  0  0  0  0  0  0
   19.1521   19.7323   19.3655 H   0  0  0  0  0  0  0  0  0  0  0  0
   18.6061   20.7012   20.7242 H   0  0  0  0  0  0  0  0  0  0  0  0
   18.8929   18.5892   21.1854 C   0  0  0  0  0  0  0  0  0  0  0  0
   17.8604   18.3501   20.8952 H   0  0  0  0  0  0  0  0  0  0  0  0
   19.5015   17.7485   20.8253 H   0  0  0  0  0  0  0  0  0  0  0  0
   18.9494   18.6757   22.7334 C   0  0  0  0  0  0  0  0  0  0  0  0
   18.1437   18.0503   23.1422 H   0  0  0  0  0  0  0  0  0  0  0  0
   18.7369   19.7061   23.0412 H   0  0  0  0  0  0  0  0  0  0  0  0
   20.2947   18.1868   23.3298 C   0  0  0  0  0  0  0  0  0  0  0  0
   20.5393   17.2110   22.8883 H   0  0  0  0  0  0  0  0  0  0  0  0
   21.1100   18.8601   23.0403 H   0  0  0  0  0  0  0  0  0  0  0  0
   20.2994   18.0200   24.8723 C   0  0  0  0  0  0  0  0  0  0  0  0
   21.2508   17.5416   25.1405 H   0  0  0  0  0  0  0  0  0  0  0  0
   19.5143   17.3173   25.1812 H   0  0  0  0  0  0  0  0  0  0  0  0
   20.1714   19.3405   25.6681 C   0  0  2  0  0  0  0  0  0  0  0  0
   20.7621   20.1088   25.1600 H   0  0  0  0  0  0  0  0  0  0  0  0
   20.7311   19.1650   27.0895 C   0  0  0  0  0  0  0  0  0  0  0  0
   20.1816   18.3906   27.6394 H   0  0  0  0  0  0  0  0  0  0  0  0
   21.7896   18.8778   27.0602 H   0  0  0  0  0  0  0  0  0  0  0  0
   20.6585   20.1025   27.6545 H   0  0  0  0  0  0  0  0  0  0  0  0
   18.7561   19.8444   25.7412 N   0  3  0  0  0  0  0  0  0  0  0  0
   18.1520   19.1831   26.2364 H   0  0  0  0  0  0  0  0  0  0  0  0
   18.3605   19.9845   24.8090 H   0  0  0  0  0  0  0  0  0  0  0  0
   18.7030   20.7385   26.2376 H   0  0  0  0  0  0  0  0  0  0  0  0
  1  2  1  0  0  0  0
  1  3  1  0  0  0  0
  1  4  1  0  0  0  0
  1  5  1  0  0  0  0
  5  6  1  0  0  0  0
  5  7  1  0  0  0  0
  5  8  1  0  0  0  0
  8  9  1  0  0  0  0
  8 10  1  0  0  0  0
  8 11  1  0  0  0  0
 11 12  1  0  0  0  0
 11 13  1  0  0  0  0
 11 14  1  0  0  0  0
 14 15  1  0  0  0  0
 14 16  1  0  0  0  0
 14 17  1  0  0  0  0
 17 18  1  0  0  0  0
 17 19  1  0  0  0  0
 17 20  1  0  0  0  0
 20 21  1  0  0  0  0
 20 22  1  0  0  0  0
 22 23  1  0  0  0  0
 22 24  1  0  0  0  0
 22 25  1  0  0  0  0
 20 26  1  0  0  0  0
 26 27  1  0  0  0  0
 26 28  1  0  0  0  0
 26 29  1  0  0  0  0
M  END
> <VM2 Rank>
177

> <Conf_Id>
1518

> <Probability>
0.00

> <Sum Probability>
100.00

> <Delta G>
6.064

> <G>
39.766

> <E>
2.263

> <-TS>
37.503

> <U+W>
-21.881

> <U>
30.431

> <W>
-52.312

> <W(PB)>
-54.731

> <W(SA)>
2.419

> <Valence>
7.908

> <Coulomb>
21.387

> <VdW>
1.136

> <VdW6>
-10.627

> <VdW12>
11.762

> <Bond>
0.341

> <Angle>
2.395

> <Pdih>
5.172

> <Idih>
0.000

> <Tether>
0.000

$$$$
VeraChem MOL file


 29 28  0  0  0  0  0  0  0  0999 V2000     
   20.8293   19.3382   20.0254 C   0  0  0  0  0  0  0  0  0  0  0  0
   21.4205   18.8690   20.8190 H   0  0  0  0  0  0  0  0  0  0  0  0
   20.4944   18.5489   19.3400 H   0  0  0  0  0  0  0  0  0  0  0  0
   21.4985   20.0036   19.4648 H   0  0  0  0  0  0  0  0  0  0  0  0
   19.6256   20.1311   20.5855 C   0  0  0  0  0  0  0  0  0  0  0  0
   19.1187   20.6156   19.7392 H   0  0  0  0  0  0  0  0  0  0  0  0
   19.9746   20.9458   21.2351 H   0  0  0  0  0  0  0  0  0  0  0  0
   18.5940   19.2485   21.3346 C   0  0  0  0  0  0  0  0  0  0  0  0
   17.5966   19.6799   21.1714 H   0  0  0  0  0  0  0  0  0  0  0  0
   18.5574   18.2446   20.8898 H   0  0  0  0  0  0  0  0  0  0  0  0
   18.8110   19.1487   22.8666 C   0  0  0  0  0  0  0  0  0  0  0  0
   17.9693   18.5873   23.2952 H   0  0  0  0  0  0  0  0  0  0  0  0
   18.7688   20.1596   23.2903 H   0  0  0  0  0  0  0  0  0  0  0  0
   20.1371   18.4629   23.2750 C   0  0  0  0  0  0  0  0  0  0  0  0
   20.2777   17.5692   22.6516 H   0  0  0  0  0  0  0  0  0  0  0  0
   20.9800   19.1319   23.0571 H   0  0  0  0  0  0  0  0  0  0  0  0
   20.2115   18.0250   24.7615 C   0  0  0  0  0  0  0  0  0  0  0  0
   21.1337   17.4404   24.8792 H   0  0  0  0  0  0  0  0  0  0  0  0
   19.3889   17.3367   24.9962 H   0  0  0  0  0  0  0  0  0  0  0  0
   20.2350   19.1889   25.7805 C   0  0  2  0  0  0  0  0  0  0  0  0
   20.8842   19.9778   25.3885 H   0  0  0  0  0  0  0  0  0  0  0  0
   20.8136   18.7121   27.1229 C   0  0  0  0  0  0  0  0  0  0  0  0
   20.8503   19.5369   27.8452 H   0  0  0  0  0  0  0  0  0  0  0  0
   20.2050   17.9070   27.5535 H   0  0  0  0  0  0  0  0  0  0  0  0
   21.8369   18.3373   26.9966 H   0  0  0  0  0  0  0  0  0  0  0  0
   18.8789   19.8005   26.0021 N   0  3  0  0  0  0  0  0  0  0  0  0
   18.2256   19.1204   26.3999 H   0  0  0  0  0  0  0  0  0  0  0  0
   18.4753   20.1401   25.1262 H   0  0  0  0  0  0  0  0  0  0  0  0
   18.9276   20.5932   26.6486 H   0  0  0  0  0  0  0  0  0  0  0  0
  1  2  1  0  0  0  0
  1  3  1  0  0  0  0
  1  4  1  0  0  0  0
  1  5  1  0  0  0  0
  5  6  1  0  0  0  0
  5  7  1  0  0  0  0
  5  8  1  0  0  0  0
  8  9  1  0  0  0  0
  8 10  1  0  0  0  0
  8 11  1  0  0  0  0
 11 12  1  0  0  0  0
 11 13  1  0  0  0  0
 11 14  1  0  0  0  0
 14 15  1  0  0  0  0
 14 16  1  0  0  0  0
 14 17  1  0  0  0  0
 17 18  1  0  0  0  0
 17 19  1  0  0  0  0
 17 20  1  0  0  0  0
 20 21  1  0  0  0  0
 20 22  1  0  0  0  0
 22 23  1  0  0  0  0
 22 24  1  0  0  0  0
 22 25  1  0  0  0  0
 20 26  1  0  0  0  0
 26 27  1  0  0  0  0
 26 28  1  0  0  0  0
 26 29  1  0  0  0  0
M  END
> <VM2 Rank>
178

> <Conf_Id>
615

> <Probability>
0.00

> <Sum Probability>
100.00

> <Delta G>
6.076

> <G>
39.778

> <E>
2.058

> <-TS>
37.721

> <U+W>
-22.087

> <U>
30.184

> <W>
-52.271

> <W(PB)>
-54.705

> <W(SA)>
2.434

> <Valence>
7.816

> <Coulomb>
21.246

> <VdW>
1.122

> <VdW6>
-10.605

> <VdW12>
11.727

> <Bond>
0.328

> <Angle>
2.365

> <Pdih>
5.123

> <Idih>
0.000

> <Tether>
0.000

$$$$
VeraChem MOL file


 29 28  0  0  0  0  0  0  0  0999 V2000     
   19.3839   18.3792   19.6301 C   0  0  0  0  0  0  0  0  0  0  0  0
   18.5145   18.8881   19.1937 H   0  0  0  0  0  0  0  0  0  0  0  0
   20.2819   18.7189   19.0978 H   0  0  0  0  0  0  0  0  0  0  0  0
   19.2706   17.3027   19.4476 H   0  0  0  0  0  0  0  0  0  0  0  0
   19.4941   18.6667   21.1424 C   0  0  0  0  0  0  0  0  0  0  0  0
   20.3505   18.1119   21.5482 H   0  0  0  0  0  0  0  0  0  0  0  0
   18.5952   18.2910   21.6505 H   0  0  0  0  0  0  0  0  0  0  0  0
   19.6614   20.1774   21.4248 C   0  0  0  0  0  0  0  0  0  0  0  0
   20.5895   20.5365   20.9591 H   0  0  0  0  0  0  0  0  0  0  0  0
   18.8432   20.7240   20.9357 H   0  0  0  0  0  0  0  0  0  0  0  0
   19.6635   20.5458   22.9306 C   0  0  0  0  0  0  0  0  0  0  0  0
   18.7008   20.2670   23.3756 H   0  0  0  0  0  0  0  0  0  0  0  0
   19.7223   21.6405   23.0042 H   0  0  0  0  0  0  0  0  0  0  0  0
   20.8474   19.9409   23.7339 C   0  0  0  0  0  0  0  0  0  0  0  0
   21.6999   19.7942   23.0564 H   0  0  0  0  0  0  0  0  0  0  0  0
   21.1946   20.6707   24.4785 H   0  0  0  0  0  0  0  0  0  0  0  0
   20.5277   18.6019   24.4531 C   0  0  0  0  0  0  0  0  0  0  0  0
   21.4545   18.0149   24.5019 H   0  0  0  0  0  0  0  0  0  0  0  0
   19.8200   18.0031   23.8675 H   0  0  0  0  0  0  0  0  0  0  0  0
   20.0020   18.7783   25.8964 C   0  0  2  0  0  0  0  0  0  0  0  0
   20.7445   19.3521   26.4595 H   0  0  0  0  0  0  0  0  0  0  0  0
   19.8377   17.4092   26.5754 C   0  0  0  0  0  0  0  0  0  0  0  0
   19.0988   16.7916   26.0496 H   0  0  0  0  0  0  0  0  0  0  0  0
   20.7898   16.8643   26.5903 H   0  0  0  0  0  0  0  0  0  0  0  0
   19.5065   17.5282   27.6144 H   0  0  0  0  0  0  0  0  0  0  0  0
   18.7182   19.5565   25.9673 N   0  3  0  0  0  0  0  0  0  0  0  0
   17.9619   19.0714   25.4776 H   0  0  0  0  0  0  0  0  0  0  0  0
   18.8246   20.4806   25.5395 H   0  0  0  0  0  0  0  0  0  0  0  0
   18.4183   19.6965   26.9364 H   0  0  0  0  0  0  0  0  0  0  0  0
  1  2  1  0  0  0  0
  1  3  1  0  0  0  0
  1  4  1  0  0  0  0
  1  5  1  0  0  0  0
  5  6  1  0  0  0  0
  5  7  1  0  0  0  0
  5  8  1  0  0  0  0
  8  9  1  0  0  0  0
  8 10  1  0  0  0  0
  8 11  1  0  0  0  0
 11 12  1  0  0  0  0
 11 13  1  0  0  0  0
 11 14  1  0  0  0  0
 14 15  1  0  0  0  0
 14 16  1  0  0  0  0
 14 17  1  0  0  0  0
 17 18  1  0  0  0  0
 17 19  1  0  0  0  0
 17 20  1  0  0  0  0
 20 21  1  0  0  0  0
 20 22  1  0  0  0  0
 22 23  1  0  0  0  0
 22 24  1  0  0  0  0
 22 25  1  0  0  0  0
 20 26  1  0  0  0  0
 26 27  1  0  0  0  0
 26 28  1  0  0  0  0
 26 29  1  0  0  0  0
M  END
> <VM2 Rank>
179

> <Conf_Id>
322

> <Probability>
0.00

> <Sum Probability>
100.00

> <Delta G>
6.114

> <G>
39.816

> <E>
1.853

> <-TS>
37.963

> <U+W>
-22.291

> <U>
30.054

> <W>
-52.346

> <W(PB)>
-54.788

> <W(SA)>
2.442

> <Valence>
8.013

> <Coulomb>
20.944

> <VdW>
1.096

> <VdW6>
-10.534

> <VdW12>
11.631

> <Bond>
0.334

> <Angle>
1.816

> <Pdih>
5.864

> <Idih>
0.000

> <Tether>
0.000

$$$$
VeraChem MOL file


 29 28  0  0  0  0  0  0  0  0999 V2000     
   18.7096   19.6564   19.7156 C   0  0  0  0  0  0  0  0  0  0  0  0
   17.7187   20.1255   19.6603 H   0  0  0  0  0  0  0  0  0  0  0  0
   19.4290   20.3299   19.2316 H   0  0  0  0  0  0  0  0  0  0  0  0
   18.6732   18.7231   19.1386 H   0  0  0  0  0  0  0  0  0  0  0  0
   19.1037   19.3869   21.1832 C   0  0  0  0  0  0  0  0  0  0  0  0
   18.3516   18.7341   21.6476 H   0  0  0  0  0  0  0  0  0  0  0  0
   19.0924   20.3365   21.7345 H   0  0  0  0  0  0  0  0  0  0  0  0
   20.5001   18.7318   21.2874 C   0  0  0  0  0  0  0  0  0  0  0  0
   20.5180   17.8300   20.6599 H   0  0  0  0  0  0  0  0  0  0  0  0
   21.2551   19.4107   20.8676 H   0  0  0  0  0  0  0  0  0  0  0  0
   20.9103   18.3324   22.7282 C   0  0  0  0  0  0  0  0  0  0  0  0
   21.8812   17.8218   22.6678 H   0  0  0  0  0  0  0  0  0  0  0  0
   20.2058   17.5876   23.1196 H   0  0  0  0  0  0  0  0  0  0  0  0
   21.0525   19.5282   23.7088 C   0  0  0  0  0  0  0  0  0  0  0  0
   21.8860   19.3370   24.3988 H   0  0  0  0  0  0  0  0  0  0  0  0
   21.3476   20.4216   23.1415 H   0  0  0  0  0  0  0  0  0  0  0  0
   19.7747   19.8412   24.5352 C   0  0  0  0  0  0  0  0  0  0  0  0
   18.8726   19.5499   23.9840 H   0  0  0  0  0  0  0  0  0  0  0  0
   19.7142   20.9304   24.6593 H   0  0  0  0  0  0  0  0  0  0  0  0
   19.7532   19.2055   25.9458 C   0  0  2  0  0  0  0  0  0  0  0  0
   20.6519   19.5304   26.4790 H   0  0  0  0  0  0  0  0  0  0  0  0
   19.7487   17.6679   25.9029 C   0  0  0  0  0  0  0  0  0  0  0  0
   18.8967   17.2891   25.3248 H   0  0  0  0  0  0  0  0  0  0  0  0
   20.6718   17.2829   25.4540 H   0  0  0  0  0  0  0  0  0  0  0  0
   19.6837   17.2530   26.9163 H   0  0  0  0  0  0  0  0  0  0  0  0
   18.5834   19.7058   26.7468 N   0  3  0  0  0  0  0  0  0  0  0  0
   17.6939   19.4392   26.3164 H   0  0  0  0  0  0  0  0  0  0  0  0
   18.5920   20.7265   26.8298 H   0  0  0  0  0  0  0  0  0  0  0  0
   18.5901   19.3232   27.6967 H   0  0  0  0  0  0  0  0  0  0  0  0
  1  2  1  0  0  0  0
  1  3  1  0  0  0  0
  1  4  1  0  0  0  0
  1  5  1  0  0  0  0
  5  6  1  0  0  0  0
  5  7  1  0  0  0  0
  5  8  1  0  0  0  0
  8  9  1  0  0  0  0
  8 10  1  0  0  0  0
  8 11  1  0  0  0  0
 11 12  1  0  0  0  0
 11 13  1  0  0  0  0
 11 14  1  0  0  0  0
 14 15  1  0  0  0  0
 14 16  1  0  0  0  0
 14 17  1  0  0  0  0
 17 18  1  0  0  0  0
 17 19  1  0  0  0  0
 17 20  1  0  0  0  0
 20 21  1  0  0  0  0
 20 22  1  0  0  0  0
 22 23  1  0  0  0  0
 22 24  1  0  0  0  0
 22 25  1  0  0  0  0
 20 26  1  0  0  0  0
 26 27  1  0  0  0  0
 26 28  1  0  0  0  0
 26 29  1  0  0  0  0
M  END
> <VM2 Rank>
180

> <Conf_Id>
1028

> <Probability>
0.00

> <Sum Probability>
100.00

> <Delta G>
6.170

> <G>
39.872

> <E>
1.723

> <-TS>
38.149

> <U+W>
-22.421

> <U>
30.226

> <W>
-52.647

> <W(PB)>
-55.091

> <W(SA)>
2.444

> <Valence>
8.804

> <Coulomb>
20.287

> <VdW>
1.135

> <VdW6>
-10.804

> <VdW12>
11.939

> <Bond>
0.337

> <Angle>
2.139

> <Pdih>
6.328

> <Idih>
0.000

> <Tether>
0.000

$$$$
VeraChem MOL file


 29 28  0  0  0  0  0  0  0  0999 V2000     
   18.7012   20.7184   20.9178 C   0  0  0  0  0  0  0  0  0  0  0  0
   17.8663   20.6734   21.6288 H   0  0  0  0  0  0  0  0  0  0  0  0
   19.4950   21.3389   21.3515 H   0  0  0  0  0  0  0  0  0  0  0  0
   18.3422   21.2302   20.0154 H   0  0  0  0  0  0  0  0  0  0  0  0
   19.2109   19.3024   20.5650 C   0  0  0  0  0  0  0  0  0  0  0  0
   20.0541   19.3755   19.8639 H   0  0  0  0  0  0  0  0  0  0  0  0
   18.4148   18.7634   20.0327 H   0  0  0  0  0  0  0  0  0  0  0  0
   19.6285   18.4742   21.8032 C   0  0  0  0  0  0  0  0  0  0  0  0
   18.7781   18.4083   22.4926 H   0  0  0  0  0  0  0  0  0  0  0  0
   19.8393   17.4451   21.4812 H   0  0  0  0  0  0  0  0  0  0  0  0
   20.8813   19.0369   22.5217 C   0  0  0  0  0  0  0  0  0  0  0  0
   20.7218   20.0715   22.8448 H   0  0  0  0  0  0  0  0  0  0  0  0
   21.7070   19.0826   21.7982 H   0  0  0  0  0  0  0  0  0  0  0  0
   21.3416   18.1774   23.7262 C   0  0  0  0  0  0  0  0  0  0  0  0
   21.6363   17.1858   23.3561 H   0  0  0  0  0  0  0  0  0  0  0  0
   22.2560   18.6221   24.1428 H   0  0  0  0  0  0  0  0  0  0  0  0
   20.3134   17.9874   24.8757 C   0  0  0  0  0  0  0  0  0  0  0  0
   20.7870   17.3367   25.6228 H   0  0  0  0  0  0  0  0  0  0  0  0
   19.4335   17.4350   24.5227 H   0  0  0  0  0  0  0  0  0  0  0  0
   19.8752   19.2980   25.5717 C   0  0  2  0  0  0  0  0  0  0  0  0
   20.7508   19.9482   25.6610 H   0  0  0  0  0  0  0  0  0  0  0  0
   19.3453   19.0058   26.9850 C   0  0  0  0  0  0  0  0  0  0  0  0
   20.1175   18.5282   27.6009 H   0  0  0  0  0  0  0  0  0  0  0  0
   19.0481   19.9342   27.4883 H   0  0  0  0  0  0  0  0  0  0  0  0
   18.4737   18.3401   26.9522 H   0  0  0  0  0  0  0  0  0  0  0  0
   18.8386   20.0553   24.7877 N   0  3  0  0  0  0  0  0  0  0  0  0
   17.9573   19.5366   24.7450 H   0  0  0  0  0  0  0  0  0  0  0  0
   19.1497   20.2170   23.8255 H   0  0  0  0  0  0  0  0  0  0  0  0
   18.6387   20.9655   25.2131 H   0  0  0  0  0  0  0  0  0  0  0  0
  1  2  1  0  0  0  0
  1  3  1  0  0  0  0
  1  4  1  0  0  0  0
  1  5  1  0  0  0  0
  5  6  1  0  0  0  0
  5  7  1  0  0  0  0
  5  8  1  0  0  0  0
  8  9  1  0  0  0  0
  8 10  1  0  0  0  0
  8 11  1  0  0  0  0
 11 12  1  0  0  0  0
 11 13  1  0  0  0  0
 11 14  1  0  0  0  0
 14 15  1  0  0  0  0
 14 16  1  0  0  0  0
 14 17  1  0  0  0  0
 17 18  1  0  0  0  0
 17 19  1  0  0  0  0
 17 20  1  0  0  0  0
 20 21  1  0  0  0  0
 20 22  1  0  0  0  0
 22 23  1  0  0  0  0
 22 24  1  0  0  0  0
 22 25  1  0  0  0  0
 20 26  1  0  0  0  0
 26 27  1  0  0  0  0
 26 28  1  0  0  0  0
 26 29  1  0  0  0  0
M  END
> <VM2 Rank>
181

> <Conf_Id>
509

> <Probability>
0.00

> <Sum Probability>
100.00

> <Delta G>
6.251

> <G>
39.954

> <E>
1.612

> <-TS>
38.342

> <U+W>
-22.533

> <U>
28.370

> <W>
-50.903

> <W(PB)>
-53.303

> <W(SA)>
2.400

> <Valence>
5.939

> <Coulomb>
21.711

> <VdW>
0.720

> <VdW6>
-11.571

> <VdW12>
12.291

> <Bond>
0.321

> <Angle>
2.348

> <Pdih>
3.270

> <Idih>
0.000

> <Tether>
0.000

$$$$
VeraChem MOL file


 29 28  0  0  0  0  0  0  0  0999 V2000     
   21.2929   19.9370   21.3351 C   0  0  0  0  0  0  0  0  0  0  0  0
   21.1504   20.1657   22.3963 H   0  0  0  0  0  0  0  0  0  0  0  0
   21.1247   20.8607   20.7665 H   0  0  0  0  0  0  0  0  0  0  0  0
   22.3422   19.6468   21.1955 H   0  0  0  0  0  0  0  0  0  0  0  0
   20.3511   18.8114   20.8471 C   0  0  0  0  0  0  0  0  0  0  0  0
   20.5761   17.8663   21.3592 H   0  0  0  0  0  0  0  0  0  0  0  0
   20.5672   18.6328   19.7845 H   0  0  0  0  0  0  0  0  0  0  0  0
   18.8472   19.1579   20.9881 C   0  0  0  0  0  0  0  0  0  0  0  0
   18.6929   20.2370   20.8510 H   0  0  0  0  0  0  0  0  0  0  0  0
   18.3152   18.6790   20.1544 H   0  0  0  0  0  0  0  0  0  0  0  0
   18.1635   18.6839   22.2995 C   0  0  0  0  0  0  0  0  0  0  0  0
   18.2471   17.5927   22.3957 H   0  0  0  0  0  0  0  0  0  0  0  0
   17.0884   18.8860   22.1958 H   0  0  0  0  0  0  0  0  0  0  0  0
   18.6513   19.3774   23.5967 C   0  0  0  0  0  0  0  0  0  0  0  0
   19.0108   20.3900   23.3696 H   0  0  0  0  0  0  0  0  0  0  0  0
   17.7859   19.5063   24.2603 H   0  0  0  0  0  0  0  0  0  0  0  0
   19.7335   18.5649   24.3540 C   0  0  0  0  0  0  0  0  0  0  0  0
   20.5478   18.3035   23.6692 H   0  0  0  0  0  0  0  0  0  0  0  0
   19.3055   17.6137   24.6972 H   0  0  0  0  0  0  0  0  0  0  0  0
   20.3251   19.3306   25.5567 C   0  0  2  0  0  0  0  0  0  0  0  0
   20.7204   20.2846   25.1945 H   0  0  0  0  0  0  0  0  0  0  0  0
   21.4826   18.5347   26.1803 C   0  0  0  0  0  0  0  0  0  0  0  0
   21.1378   17.5654   26.5616 H   0  0  0  0  0  0  0  0  0  0  0  0
   22.2716   18.3500   25.4406 H   0  0  0  0  0  0  0  0  0  0  0  0
   21.9311   19.0899   27.0133 H   0  0  0  0  0  0  0  0  0  0  0  0
   19.2887   19.6581   26.5965 N   0  3  0  0  0  0  0  0  0  0  0  0
   18.5320   20.2248   26.2040 H   0  0  0  0  0  0  0  0  0  0  0  0
   19.6937   20.1844   27.3759 H   0  0  0  0  0  0  0  0  0  0  0  0
   18.8690   18.8091   26.9847 H   0  0  0  0  0  0  0  0  0  0  0  0
  1  2  1  0  0  0  0
  1  3  1  0  0  0  0
  1  4  1  0  0  0  0
  1  5  1  0  0  0  0
  5  6  1  0  0  0  0
  5  7  1  0  0  0  0
  5  8  1  0  0  0  0
  8  9  1  0  0  0  0
  8 10  1  0  0  0  0
  8 11  1  0  0  0  0
 11 12  1  0  0  0  0
 11 13  1  0  0  0  0
 11 14  1  0  0  0  0
 14 15  1  0  0  0  0
 14 16  1  0  0  0  0
 14 17  1  0  0  0  0
 17 18  1  0  0  0  0
 17 19  1  0  0  0  0
 17 20  1  0  0  0  0
 20 21  1  0  0  0  0
 20 22  1  0  0  0  0
 22 23  1  0  0  0  0
 22 24  1  0  0  0  0
 22 25  1  0  0  0  0
 20 26  1  0  0  0  0
 26 27  1  0  0  0  0
 26 28  1  0  0  0  0
 26 29  1  0  0  0  0
M  END
> <VM2 Rank>
182

> <Conf_Id>
1314

> <Probability>
0.00

> <Sum Probability>
100.00

> <Delta G>
6.255

> <G>
39.957

> <E>
1.672

> <-TS>
38.286

> <U+W>
-22.473

> <U>
30.008

> <W>
-52.481

> <W(PB)>
-54.892

> <W(SA)>
2.411

> <Valence>
8.778

> <Coulomb>
20.386

> <VdW>
0.844

> <VdW6>
-10.989

> <VdW12>
11.834

> <Bond>
0.330

> <Angle>
2.382

> <Pdih>
6.066

> <Idih>
0.000

> <Tether>
0.000

$$$$
VeraChem MOL file


 29 28  0  0  0  0  0  0  0  0999 V2000     
   18.0809   19.7612   20.9367 C   0  0  0  0  0  0  0  0  0  0  0  0
   17.8972   20.6276   21.5849 H   0  0  0  0  0  0  0  0  0  0  0  0
   17.5075   19.9096   20.0124 H   0  0  0  0  0  0  0  0  0  0  0  0
   17.6810   18.8666   21.4295 H   0  0  0  0  0  0  0  0  0  0  0  0
   19.5859   19.6128   20.6169 C   0  0  0  0  0  0  0  0  0  0  0  0
   19.9079   20.4803   20.0240 H   0  0  0  0  0  0  0  0  0  0  0  0
   19.7449   18.7304   19.9814 H   0  0  0  0  0  0  0  0  0  0  0  0
   20.4753   19.5172   21.8791 C   0  0  0  0  0  0  0  0  0  0  0  0
   21.5286   19.5547   21.5689 H   0  0  0  0  0  0  0  0  0  0  0  0
   20.3099   20.4049   22.5015 H   0  0  0  0  0  0  0  0  0  0  0  0
   20.2423   18.2206   22.6954 C   0  0  0  0  0  0  0  0  0  0  0  0
   20.4156   17.3580   22.0374 H   0  0  0  0  0  0  0  0  0  0  0  0
   19.1980   18.1388   23.0148 H   0  0  0  0  0  0  0  0  0  0  0  0
   21.1782   18.0880   23.9236 C   0  0  0  0  0  0  0  0  0  0  0  0
   21.0033   17.1131   24.3980 H   0  0  0  0  0  0  0  0  0  0  0  0
   22.2166   18.0525   23.5663 H   0  0  0  0  0  0  0  0  0  0  0  0
   21.0710   19.2101   24.9980 C   0  0  0  0  0  0  0  0  0  0  0  0
   21.4058   20.1648   24.5736 H   0  0  0  0  0  0  0  0  0  0  0  0
   21.7975   18.9802   25.7884 H   0  0  0  0  0  0  0  0  0  0  0  0
   19.6930   19.4121   25.6794 C   0  0  2  0  0  0  0  0  0  0  0  0
   19.8569   20.0685   26.5395 H   0  0  0  0  0  0  0  0  0  0  0  0
   19.1044   18.0956   26.2158 C   0  0  0  0  0  0  0  0  0  0  0  0
   18.2064   18.2921   26.8141 H   0  0  0  0  0  0  0  0  0  0  0  0
   18.8236   17.4154   25.4030 H   0  0  0  0  0  0  0  0  0  0  0  0
   19.8278   17.5812   26.8606 H   0  0  0  0  0  0  0  0  0  0  0  0
   18.7049   20.1385   24.8092 N   0  3  0  0  0  0  0  0  0  0  0  0
   18.5433   19.6312   23.9356 H   0  0  0  0  0  0  0  0  0  0  0  0
   19.0419   21.0743   24.5656 H   0  0  0  0  0  0  0  0  0  0  0  0
   17.8031   20.2508   25.2816 H   0  0  0  0  0  0  0  0  0  0  0  0
  1  2  1  0  0  0  0
  1  3  1  0  0  0  0
  1  4  1  0  0  0  0
  1  5  1  0  0  0  0
  5  6  1  0  0  0  0
  5  7  1  0  0  0  0
  5  8  1  0  0  0  0
  8  9  1  0  0  0  0
  8 10  1  0  0  0  0
  8 11  1  0  0  0  0
 11 12  1  0  0  0  0
 11 13  1  0  0  0  0
 11 14  1  0  0  0  0
 14 15  1  0  0  0  0
 14 16  1  0  0  0  0
 14 17  1  0  0  0  0
 17 18  1  0  0  0  0
 17 19  1  0  0  0  0
 17 20  1  0  0  0  0
 20 21  1  0  0  0  0
 20 22  1  0  0  0  0
 22 23  1  0  0  0  0
 22 24  1  0  0  0  0
 22 25  1  0  0  0  0
 20 26  1  0  0  0  0
 26 27  1  0  0  0  0
 26 28  1  0  0  0  0
 26 29  1  0  0  0  0
M  END
> <VM2 Rank>
183

> <Conf_Id>
1647

> <Probability>
0.00

> <Sum Probability>
100.00

> <Delta G>
6.289

> <G>
39.991

> <E>
1.248

> <-TS>
38.743

> <U+W>
-22.897

> <U>
28.641

> <W>
-51.538

> <W(PB)>
-53.873

> <W(SA)>
2.335

> <Valence>
6.059

> <Coulomb>
22.000

> <VdW>
0.582

> <VdW6>
-12.551

> <VdW12>
13.133

> <Bond>
0.383

> <Angle>
2.850

> <Pdih>
2.826

> <Idih>
0.000

> <Tether>
0.000

$$$$
VeraChem MOL file


 29 28  0  0  0  0  0  0  0  0999 V2000     
   20.5554   18.5248   20.1643 C   0  0  0  0  0  0  0  0  0  0  0  0
   20.6106   17.5949   19.5837 H   0  0  0  0  0  0  0  0  0  0  0  0
   20.8267   19.3515   19.4949 H   0  0  0  0  0  0  0  0  0  0  0  0
   21.3126   18.4669   20.9536 H   0  0  0  0  0  0  0  0  0  0  0  0
   19.1316   18.7211   20.7349 C   0  0  0  0  0  0  0  0  0  0  0  0
   18.8492   17.8623   21.3596 H   0  0  0  0  0  0  0  0  0  0  0  0
   18.4278   18.7250   19.8907 H   0  0  0  0  0  0  0  0  0  0  0  0
   18.9578   20.0436   21.5256 C   0  0  0  0  0  0  0  0  0  0  0  0
   19.6154   20.8221   21.1151 H   0  0  0  0  0  0  0  0  0  0  0  0
   17.9335   20.4057   21.3614 H   0  0  0  0  0  0  0  0  0  0  0  0
   19.1666   19.9186   23.0567 C   0  0  0  0  0  0  0  0  0  0  0  0
   18.4422   19.1949   23.4498 H   0  0  0  0  0  0  0  0  0  0  0  0
   18.9284   20.8882   23.5151 H   0  0  0  0  0  0  0  0  0  0  0  0
   20.5993   19.5035   23.4689 C   0  0  0  0  0  0  0  0  0  0  0  0
   20.7811   18.4606   23.1811 H   0  0  0  0  0  0  0  0  0  0  0  0
   21.3176   20.1068   22.8970 H   0  0  0  0  0  0  0  0  0  0  0  0
   20.9174   19.6894   24.9793 C   0  0  0  0  0  0  0  0  0  0  0  0
   20.8442   20.7540   25.2373 H   0  0  0  0  0  0  0  0  0  0  0  0
   21.9719   19.4250   25.1333 H   0  0  0  0  0  0  0  0  0  0  0  0
   20.0773   18.8676   25.9901 C   0  0  2  0  0  0  0  0  0  0  0  0
   20.5709   18.9633   26.9622 H   0  0  0  0  0  0  0  0  0  0  0  0
   20.0379   17.3696   25.6413 C   0  0  0  0  0  0  0  0  0  0  0  0
   19.4712   17.1828   24.7212 H   0  0  0  0  0  0  0  0  0  0  0  0
   21.0527   16.9750   25.5070 H   0  0  0  0  0  0  0  0  0  0  0  0
   19.5631   16.7995   26.4492 H   0  0  0  0  0  0  0  0  0  0  0  0
   18.6926   19.4178   26.1931 N   0  3  0  0  0  0  0  0  0  0  0  0
   18.1819   18.8895   26.9064 H   0  0  0  0  0  0  0  0  0  0  0  0
   18.1478   19.3778   25.3293 H   0  0  0  0  0  0  0  0  0  0  0  0
   18.7194   20.3953   26.4972 H   0  0  0  0  0  0  0  0  0  0  0  0
  1  2  1  0  0  0  0
  1  3  1  0  0  0  0
  1  4  1  0  0  0  0
  1  5  1  0  0  0  0
  5  6  1  0  0  0  0
  5  7  1  0  0  0  0
  5  8  1  0  0  0  0
  8  9  1  0  0  0  0
  8 10  1  0  0  0  0
  8 11  1  0  0  0  0
 11 12  1  0  0  0  0
 11 13  1  0  0  0  0
 11 14  1  0  0  0  0
 14 15  1  0  0  0  0
 14 16  1  0  0  0  0
 14 17  1  0  0  0  0
 17 18  1  0  0  0  0
 17 19  1  0  0  0  0
 17 20  1  0  0  0  0
 20 21  1  0  0  0  0
 20 22  1  0  0  0  0
 22 23  1  0  0  0  0
 22 24  1  0  0  0  0
 22 25  1  0  0  0  0
 20 26  1  0  0  0  0
 26 27  1  0  0  0  0
 26 28  1  0  0  0  0
 26 29  1  0  0  0  0
M  END
> <VM2 Rank>
184

> <Conf_Id>
1245

> <Probability>
0.00

> <Sum Probability>
100.00

> <Delta G>
6.387

> <G>
40.089

> <E>
1.771

> <-TS>
38.318

> <U+W>
-22.374

> <U>
30.296

> <W>
-52.670

> <W(PB)>
-55.068

> <W(SA)>
2.399

> <Valence>
7.940

> <Coulomb>
21.395

> <VdW>
0.961

> <VdW6>
-11.719

> <VdW12>
12.680

> <Bond>
0.376

> <Angle>
2.868

> <Pdih>
4.695

> <Idih>
0.000

> <Tether>
0.000

$$$$
VeraChem MOL file


 29 28  0  0  0  0  0  0  0  0999 V2000     
   20.4922   19.7846   19.5626 C   0  0  0  0  0  0  0  0  0  0  0  0
   19.6040   20.2976   19.1714 H   0  0  0  0  0  0  0  0  0  0  0  0
   21.3624   20.4272   19.3761 H   0  0  0  0  0  0  0  0  0  0  0  0
   20.6303   18.8567   18.9923 H   0  0  0  0  0  0  0  0  0  0  0  0
   20.3440   19.4924   21.0708 C   0  0  0  0  0  0  0  0  0  0  0  0
   20.2459   20.4444   21.6093 H   0  0  0  0  0  0  0  0  0  0  0  0
   21.2577   19.0052   21.4383 H   0  0  0  0  0  0  0  0  0  0  0  0
   19.1200   18.5935   21.3597 C   0  0  0  0  0  0  0  0  0  0  0  0
   18.2041   19.1076   21.0375 H   0  0  0  0  0  0  0  0  0  0  0  0
   19.1924   17.6853   20.7455 H   0  0  0  0  0  0  0  0  0  0  0  0
   18.9777   18.1688   22.8441 C   0  0  0  0  0  0  0  0  0  0  0  0
   19.8521   17.5784   23.1448 H   0  0  0  0  0  0  0  0  0  0  0  0
   18.1199   17.4858   22.9129 H   0  0  0  0  0  0  0  0  0  0  0  0
   18.7388   19.3461   23.8282 C   0  0  0  0  0  0  0  0  0  0  0  0
   18.2212   20.1552   23.2946 H   0  0  0  0  0  0  0  0  0  0  0  0
   18.0372   19.0248   24.6085 H   0  0  0  0  0  0  0  0  0  0  0  0
   20.0302   19.9120   24.4873 C   0  0  0  0  0  0  0  0  0  0  0  0
   19.9073   20.9955   24.6143 H   0  0  0  0  0  0  0  0  0  0  0  0
   20.8865   19.7933   23.8130 H   0  0  0  0  0  0  0  0  0  0  0  0
   20.3962   19.3173   25.8699 C   0  0  2  0  0  0  0  0  0  0  0  0
   21.3186   19.8066   26.1977 H   0  0  0  0  0  0  0  0  0  0  0  0
   20.6702   17.8055   25.8119 C   0  0  0  0  0  0  0  0  0  0  0  0
   19.7636   17.2413   25.5622 H   0  0  0  0  0  0  0  0  0  0  0  0
   21.4388   17.5779   25.0631 H   0  0  0  0  0  0  0  0  0  0  0  0
   21.0343   17.4438   26.7813 H   0  0  0  0  0  0  0  0  0  0  0  0
   19.3667   19.6357   26.9195 N   0  3  0  0  0  0  0  0  0  0  0  0
   19.2142   20.6450   27.0019 H   0  0  0  0  0  0  0  0  0  0  0  0
   19.6540   19.2935   27.8409 H   0  0  0  0  0  0  0  0  0  0  0  0
   18.4654   19.2050   26.6994 H   0  0  0  0  0  0  0  0  0  0  0  0
  1  2  1  0  0  0  0
  1  3  1  0  0  0  0
  1  4  1  0  0  0  0
  1  5  1  0  0  0  0
  5  6  1  0  0  0  0
  5  7  1  0  0  0  0
  5  8  1  0  0  0  0
  8  9  1  0  0  0  0
  8 10  1  0  0  0  0
  8 11  1  0  0  0  0
 11 12  1  0  0  0  0
 11 13  1  0  0  0  0
 11 14  1  0  0  0  0
 14 15  1  0  0  0  0
 14 16  1  0  0  0  0
 14 17  1  0  0  0  0
 17 18  1  0  0  0  0
 17 19  1  0  0  0  0
 17 20  1  0  0  0  0
 20 21  1  0  0  0  0
 20 22  1  0  0  0  0
 22 23  1  0  0  0  0
 22 24  1  0  0  0  0
 22 25  1  0  0  0  0
 20 26  1  0  0  0  0
 26 27  1  0  0  0  0
 26 28  1  0  0  0  0
 26 29  1  0  0  0  0
M  END
> <VM2 Rank>
185

> <Conf_Id>
988

> <Probability>
0.00

> <Sum Probability>
100.00

> <Delta G>
6.391

> <G>
40.093

> <E>
1.856

> <-TS>
38.238

> <U+W>
-22.289

> <U>
30.254

> <W>
-52.543

> <W(PB)>
-54.955

> <W(SA)>
2.412

> <Valence>
8.875

> <Coulomb>
20.220

> <VdW>
1.159

> <VdW6>
-11.235

> <VdW12>
12.394

> <Bond>
0.376

> <Angle>
2.277

> <Pdih>
6.221

> <Idih>
0.000

> <Tether>
0.000

$$$$
VeraChem MOL file


 29 28  0  0  0  0  0  0  0  0999 V2000     
   19.7073   18.2252   20.1337 C   0  0  0  0  0  0  0  0  0  0  0  0
   19.4012   17.6082   20.9877 H   0  0  0  0  0  0  0  0  0  0  0  0
   19.2995   17.7583   19.2279 H   0  0  0  0  0  0  0  0  0  0  0  0
   20.8022   18.2015   20.0597 H   0  0  0  0  0  0  0  0  0  0  0  0
   19.1904   19.6737   20.2738 C   0  0  0  0  0  0  0  0  0  0  0  0
   18.0971   19.6607   20.3850 H   0  0  0  0  0  0  0  0  0  0  0  0
   19.3946   20.2129   19.3382 H   0  0  0  0  0  0  0  0  0  0  0  0
   19.8214   20.4658   21.4473 C   0  0  0  0  0  0  0  0  0  0  0  0
   20.9046   20.5695   21.2951 H   0  0  0  0  0  0  0  0  0  0  0  0
   19.4182   21.4874   21.4106 H   0  0  0  0  0  0  0  0  0  0  0  0
   19.5281   19.8793   22.8526 C   0  0  0  0  0  0  0  0  0  0  0  0
   18.5726   19.3371   22.8386 H   0  0  0  0  0  0  0  0  0  0  0  0
   19.4053   20.7209   23.5454 H   0  0  0  0  0  0  0  0  0  0  0  0
   20.6644   18.9682   23.3826 C   0  0  0  0  0  0  0  0  0  0  0  0
   20.9681   18.2658   22.5972 H   0  0  0  0  0  0  0  0  0  0  0  0
   21.5522   19.5808   23.5924 H   0  0  0  0  0  0  0  0  0  0  0  0
   20.3002   18.1412   24.6436 C   0  0  0  0  0  0  0  0  0  0  0  0
   21.1425   17.4643   24.8391 H   0  0  0  0  0  0  0  0  0  0  0  0
   19.4382   17.4938   24.4354 H   0  0  0  0  0  0  0  0  0  0  0  0
   20.0364   18.9792   25.9171 C   0  0  2  0  0  0  0  0  0  0  0  0
   20.7684   19.7919   25.9533 H   0  0  0  0  0  0  0  0  0  0  0  0
   20.2165   18.1126   27.1744 C   0  0  0  0  0  0  0  0  0  0  0  0
   19.5133   17.2703   27.1796 H   0  0  0  0  0  0  0  0  0  0  0  0
   21.2351   17.7083   27.2280 H   0  0  0  0  0  0  0  0  0  0  0  0
   20.0477   18.7049   28.0822 H   0  0  0  0  0  0  0  0  0  0  0  0
   18.6713   19.6107   25.9290 N   0  3  0  0  0  0  0  0  0  0  0  0
   18.5265   20.2026   25.1078 H   0  0  0  0  0  0  0  0  0  0  0  0
   18.5369   20.1947   26.7595 H   0  0  0  0  0  0  0  0  0  0  0  0
   17.9341   18.9007   25.9314 H   0  0  0  0  0  0  0  0  0  0  0  0
  1  2  1  0  0  0  0
  1  3  1  0  0  0  0
  1  4  1  0  0  0  0
  1  5  1  0  0  0  0
  5  6  1  0  0  0  0
  5  7  1  0  0  0  0
  5  8  1  0  0  0  0
  8  9  1  0  0  0  0
  8 10  1  0  0  0  0
  8 11  1  0  0  0  0
 11 12  1  0  0  0  0
 11 13  1  0  0  0  0
 11 14  1  0  0  0  0
 14 15  1  0  0  0  0
 14 16  1  0  0  0  0
 14 17  1  0  0  0  0
 17 18  1  0  0  0  0
 17 19  1  0  0  0  0
 17 20  1  0  0  0  0
 20 21  1  0  0  0  0
 20 22  1  0  0  0  0
 22 23  1  0  0  0  0
 22 24  1  0  0  0  0
 22 25  1  0  0  0  0
 20 26  1  0  0  0  0
 26 27  1  0  0  0  0
 26 28  1  0  0  0  0
 26 29  1  0  0  0  0
M  END
> <VM2 Rank>
186

> <Conf_Id>
323

> <Probability>
0.00

> <Sum Probability>
100.00

> <Delta G>
6.430

> <G>
40.133

> <E>
2.284

> <-TS>
37.849

> <U+W>
-21.861

> <U>
30.313

> <W>
-52.173

> <W(PB)>
-54.606

> <W(SA)>
2.433

> <Valence>
7.950

> <Coulomb>
21.217

> <VdW>
1.147

> <VdW6>
-10.650

> <VdW12>
11.797

> <Bond>
0.329

> <Angle>
2.263

> <Pdih>
5.358

> <Idih>
0.000

> <Tether>
0.000

$$$$
VeraChem MOL file


 29 28  0  0  0  0  0  0  0  0999 V2000     
   20.6601   19.0527   19.8071 C   0  0  0  0  0  0  0  0  0  0  0  0
   20.6990   18.3214   18.9894 H   0  0  0  0  0  0  0  0  0  0  0  0
   21.0379   20.0073   19.4184 H   0  0  0  0  0  0  0  0  0  0  0  0
   21.3468   18.7139   20.5910 H   0  0  0  0  0  0  0  0  0  0  0  0
   19.2125   19.2053   20.3292 C   0  0  0  0  0  0  0  0  0  0  0  0
   18.8095   18.2282   20.6299 H   0  0  0  0  0  0  0  0  0  0  0  0
   18.5844   19.5463   19.4942 H   0  0  0  0  0  0  0  0  0  0  0  0
   19.0879   20.2229   21.4923 C   0  0  0  0  0  0  0  0  0  0  0  0
   19.9016   20.9596   21.4425 H   0  0  0  0  0  0  0  0  0  0  0  0
   18.1619   20.7964   21.3467 H   0  0  0  0  0  0  0  0  0  0  0  0
   19.0287   19.5920   22.9077 C   0  0  0  0  0  0  0  0  0  0  0  0
   18.1499   18.9362   22.9774 H   0  0  0  0  0  0  0  0  0  0  0  0
   18.8720   20.4110   23.6187 H   0  0  0  0  0  0  0  0  0  0  0  0
   20.2999   18.8017   23.3040 C   0  0  0  0  0  0  0  0  0  0  0  0
   20.4745   18.0130   22.5619 H   0  0  0  0  0  0  0  0  0  0  0  0
   21.1735   19.4666   23.2632 H   0  0  0  0  0  0  0  0  0  0  0  0
   20.2361   18.1148   24.6939 C   0  0  0  0  0  0  0  0  0  0  0  0
   21.1476   17.5103   24.7937 H   0  0  0  0  0  0  0  0  0  0  0  0
   19.4013   17.4023   24.7265 H   0  0  0  0  0  0  0  0  0  0  0  0
   20.1509   19.0837   25.8972 C   0  0  2  0  0  0  0  0  0  0  0  0
   20.7618   19.9644   25.6763 H   0  0  0  0  0  0  0  0  0  0  0  0
   20.7098   18.4161   27.1647 C   0  0  0  0  0  0  0  0  0  0  0  0
   20.6644   19.1034   28.0185 H   0  0  0  0  0  0  0  0  0  0  0  0
   20.1411   17.5134   27.4213 H   0  0  0  0  0  0  0  0  0  0  0  0
   21.7601   18.1308   27.0256 H   0  0  0  0  0  0  0  0  0  0  0  0
   18.7501   19.5667   26.1579 N   0  3  0  0  0  0  0  0  0  0  0  0
   18.1314   18.7914   26.4102 H   0  0  0  0  0  0  0  0  0  0  0  0
   18.3509   20.0229   25.3345 H   0  0  0  0  0  0  0  0  0  0  0  0
   18.7247   20.2413   26.9281 H   0  0  0  0  0  0  0  0  0  0  0  0
  1  2  1  0  0  0  0
  1  3  1  0  0  0  0
  1  4  1  0  0  0  0
  1  5  1  0  0  0  0
  5  6  1  0  0  0  0
  5  7  1  0  0  0  0
  5  8  1  0  0  0  0
  8  9  1  0  0  0  0
  8 10  1  0  0  0  0
  8 11  1  0  0  0  0
 11 12  1  0  0  0  0
 11 13  1  0  0  0  0
 11 14  1  0  0  0  0
 14 15  1  0  0  0  0
 14 16  1  0  0  0  0
 14 17  1  0  0  0  0
 17 18  1  0  0  0  0
 17 19  1  0  0  0  0
 17 20  1  0  0  0  0
 20 21  1  0  0  0  0
 20 22  1  0  0  0  0
 22 23  1  0  0  0  0
 22 24  1  0  0  0  0
 22 25  1  0  0  0  0
 20 26  1  0  0  0  0
 26 27  1  0  0  0  0
 26 28  1  0  0  0  0
 26 29  1  0  0  0  0
M  END
> <VM2 Rank>
187

> <Conf_Id>
1628

> <Probability>
0.00

> <Sum Probability>
100.00

> <Delta G>
6.438

> <G>
40.141

> <E>
2.578

> <-TS>
37.563

> <U+W>
-21.567

> <U>
30.680

> <W>
-52.247

> <W(PB)>
-54.672

> <W(SA)>
2.425

> <Valence>
8.266

> <Coulomb>
21.123

> <VdW>
1.291

> <VdW6>
-10.406

> <VdW12>
11.697

> <Bond>
0.334

> <Angle>
2.443

> <Pdih>
5.488

> <Idih>
0.000

> <Tether>
0.000

$$$$
VeraChem MOL file


 29 28  0  0  0  0  0  0  0  0999 V2000     
   20.7439   20.0040   20.0878 C   0  0  0  0  0  0  0  0  0  0  0  0
   20.4606   21.0552   19.9477 H   0  0  0  0  0  0  0  0  0  0  0  0
   21.4088   19.9467   20.9564 H   0  0  0  0  0  0  0  0  0  0  0  0
   21.3215   19.6949   19.2070 H   0  0  0  0  0  0  0  0  0  0  0  0
   19.4911   19.1123   20.2523 C   0  0  0  0  0  0  0  0  0  0  0  0
   19.7817   18.0552   20.3284 H   0  0  0  0  0  0  0  0  0  0  0  0
   18.8942   19.1960   19.3334 H   0  0  0  0  0  0  0  0  0  0  0  0
   18.6007   19.5146   21.4562 C   0  0  0  0  0  0  0  0  0  0  0  0
   18.6794   20.5945   21.6427 H   0  0  0  0  0  0  0  0  0  0  0  0
   17.5524   19.3386   21.1778 H   0  0  0  0  0  0  0  0  0  0  0  0
   18.8733   18.7257   22.7629 C   0  0  0  0  0  0  0  0  0  0  0  0
   18.6979   17.6561   22.5827 H   0  0  0  0  0  0  0  0  0  0  0  0
   18.1242   19.0297   23.5023 H   0  0  0  0  0  0  0  0  0  0  0  0
   20.2997   18.9175   23.3362 C   0  0  0  0  0  0  0  0  0  0  0  0
   21.0114   18.4479   22.6447 H   0  0  0  0  0  0  0  0  0  0  0  0
   20.5604   19.9842   23.3730 H   0  0  0  0  0  0  0  0  0  0  0  0
   20.5015   18.2738   24.7332 C   0  0  0  0  0  0  0  0  0  0  0  0
   21.5478   17.9481   24.8048 H   0  0  0  0  0  0  0  0  0  0  0  0
   19.8953   17.3628   24.8251 H   0  0  0  0  0  0  0  0  0  0  0  0
   20.2251   19.2290   25.9178 C   0  0  2  0  0  0  0  0  0  0  0  0
   20.8634   20.1099   25.7986 H   0  0  0  0  0  0  0  0  0  0  0  0
   20.5911   18.5482   27.2464 C   0  0  0  0  0  0  0  0  0  0  0  0
   21.6451   18.2434   27.2516 H   0  0  0  0  0  0  0  0  0  0  0  0
   20.4395   19.2340   28.0891 H   0  0  0  0  0  0  0  0  0  0  0  0
   19.9764   17.6555   27.4173 H   0  0  0  0  0  0  0  0  0  0  0  0
   18.8096   19.7309   25.9610 N   0  3  0  0  0  0  0  0  0  0  0  0
   18.5679   20.2240   25.0970 H   0  0  0  0  0  0  0  0  0  0  0  0
   18.6668   20.3818   26.7386 H   0  0  0  0  0  0  0  0  0  0  0  0
   18.1455   18.9610   26.0775 H   0  0  0  0  0  0  0  0  0  0  0  0
  1  2  1  0  0  0  0
  1  3  1  0  0  0  0
  1  4  1  0  0  0  0
  1  5  1  0  0  0  0
  5  6  1  0  0  0  0
  5  7  1  0  0  0  0
  5  8  1  0  0  0  0
  8  9  1  0  0  0  0
  8 10  1  0  0  0  0
  8 11  1  0  0  0  0
 11 12  1  0  0  0  0
 11 13  1  0  0  0  0
 11 14  1  0  0  0  0
 14 15  1  0  0  0  0
 14 16  1  0  0  0  0
 14 17  1  0  0  0  0
 17 18  1  0  0  0  0
 17 19  1  0  0  0  0
 17 20  1  0  0  0  0
 20 21  1  0  0  0  0
 20 22  1  0  0  0  0
 22 23  1  0  0  0  0
 22 24  1  0  0  0  0
 22 25  1  0  0  0  0
 20 26  1  0  0  0  0
 26 27  1  0  0  0  0
 26 28  1  0  0  0  0
 26 29  1  0  0  0  0
M  END
> <VM2 Rank>
188

> <Conf_Id>
357

> <Probability>
0.00

> <Sum Probability>
100.00

> <Delta G>
6.519

> <G>
40.221

> <E>
2.432

> <-TS>
37.789

> <U+W>
-21.713

> <U>
30.319

> <W>
-52.032

> <W(PB)>
-54.489

> <W(SA)>
2.457

> <Valence>
8.319

> <Coulomb>
20.774

> <VdW>
1.226

> <VdW6>
-10.364

> <VdW12>
11.590

> <Bond>
0.335

> <Angle>
2.135

> <Pdih>
5.849

> <Idih>
0.000

> <Tether>
0.000

$$$$
VeraChem MOL file


 29 28  0  0  0  0  0  0  0  0999 V2000     
   19.5202   21.1213   21.1049 C   0  0  0  0  0  0  0  0  0  0  0  0
   20.0781   21.6398   21.8955 H   0  0  0  0  0  0  0  0  0  0  0  0
   20.1280   21.1373   20.1908 H   0  0  0  0  0  0  0  0  0  0  0  0
   18.6029   21.6919   20.9100 H   0  0  0  0  0  0  0  0  0  0  0  0
   19.1836   19.6742   21.5210 C   0  0  0  0  0  0  0  0  0  0  0  0
   18.5935   19.1956   20.7269 H   0  0  0  0  0  0  0  0  0  0  0  0
   18.5421   19.6918   22.4101 H   0  0  0  0  0  0  0  0  0  0  0  0
   20.4622   18.8424   21.7824 C   0  0  0  0  0  0  0  0  0  0  0  0
   20.9992   18.7384   20.8294 H   0  0  0  0  0  0  0  0  0  0  0  0
   21.1492   19.3755   22.4530 H   0  0  0  0  0  0  0  0  0  0  0  0
   20.1619   17.4275   22.3381 C   0  0  0  0  0  0  0  0  0  0  0  0
   20.8627   16.7243   21.8672 H   0  0  0  0  0  0  0  0  0  0  0  0
   19.1625   17.0986   22.0213 H   0  0  0  0  0  0  0  0  0  0  0  0
   20.3110   17.2682   23.8754 C   0  0  0  0  0  0  0  0  0  0  0  0
   20.1509   16.2061   24.1069 H   0  0  0  0  0  0  0  0  0  0  0  0
   21.3472   17.4716   24.1717 H   0  0  0  0  0  0  0  0  0  0  0  0
   19.3145   18.0897   24.7388 C   0  0  0  0  0  0  0  0  0  0  0  0
   19.2190   17.6041   25.7191 H   0  0  0  0  0  0  0  0  0  0  0  0
   18.3195   18.0281   24.2794 H   0  0  0  0  0  0  0  0  0  0  0  0
   19.6889   19.5744   24.9695 C   0  0  2  0  0  0  0  0  0  0  0  0
   19.8791   20.0456   24.0029 H   0  0  0  0  0  0  0  0  0  0  0  0
   20.9500   19.7289   25.8384 C   0  0  0  0  0  0  0  0  0  0  0  0
   21.8337   19.3132   25.3416 H   0  0  0  0  0  0  0  0  0  0  0  0
   21.1574   20.7886   26.0317 H   0  0  0  0  0  0  0  0  0  0  0  0
   20.8303   19.2249   26.8055 H   0  0  0  0  0  0  0  0  0  0  0  0
   18.5437   20.3295   25.5855 N   0  3  0  0  0  0  0  0  0  0  0  0
   18.3047   19.9563   26.5082 H   0  0  0  0  0  0  0  0  0  0  0  0
   17.7014   20.2788   25.0055 H   0  0  0  0  0  0  0  0  0  0  0  0
   18.7717   21.3204   25.7073 H   0  0  0  0  0  0  0  0  0  0  0  0
  1  2  1  0  0  0  0
  1  3  1  0  0  0  0
  1  4  1  0  0  0  0
  1  5  1  0  0  0  0
  5  6  1  0  0  0  0
  5  7  1  0  0  0  0
  5  8  1  0  0  0  0
  8  9  1  0  0  0  0
  8 10  1  0  0  0  0
  8 11  1  0  0  0  0
 11 12  1  0  0  0  0
 11 13  1  0  0  0  0
 11 14  1  0  0  0  0
 14 15  1  0  0  0  0
 14 16  1  0  0  0  0
 14 17  1  0  0  0  0
 17 18  1  0  0  0  0
 17 19  1  0  0  0  0
 17 20  1  0  0  0  0
 20 21  1  0  0  0  0
 20 22  1  0  0  0  0
 22 23  1  0  0  0  0
 22 24  1  0  0  0  0
 22 25  1  0  0  0  0
 20 26  1  0  0  0  0
 26 27  1  0  0  0  0
 26 28  1  0  0  0  0
 26 29  1  0  0  0  0
M  END
> <VM2 Rank>
189

> <Conf_Id>
524

> <Probability>
0.00

> <Sum Probability>
100.00

> <Delta G>
6.521

> <G>
40.223

> <E>
1.924

> <-TS>
38.300

> <U+W>
-22.221

> <U>
30.677

> <W>
-52.897

> <W(PB)>
-55.275

> <W(SA)>
2.378

> <Valence>
8.877

> <Coulomb>
21.328

> <VdW>
0.472

> <VdW6>
-11.982

> <VdW12>
12.454

> <Bond>
0.338

> <Angle>
2.800

> <Pdih>
5.738

> <Idih>
0.000

> <Tether>
0.000

$$$$
VeraChem MOL file


 29 28  0  0  0  0  0  0  0  0999 V2000     
   20.9071   19.1723   20.3031 C   0  0  0  0  0  0  0  0  0  0  0  0
   20.4433   19.7763   19.5125 H   0  0  0  0  0  0  0  0  0  0  0  0
   21.9838   19.1203   20.0958 H   0  0  0  0  0  0  0  0  0  0  0  0
   20.5071   18.1535   20.2330 H   0  0  0  0  0  0  0  0  0  0  0  0
   20.6538   19.7923   21.6962 C   0  0  0  0  0  0  0  0  0  0  0  0
   21.1380   20.7781   21.7331 H   0  0  0  0  0  0  0  0  0  0  0  0
   21.1456   19.1785   22.4605 H   0  0  0  0  0  0  0  0  0  0  0  0
   19.1469   19.9660   22.0167 C   0  0  0  0  0  0  0  0  0  0  0  0
   19.0175   20.6621   22.8558 H   0  0  0  0  0  0  0  0  0  0  0  0
   18.6690   20.4584   21.1585 H   0  0  0  0  0  0  0  0  0  0  0  0
   18.3959   18.6410   22.3148 C   0  0  0  0  0  0  0  0  0  0  0  0
   18.8729   17.7988   21.7980 H   0  0  0  0  0  0  0  0  0  0  0  0
   17.3914   18.7189   21.8762 H   0  0  0  0  0  0  0  0  0  0  0  0
   18.2168   18.2976   23.8181 C   0  0  0  0  0  0  0  0  0  0  0  0
   17.6315   19.0825   24.3138 H   0  0  0  0  0  0  0  0  0  0  0  0
   17.5933   17.3944   23.8723 H   0  0  0  0  0  0  0  0  0  0  0  0
   19.5275   18.0109   24.5988 C   0  0  0  0  0  0  0  0  0  0  0  0
   20.2066   17.4317   23.9593 H   0  0  0  0  0  0  0  0  0  0  0  0
   19.2933   17.3610   25.4524 H   0  0  0  0  0  0  0  0  0  0  0  0
   20.2487   19.2696   25.1331 C   0  0  2  0  0  0  0  0  0  0  0  0
   20.4196   19.9573   24.3019 H   0  0  0  0  0  0  0  0  0  0  0  0
   21.6142   18.8897   25.7268 C   0  0  0  0  0  0  0  0  0  0  0  0
   22.2450   18.4018   24.9733 H   0  0  0  0  0  0  0  0  0  0  0  0
   22.1466   19.7821   26.0786 H   0  0  0  0  0  0  0  0  0  0  0  0
   21.5013   18.2025   26.5746 H   0  0  0  0  0  0  0  0  0  0  0  0
   19.4251   20.0166   26.1465 N   0  3  0  0  0  0  0  0  0  0  0  0
   19.9087   20.8568   26.4762 H   0  0  0  0  0  0  0  0  0  0  0  0
   19.2269   19.4361   26.9658 H   0  0  0  0  0  0  0  0  0  0  0  0
   18.5274   20.3127   25.7543 H   0  0  0  0  0  0  0  0  0  0  0  0
  1  2  1  0  0  0  0
  1  3  1  0  0  0  0
  1  4  1  0  0  0  0
  1  5  1  0  0  0  0
  5  6  1  0  0  0  0
  5  7  1  0  0  0  0
  5  8  1  0  0  0  0
  8  9  1  0  0  0  0
  8 10  1  0  0  0  0
  8 11  1  0  0  0  0
 11 12  1  0  0  0  0
 11 13  1  0  0  0  0
 11 14  1  0  0  0  0
 14 15  1  0  0  0  0
 14 16  1  0  0  0  0
 14 17  1  0  0  0  0
 17 18  1  0  0  0  0
 17 19  1  0  0  0  0
 17 20  1  0  0  0  0
 20 21  1  0  0  0  0
 20 22  1  0  0  0  0
 22 23  1  0  0  0  0
 22 24  1  0  0  0  0
 22 25  1  0  0  0  0
 20 26  1  0  0  0  0
 26 27  1  0  0  0  0
 26 28  1  0  0  0  0
 26 29  1  0  0  0  0
M  END
> <VM2 Rank>
190

> <Conf_Id>
330

> <Probability>
0.00

> <Sum Probability>
100.00

> <Delta G>
6.645

> <G>
40.347

> <E>
1.952

> <-TS>
38.395

> <U+W>
-22.192

> <U>
30.560

> <W>
-52.753

> <W(PB)>
-55.117

> <W(SA)>
2.365

> <Valence>
8.893

> <Coulomb>
21.063

> <VdW>
0.604

> <VdW6>
-12.044

> <VdW12>
12.649

> <Bond>
0.360

> <Angle>
2.555

> <Pdih>
5.978

> <Idih>
0.000

> <Tether>
0.000

$$$$
VeraChem MOL file


 29 28  0  0  0  0  0  0  0  0999 V2000     
   18.6839   20.2505   20.5821 C   0  0  0  0  0  0  0  0  0  0  0  0
   17.6271   20.3441   20.3003 H   0  0  0  0  0  0  0  0  0  0  0  0
   18.8435   20.8569   21.4803 H   0  0  0  0  0  0  0  0  0  0  0  0
   19.2841   20.6842   19.7717 H   0  0  0  0  0  0  0  0  0  0  0  0
   19.0542   18.7661   20.8078 C   0  0  0  0  0  0  0  0  0  0  0  0
   18.8550   18.2217   19.8741 H   0  0  0  0  0  0  0  0  0  0  0  0
   18.3950   18.3187   21.5647 H   0  0  0  0  0  0  0  0  0  0  0  0
   20.5407   18.5563   21.1952 C   0  0  0  0  0  0  0  0  0  0  0  0
   20.8912   17.6310   20.7175 H   0  0  0  0  0  0  0  0  0  0  0  0
   21.1611   19.3594   20.7742 H   0  0  0  0  0  0  0  0  0  0  0  0
   20.8014   18.4227   22.7176 C   0  0  0  0  0  0  0  0  0  0  0  0
   21.8686   18.2059   22.8622 H   0  0  0  0  0  0  0  0  0  0  0  0
   20.2611   17.5468   23.0951 H   0  0  0  0  0  0  0  0  0  0  0  0
   20.4289   19.6834   23.5381 C   0  0  0  0  0  0  0  0  0  0  0  0
   20.9263   20.5480   23.0774 H   0  0  0  0  0  0  0  0  0  0  0  0
   19.3520   19.8764   23.4720 H   0  0  0  0  0  0  0  0  0  0  0  0
   20.8661   19.6070   25.0280 C   0  0  0  0  0  0  0  0  0  0  0  0
   21.1588   20.6144   25.3518 H   0  0  0  0  0  0  0  0  0  0  0  0
   21.7759   18.9996   25.1214 H   0  0  0  0  0  0  0  0  0  0  0  0
   19.8004   19.0917   26.0269 C   0  0  2  0  0  0  0  0  0  0  0  0
   20.2666   19.0846   27.0170 H   0  0  0  0  0  0  0  0  0  0  0  0
   19.3382   17.6573   25.7249 C   0  0  0  0  0  0  0  0  0  0  0  0
   18.7371   17.6137   24.8091 H   0  0  0  0  0  0  0  0  0  0  0  0
   20.1978   16.9851   25.6123 H   0  0  0  0  0  0  0  0  0  0  0  0
   18.7210   17.2736   26.5465 H   0  0  0  0  0  0  0  0  0  0  0  0
   18.6223   20.0210   26.1334 N   0  3  0  0  0  0  0  0  0  0  0  0
   18.9138   20.9686   26.3900 H   0  0  0  0  0  0  0  0  0  0  0  0
   17.9582   19.7021   26.8447 H   0  0  0  0  0  0  0  0  0  0  0  0
   18.1164   20.0834   25.2466 H   0  0  0  0  0  0  0  0  0  0  0  0
  1  2  1  0  0  0  0
  1  3  1  0  0  0  0
  1  4  1  0  0  0  0
  1  5  1  0  0  0  0
  5  6  1  0  0  0  0
  5  7  1  0  0  0  0
  5  8  1  0  0  0  0
  8  9  1  0  0  0  0
  8 10  1  0  0  0  0
  8 11  1  0  0  0  0
 11 12  1  0  0  0  0
 11 13  1  0  0  0  0
 11 14  1  0  0  0  0
 14 15  1  0  0  0  0
 14 16  1  0  0  0  0
 14 17  1  0  0  0  0
 17 18  1  0  0  0  0
 17 19  1  0  0  0  0
 17 20  1  0  0  0  0
 20 21  1  0  0  0  0
 20 22  1  0  0  0  0
 22 23  1  0  0  0  0
 22 24  1  0  0  0  0
 22 25  1  0  0  0  0
 20 26  1  0  0  0  0
 26 27  1  0  0  0  0
 26 28  1  0  0  0  0
 26 29  1  0  0  0  0
M  END
> <VM2 Rank>
191

> <Conf_Id>
307

> <Probability>
0.00

> <Sum Probability>
100.00

> <Delta G>
6.647

> <G>
40.349

> <E>
2.326

> <-TS>
38.023

> <U+W>
-21.819

> <U>
30.957

> <W>
-52.775

> <W(PB)>
-55.160

> <W(SA)>
2.385

> <Valence>
9.252

> <Coulomb>
20.527

> <VdW>
1.177

> <VdW6>
-11.186

> <VdW12>
12.364

> <Bond>
0.373

> <Angle>
2.560

> <Pdih>
6.319

> <Idih>
0.000

> <Tether>
0.000

$$$$
VeraChem MOL file


 29 28  0  0  0  0  0  0  0  0999 V2000     
   19.8242   20.5340   20.1560 C   0  0  0  0  0  0  0  0  0  0  0  0
   19.2145   20.9468   19.3419 H   0  0  0  0  0  0  0  0  0  0  0  0
   19.5178   21.0302   21.0831 H   0  0  0  0  0  0  0  0  0  0  0  0
   20.8698   20.8030   19.9578 H   0  0  0  0  0  0  0  0  0  0  0  0
   19.6543   18.9987   20.2326 C   0  0  0  0  0  0  0  0  0  0  0  0
   19.9435   18.5784   19.2592 H   0  0  0  0  0  0  0  0  0  0  0  0
   18.5960   18.7378   20.3718 H   0  0  0  0  0  0  0  0  0  0  0  0
   20.5223   18.3348   21.3325 C   0  0  0  0  0  0  0  0  0  0  0  0
   20.8406   17.3491   20.9660 H   0  0  0  0  0  0  0  0  0  0  0  0
   21.4480   18.9069   21.4835 H   0  0  0  0  0  0  0  0  0  0  0  0
   19.8032   18.1161   22.6887 C   0  0  0  0  0  0  0  0  0  0  0  0
   20.4805   17.5581   23.3464 H   0  0  0  0  0  0  0  0  0  0  0  0
   18.9316   17.4649   22.5360 H   0  0  0  0  0  0  0  0  0  0  0  0
   19.3479   19.4217   23.3866 C   0  0  0  0  0  0  0  0  0  0  0  0
   20.1616   20.1599   23.3921 H   0  0  0  0  0  0  0  0  0  0  0  0
   18.5342   19.8610   22.7948 H   0  0  0  0  0  0  0  0  0  0  0  0
   18.8240   19.1958   24.8295 C   0  0  0  0  0  0  0  0  0  0  0  0
   18.4259   18.1780   24.9358 H   0  0  0  0  0  0  0  0  0  0  0  0
   17.9701   19.8685   24.9851 H   0  0  0  0  0  0  0  0  0  0  0  0
   19.8553   19.4874   25.9462 C   0  0  2  0  0  0  0  0  0  0  0  0
   20.1945   20.5217   25.8336 H   0  0  0  0  0  0  0  0  0  0  0  0
   21.0871   18.5691   25.8770 C   0  0  0  0  0  0  0  0  0  0  0  0
   21.6606   18.7484   24.9601 H   0  0  0  0  0  0  0  0  0  0  0  0
   21.7603   18.7608   26.7215 H   0  0  0  0  0  0  0  0  0  0  0  0
   20.7967   17.5116   25.9062 H   0  0  0  0  0  0  0  0  0  0  0  0
   19.2177   19.3985   27.3049 N   0  3  0  0  0  0  0  0  0  0  0  0
   18.4231   20.0387   27.3914 H   0  0  0  0  0  0  0  0  0  0  0  0
   19.8828   19.6366   28.0463 H   0  0  0  0  0  0  0  0  0  0  0  0
   18.8737   18.4534   27.4951 H   0  0  0  0  0  0  0  0  0  0  0  0
  1  2  1  0  0  0  0
  1  3  1  0  0  0  0
  1  4  1  0  0  0  0
  1  5  1  0  0  0  0
  5  6  1  0  0  0  0
  5  7  1  0  0  0  0
  5  8  1  0  0  0  0
  8  9  1  0  0  0  0
  8 10  1  0  0  0  0
  8 11  1  0  0  0  0
 11 12  1  0  0  0  0
 11 13  1  0  0  0  0
 11 14  1  0  0  0  0
 14 15  1  0  0  0  0
 14 16  1  0  0  0  0
 14 17  1  0  0  0  0
 17 18  1  0  0  0  0
 17 19  1  0  0  0  0
 17 20  1  0  0  0  0
 20 21  1  0  0  0  0
 20 22  1  0  0  0  0
 22 23  1  0  0  0  0
 22 24  1  0  0  0  0
 22 25  1  0  0  0  0
 20 26  1  0  0  0  0
 26 27  1  0  0  0  0
 26 28  1  0  0  0  0
 26 29  1  0  0  0  0
M  END
> <VM2 Rank>
192

> <Conf_Id>
158

> <Probability>
0.00

> <Sum Probability>
100.00

> <Delta G>
6.700

> <G>
40.403

> <E>
2.337

> <-TS>
38.066

> <U+W>
-21.808

> <U>
30.372

> <W>
-52.180

> <W(PB)>
-54.600

> <W(SA)>
2.420

> <Valence>
9.266

> <Coulomb>
19.847

> <VdW>
1.260

> <VdW6>
-10.647

> <VdW12>
11.907

> <Bond>
0.333

> <Angle>
2.435

> <Pdih>
6.497

> <Idih>
0.000

> <Tether>
0.000

$$$$
VeraChem MOL file


 29 28  0  0  0  0  0  0  0  0999 V2000     
   19.1746   20.1949   20.1002 C   0  0  0  0  0  0  0  0  0  0  0  0
   18.7223   20.4184   19.1253 H   0  0  0  0  0  0  0  0  0  0  0  0
   18.3707   20.2149   20.8461 H   0  0  0  0  0  0  0  0  0  0  0  0
   19.8879   20.9966   20.3315 H   0  0  0  0  0  0  0  0  0  0  0  0
   19.8743   18.8188   20.0672 C   0  0  0  0  0  0  0  0  0  0  0  0
   20.5453   18.7859   19.1975 H   0  0  0  0  0  0  0  0  0  0  0  0
   19.1244   18.0325   19.9027 H   0  0  0  0  0  0  0  0  0  0  0  0
   20.7005   18.4916   21.3372 C   0  0  0  0  0  0  0  0  0  0  0  0
   21.1876   17.5206   21.1724 H   0  0  0  0  0  0  0  0  0  0  0  0
   21.5182   19.2162   21.4524 H   0  0  0  0  0  0  0  0  0  0  0  0
   19.8723   18.4000   22.6455 C   0  0  0  0  0  0  0  0  0  0  0  0
   20.2909   17.5938   23.2596 H   0  0  0  0  0  0  0  0  0  0  0  0
   18.8423   18.0952   22.4152 H   0  0  0  0  0  0  0  0  0  0  0  0
   19.8718   19.7167   23.4663 C   0  0  0  0  0  0  0  0  0  0  0  0
   20.9017   20.0296   23.6867 H   0  0  0  0  0  0  0  0  0  0  0  0
   19.4425   20.5192   22.8551 H   0  0  0  0  0  0  0  0  0  0  0  0
   19.0548   19.6193   24.7822 C   0  0  0  0  0  0  0  0  0  0  0  0
   18.2675   18.8598   24.6874 H   0  0  0  0  0  0  0  0  0  0  0  0
   18.5318   20.5745   24.9228 H   0  0  0  0  0  0  0  0  0  0  0  0
   19.8975   19.3594   26.0541 C   0  0  2  0  0  0  0  0  0  0  0  0
   20.6386   20.1600   26.1408 H   0  0  0  0  0  0  0  0  0  0  0  0
   20.6454   18.0163   26.0113 C   0  0  0  0  0  0  0  0  0  0  0  0
   19.9559   17.1826   25.8294 H   0  0  0  0  0  0  0  0  0  0  0  0
   21.4089   18.0165   25.2248 H   0  0  0  0  0  0  0  0  0  0  0  0
   21.1618   17.8305   26.9611 H   0  0  0  0  0  0  0  0  0  0  0  0
   19.0448   19.4389   27.2899 N   0  3  0  0  0  0  0  0  0  0  0  0
   18.5734   20.3450   27.3652 H   0  0  0  0  0  0  0  0  0  0  0  0
   19.6042   19.3151   28.1386 H   0  0  0  0  0  0  0  0  0  0  0  0
   18.3218   18.7145   27.2922 H   0  0  0  0  0  0  0  0  0  0  0  0
  1  2  1  0  0  0  0
  1  3  1  0  0  0  0
  1  4  1  0  0  0  0
  1  5  1  0  0  0  0
  5  6  1  0  0  0  0
  5  7  1  0  0  0  0
  5  8  1  0  0  0  0
  8  9  1  0  0  0  0
  8 10  1  0  0  0  0
  8 11  1  0  0  0  0
 11 12  1  0  0  0  0
 11 13  1  0  0  0  0
 11 14  1  0  0  0  0
 14 15  1  0  0  0  0
 14 16  1  0  0  0  0
 14 17  1  0  0  0  0
 17 18  1  0  0  0  0
 17 19  1  0  0  0  0
 17 20  1  0  0  0  0
 20 21  1  0  0  0  0
 20 22  1  0  0  0  0
 22 23  1  0  0  0  0
 22 24  1  0  0  0  0
 22 25  1  0  0  0  0
 20 26  1  0  0  0  0
 26 27  1  0  0  0  0
 26 28  1  0  0  0  0
 26 29  1  0  0  0  0
M  END
> <VM2 Rank>
193

> <Conf_Id>
1366

> <Probability>
0.00

> <Sum Probability>
100.00

> <Delta G>
6.746

> <G>
40.448

> <E>
2.482

> <-TS>
37.967

> <U+W>
-21.663

> <U>
30.486

> <W>
-52.149

> <W(PB)>
-54.579

> <W(SA)>
2.430

> <Valence>
9.321

> <Coulomb>
19.844

> <VdW>
1.321

> <VdW6>
-10.558

> <VdW12>
11.879

> <Bond>
0.345

> <Angle>
2.343

> <Pdih>
6.633

> <Idih>
0.000

> <Tether>
0.000

$$$$
VeraChem MOL file


 29 28  0  0  0  0  0  0  0  0999 V2000     
   18.9830   20.4261   20.4036 C   0  0  0  0  0  0  0  0  0  0  0  0
   17.9242   20.1664   20.2750 H   0  0  0  0  0  0  0  0  0  0  0  0
   19.0862   20.9618   21.3534 H   0  0  0  0  0  0  0  0  0  0  0  0
   19.2548   21.1220   19.5993 H   0  0  0  0  0  0  0  0  0  0  0  0
   19.8720   19.1620   20.3472 C   0  0  0  0  0  0  0  0  0  0  0  0
   20.9335   19.4378   20.4165 H   0  0  0  0  0  0  0  0  0  0  0  0
   19.7433   18.7029   19.3570 H   0  0  0  0  0  0  0  0  0  0  0  0
   19.5173   18.1083   21.4279 C   0  0  0  0  0  0  0  0  0  0  0  0
   18.4466   18.1568   21.6692 H   0  0  0  0  0  0  0  0  0  0  0  0
   19.6779   17.1107   20.9963 H   0  0  0  0  0  0  0  0  0  0  0  0
   20.3610   18.1941   22.7260 C   0  0  0  0  0  0  0  0  0  0  0  0
   21.4215   18.0475   22.4794 H   0  0  0  0  0  0  0  0  0  0  0  0
   20.0834   17.3487   23.3665 H   0  0  0  0  0  0  0  0  0  0  0  0
   20.1971   19.5222   23.5057 C   0  0  0  0  0  0  0  0  0  0  0  0
   20.6463   20.3262   22.9083 H   0  0  0  0  0  0  0  0  0  0  0  0
   19.1337   19.7722   23.6102 H   0  0  0  0  0  0  0  0  0  0  0  0
   20.8975   19.5128   24.8932 C   0  0  0  0  0  0  0  0  0  0  0  0
   21.3222   20.5094   25.0722 H   0  0  0  0  0  0  0  0  0  0  0  0
   21.7583   18.8315   24.8729 H   0  0  0  0  0  0  0  0  0  0  0  0
   19.9963   19.1682   26.1050 C   0  0  2  0  0  0  0  0  0  0  0  0
   20.6311   19.1946   26.9961 H   0  0  0  0  0  0  0  0  0  0  0  0
   19.3851   17.7606   26.0147 C   0  0  0  0  0  0  0  0  0  0  0  0
   18.6552   17.6908   25.1993 H   0  0  0  0  0  0  0  0  0  0  0  0
   20.1650   17.0069   25.8508 H   0  0  0  0  0  0  0  0  0  0  0  0
   18.8687   17.5064   26.9485 H   0  0  0  0  0  0  0  0  0  0  0  0
   18.9267   20.2016   26.3306 N   0  3  0  0  0  0  0  0  0  0  0  0
   19.3271   21.1370   26.4467 H   0  0  0  0  0  0  0  0  0  0  0  0
   18.3802   19.9962   27.1718 H   0  0  0  0  0  0  0  0  0  0  0  0
   18.2754   20.2407   25.5429 H   0  0  0  0  0  0  0  0  0  0  0  0
  1  2  1  0  0  0  0
  1  3  1  0  0  0  0
  1  4  1  0  0  0  0
  1  5  1  0  0  0  0
  5  6  1  0  0  0  0
  5  7  1  0  0  0  0
  5  8  1  0  0  0  0
  8  9  1  0  0  0  0
  8 10  1  0  0  0  0
  8 11  1  0  0  0  0
 11 12  1  0  0  0  0
 11 13  1  0  0  0  0
 11 14  1  0  0  0  0
 14 15  1  0  0  0  0
 14 16  1  0  0  0  0
 14 17  1  0  0  0  0
 17 18  1  0  0  0  0
 17 19  1  0  0  0  0
 17 20  1  0  0  0  0
 20 21  1  0  0  0  0
 20 22  1  0  0  0  0
 22 23  1  0  0  0  0
 22 24  1  0  0  0  0
 22 25  1  0  0  0  0
 20 26  1  0  0  0  0
 26 27  1  0  0  0  0
 26 28  1  0  0  0  0
 26 29  1  0  0  0  0
M  END
> <VM2 Rank>
194

> <Conf_Id>
223

> <Probability>
0.00

> <Sum Probability>
100.00

> <Delta G>
6.758

> <G>
40.460

> <E>
2.312

> <-TS>
38.148

> <U+W>
-21.832

> <U>
30.788

> <W>
-52.621

> <W(PB)>
-55.023

> <W(SA)>
2.402

> <Valence>
9.278

> <Coulomb>
20.293

> <VdW>
1.217

> <VdW6>
-11.113

> <VdW12>
12.330

> <Bond>
0.365

> <Angle>
2.560

> <Pdih>
6.353

> <Idih>
0.000

> <Tether>
0.000

$$$$
VeraChem MOL file


 29 28  0  0  0  0  0  0  0  0999 V2000     
   20.6279   18.8511   19.9484 C   0  0  0  0  0  0  0  0  0  0  0  0
   21.3605   18.6483   20.7378 H   0  0  0  0  0  0  0  0  0  0  0  0
   20.2955   17.8870   19.5421 H   0  0  0  0  0  0  0  0  0  0  0  0
   21.1441   19.3912   19.1443 H   0  0  0  0  0  0  0  0  0  0  0  0
   19.4257   19.6731   20.4684 C   0  0  0  0  0  0  0  0  0  0  0  0
   18.7384   19.8388   19.6269 H   0  0  0  0  0  0  0  0  0  0  0  0
   19.7550   20.6710   20.7897 H   0  0  0  0  0  0  0  0  0  0  0  0
   18.6508   18.9661   21.6101 C   0  0  0  0  0  0  0  0  0  0  0  0
   17.5780   19.1502   21.4599 H   0  0  0  0  0  0  0  0  0  0  0  0
   18.7760   17.8769   21.5372 H   0  0  0  0  0  0  0  0  0  0  0  0
   19.0112   19.4475   23.0394 C   0  0  0  0  0  0  0  0  0  0  0  0
   18.3491   18.9198   23.7346 H   0  0  0  0  0  0  0  0  0  0  0  0
   18.7807   20.5177   23.1325 H   0  0  0  0  0  0  0  0  0  0  0  0
   20.4857   19.1980   23.4408 C   0  0  0  0  0  0  0  0  0  0  0  0
   20.7210   18.1297   23.3452 H   0  0  0  0  0  0  0  0  0  0  0  0
   21.1377   19.7167   22.7274 H   0  0  0  0  0  0  0  0  0  0  0  0
   20.8708   19.7071   24.8589 C   0  0  0  0  0  0  0  0  0  0  0  0
   20.7420   20.7966   24.9005 H   0  0  0  0  0  0  0  0  0  0  0  0
   21.9476   19.5374   24.9897 H   0  0  0  0  0  0  0  0  0  0  0  0
   20.1511   19.0679   26.0742 C   0  0  2  0  0  0  0  0  0  0  0  0
   20.7200   19.3569   26.9633 H   0  0  0  0  0  0  0  0  0  0  0  0
   20.1447   17.5305   26.0152 C   0  0  0  0  0  0  0  0  0  0  0  0
   19.7599   17.1117   26.9531 H   0  0  0  0  0  0  0  0  0  0  0  0
   19.5142   17.1593   25.1983 H   0  0  0  0  0  0  0  0  0  0  0  0
   21.1607   17.1433   25.8694 H   0  0  0  0  0  0  0  0  0  0  0  0
   18.7681   19.6147   26.2985 N   0  3  0  0  0  0  0  0  0  0  0  0
   18.3444   19.2220   27.1441 H   0  0  0  0  0  0  0  0  0  0  0  0
   18.1497   19.3976   25.5145 H   0  0  0  0  0  0  0  0  0  0  0  0
   18.7816   20.6328   26.4084 H   0  0  0  0  0  0  0  0  0  0  0  0
  1  2  1  0  0  0  0
  1  3  1  0  0  0  0
  1  4  1  0  0  0  0
  1  5  1  0  0  0  0
  5  6  1  0  0  0  0
  5  7  1  0  0  0  0
  5  8  1  0  0  0  0
  8  9  1  0  0  0  0
  8 10  1  0  0  0  0
  8 11  1  0  0  0  0
 11 12  1  0  0  0  0
 11 13  1  0  0  0  0
 11 14  1  0  0  0  0
 14 15  1  0  0  0  0
 14 16  1  0  0  0  0
 14 17  1  0  0  0  0
 17 18  1  0  0  0  0
 17 19  1  0  0  0  0
 17 20  1  0  0  0  0
 20 21  1  0  0  0  0
 20 22  1  0  0  0  0
 22 23  1  0  0  0  0
 22 24  1  0  0  0  0
 22 25  1  0  0  0  0
 20 26  1  0  0  0  0
 26 27  1  0  0  0  0
 26 28  1  0  0  0  0
 26 29  1  0  0  0  0
M  END
> <VM2 Rank>
195

> <Conf_Id>
104

> <Probability>
0.00

> <Sum Probability>
100.00

> <Delta G>
6.813

> <G>
40.515

> <E>
2.306

> <-TS>
38.209

> <U+W>
-21.838

> <U>
30.733

> <W>
-52.571

> <W(PB)>
-54.996

> <W(SA)>
2.425

> <Valence>
8.311

> <Coulomb>
21.302

> <VdW>
1.120

> <VdW6>
-11.478

> <VdW12>
12.598

> <Bond>
0.388

> <Angle>
3.090

> <Pdih>
4.833

> <Idih>
0.000

> <Tether>
0.000

$$$$
VeraChem MOL file


 29 28  0  0  0  0  0  0  0  0999 V2000     
   19.4722   20.8862   21.4399 C   0  0  0  0  0  0  0  0  0  0  0  0
   19.7866   20.8515   22.4880 H   0  0  0  0  0  0  0  0  0  0  0  0
   20.2961   21.3160   20.8556 H   0  0  0  0  0  0  0  0  0  0  0  0
   18.6207   21.5754   21.3710 H   0  0  0  0  0  0  0  0  0  0  0  0
   19.0833   19.4906   20.8987 C   0  0  0  0  0  0  0  0  0  0  0  0
   18.7637   19.6149   19.8546 H   0  0  0  0  0  0  0  0  0  0  0  0
   18.2083   19.0961   21.4325 H   0  0  0  0  0  0  0  0  0  0  0  0
   20.2454   18.4659   20.9345 C   0  0  0  0  0  0  0  0  0  0  0  0
   20.1215   17.7917   20.0757 H   0  0  0  0  0  0  0  0  0  0  0  0
   21.2045   18.9755   20.7692 H   0  0  0  0  0  0  0  0  0  0  0  0
   20.3257   17.5771   22.2056 C   0  0  0  0  0  0  0  0  0  0  0  0
   21.1065   16.8250   22.0262 H   0  0  0  0  0  0  0  0  0  0  0  0
   19.3944   17.0071   22.3275 H   0  0  0  0  0  0  0  0  0  0  0  0
   20.6784   18.3194   23.5196 C   0  0  0  0  0  0  0  0  0  0  0  0
   21.3228   17.6618   24.1179 H   0  0  0  0  0  0  0  0  0  0  0  0
   21.2793   19.2116   23.2988 H   0  0  0  0  0  0  0  0  0  0  0  0
   19.4321   18.6886   24.3659 C   0  0  0  0  0  0  0  0  0  0  0  0
   18.9483   17.7703   24.7242 H   0  0  0  0  0  0  0  0  0  0  0  0
   18.6949   19.1909   23.7302 H   0  0  0  0  0  0  0  0  0  0  0  0
   19.7490   19.6097   25.5657 C   0  0  2  0  0  0  0  0  0  0  0  0
   20.2611   20.5001   25.1882 H   0  0  0  0  0  0  0  0  0  0  0  0
   20.6619   18.9244   26.5982 C   0  0  0  0  0  0  0  0  0  0  0  0
   20.8301   19.5807   27.4610 H   0  0  0  0  0  0  0  0  0  0  0  0
   20.2170   17.9902   26.9629 H   0  0  0  0  0  0  0  0  0  0  0  0
   21.6443   18.6936   26.1702 H   0  0  0  0  0  0  0  0  0  0  0  0
   18.4880   20.0940   26.2258 N   0  3  0  0  0  0  0  0  0  0  0  0
   17.8841   20.5928   25.5660 H   0  0  0  0  0  0  0  0  0  0  0  0
   18.6927   20.7361   26.9969 H   0  0  0  0  0  0  0  0  0  0  0  0
   17.9462   19.3163   26.6121 H   0  0  0  0  0  0  0  0  0  0  0  0
  1  2  1  0  0  0  0
  1  3  1  0  0  0  0
  1  4  1  0  0  0  0
  1  5  1  0  0  0  0
  5  6  1  0  0  0  0
  5  7  1  0  0  0  0
  5  8  1  0  0  0  0
  8  9  1  0  0  0  0
  8 10  1  0  0  0  0
  8 11  1  0  0  0  0
 11 12  1  0  0  0  0
 11 13  1  0  0  0  0
 11 14  1  0  0  0  0
 14 15  1  0  0  0  0
 14 16  1  0  0  0  0
 14 17  1  0  0  0  0
 17 18  1  0  0  0  0
 17 19  1  0  0  0  0
 17 20  1  0  0  0  0
 20 21  1  0  0  0  0
 20 22  1  0  0  0  0
 22 23  1  0  0  0  0
 22 24  1  0  0  0  0
 22 25  1  0  0  0  0
 20 26  1  0  0  0  0
 26 27  1  0  0  0  0
 26 28  1  0  0  0  0
 26 29  1  0  0  0  0
M  END
> <VM2 Rank>
196

> <Conf_Id>
146

> <Probability>
0.00

> <Sum Probability>
100.00

> <Delta G>
6.814

> <G>
40.517

> <E>
2.189

> <-TS>
38.328

> <U+W>
-21.956

> <U>
30.891

> <W>
-52.847

> <W(PB)>
-55.240

> <W(SA)>
2.393

> <Valence>
9.315

> <Coulomb>
20.615

> <VdW>
0.961

> <VdW6>
-11.161

> <VdW12>
12.122

> <Bond>
0.342

> <Angle>
2.654

> <Pdih>
6.319

> <Idih>
0.000

> <Tether>
0.000

$$$$
VeraChem MOL file


 29 28  0  0  0  0  0  0  0  0999 V2000     
   18.0361   19.4503   21.5581 C   0  0  0  0  0  0  0  0  0  0  0  0
   18.1995   19.7486   22.5985 H   0  0  0  0  0  0  0  0  0  0  0  0
   17.8353   20.3591   20.9761 H   0  0  0  0  0  0  0  0  0  0  0  0
   17.1328   18.8275   21.5258 H   0  0  0  0  0  0  0  0  0  0  0  0
   19.2454   18.6817   20.9767 C   0  0  0  0  0  0  0  0  0  0  0  0
   19.0107   18.4272   19.9336 H   0  0  0  0  0  0  0  0  0  0  0  0
   19.3825   17.7224   21.4934 H   0  0  0  0  0  0  0  0  0  0  0  0
   20.5607   19.5002   20.9986 C   0  0  0  0  0  0  0  0  0  0  0  0
   21.1328   19.2385   20.0977 H   0  0  0  0  0  0  0  0  0  0  0  0
   20.3415   20.5726   20.9035 H   0  0  0  0  0  0  0  0  0  0  0  0
   21.4884   19.2523   22.2190 C   0  0  0  0  0  0  0  0  0  0  0  0
   22.4181   19.8091   22.0373 H   0  0  0  0  0  0  0  0  0  0  0  0
   21.7850   18.1952   22.2574 H   0  0  0  0  0  0  0  0  0  0  0  0
   20.9279   19.7047   23.5916 C   0  0  0  0  0  0  0  0  0  0  0  0
   21.7654   20.0712   24.2015 H   0  0  0  0  0  0  0  0  0  0  0  0
   20.2584   20.5631   23.4535 H   0  0  0  0  0  0  0  0  0  0  0  0
   20.2307   18.5636   24.3775 C   0  0  0  0  0  0  0  0  0  0  0  0
   20.9438   17.7380   24.5029 H   0  0  0  0  0  0  0  0  0  0  0  0
   19.3883   18.1567   23.8076 H   0  0  0  0  0  0  0  0  0  0  0  0
   19.7408   19.0079   25.7725 C   0  0  2  0  0  0  0  0  0  0  0  0
   20.5933   19.4231   26.3189 H   0  0  0  0  0  0  0  0  0  0  0  0
   19.2038   17.8018   26.5595 C   0  0  0  0  0  0  0  0  0  0  0  0
   18.8875   18.1041   27.5654 H   0  0  0  0  0  0  0  0  0  0  0  0
   18.3432   17.3480   26.0522 H   0  0  0  0  0  0  0  0  0  0  0  0
   19.9786   17.0331   26.6715 H   0  0  0  0  0  0  0  0  0  0  0  0
   18.7021   20.0936   25.7004 N   0  3  0  0  0  0  0  0  0  0  0  0
   19.0582   20.9189   25.2109 H   0  0  0  0  0  0  0  0  0  0  0  0
   18.4116   20.3938   26.6355 H   0  0  0  0  0  0  0  0  0  0  0  0
   17.8643   19.7756   25.2065 H   0  0  0  0  0  0  0  0  0  0  0  0
  1  2  1  0  0  0  0
  1  3  1  0  0  0  0
  1  4  1  0  0  0  0
  1  5  1  0  0  0  0
  5  6  1  0  0  0  0
  5  7  1  0  0  0  0
  5  8  1  0  0  0  0
  8  9  1  0  0  0  0
  8 10  1  0  0  0  0
  8 11  1  0  0  0  0
 11 12  1  0  0  0  0
 11 13  1  0  0  0  0
 11 14  1  0  0  0  0
 14 15  1  0  0  0  0
 14 16  1  0  0  0  0
 14 17  1  0  0  0  0
 17 18  1  0  0  0  0
 17 19  1  0  0  0  0
 17 20  1  0  0  0  0
 20 21  1  0  0  0  0
 20 22  1  0  0  0  0
 22 23  1  0  0  0  0
 22 24  1  0  0  0  0
 22 25  1  0  0  0  0
 20 26  1  0  0  0  0
 26 27  1  0  0  0  0
 26 28  1  0  0  0  0
 26 29  1  0  0  0  0
M  END
> <VM2 Rank>
197

> <Conf_Id>
313

> <Probability>
0.00

> <Sum Probability>
100.00

> <Delta G>
6.821

> <G>
40.524

> <E>
2.174

> <-TS>
38.350

> <U+W>
-21.971

> <U>
30.724

> <W>
-52.695

> <W(PB)>
-55.088

> <W(SA)>
2.393

> <Valence>
8.746

> <Coulomb>
21.257

> <VdW>
0.720

> <VdW6>
-11.140

> <VdW12>
11.861

> <Bond>
0.332

> <Angle>
2.430

> <Pdih>
5.984

> <Idih>
0.000

> <Tether>
0.000

$$$$
VeraChem MOL file


 29 28  0  0  0  0  0  0  0  0999 V2000     
   18.1419   19.0632   21.1109 C   0  0  0  0  0  0  0  0  0  0  0  0
   18.0731   18.2342   20.3947 H   0  0  0  0  0  0  0  0  0  0  0  0
   18.0169   18.6513   22.1192 H   0  0  0  0  0  0  0  0  0  0  0  0
   17.2989   19.7402   20.9213 H   0  0  0  0  0  0  0  0  0  0  0  0
   19.4845   19.8143   20.9581 C   0  0  0  0  0  0  0  0  0  0  0  0
   19.5285   20.6622   21.6538 H   0  0  0  0  0  0  0  0  0  0  0  0
   19.5256   20.2521   19.9511 H   0  0  0  0  0  0  0  0  0  0  0  0
   20.7198   18.8999   21.1464 C   0  0  0  0  0  0  0  0  0  0  0  0
   20.6580   18.0737   20.4248 H   0  0  0  0  0  0  0  0  0  0  0  0
   21.6228   19.4635   20.8745 H   0  0  0  0  0  0  0  0  0  0  0  0
   20.9077   18.3062   22.5684 C   0  0  0  0  0  0  0  0  0  0  0  0
   21.7496   17.6021   22.5190 H   0  0  0  0  0  0  0  0  0  0  0  0
   20.0371   17.7004   22.8452 H   0  0  0  0  0  0  0  0  0  0  0  0
   21.2332   19.3581   23.6647 C   0  0  0  0  0  0  0  0  0  0  0  0
   21.9433   18.9258   24.3832 H   0  0  0  0  0  0  0  0  0  0  0  0
   21.7686   20.1987   23.2024 H   0  0  0  0  0  0  0  0  0  0  0  0
   20.0029   19.9014   24.4419 C   0  0  0  0  0  0  0  0  0  0  0  0
   19.1102   19.9062   23.8073 H   0  0  0  0  0  0  0  0  0  0  0  0
   20.2017   20.9530   24.6869 H   0  0  0  0  0  0  0  0  0  0  0  0
   19.7004   19.1623   25.7673 C   0  0  2  0  0  0  0  0  0  0  0  0
   20.5992   19.1999   26.3904 H   0  0  0  0  0  0  0  0  0  0  0  0
   19.3253   17.6861   25.5537 C   0  0  0  0  0  0  0  0  0  0  0  0
   18.4689   17.5877   24.8751 H   0  0  0  0  0  0  0  0  0  0  0  0
   20.1675   17.1223   25.1359 H   0  0  0  0  0  0  0  0  0  0  0  0
   19.0604   17.2125   26.5070 H   0  0  0  0  0  0  0  0  0  0  0  0
   18.6204   19.8646   26.5426 N   0  3  0  0  0  0  0  0  0  0  0  0
   17.7353   19.8713   26.0288 H   0  0  0  0  0  0  0  0  0  0  0  0
   18.8700   20.8380   26.7398 H   0  0  0  0  0  0  0  0  0  0  0  0
   18.4483   19.4063   27.4421 H   0  0  0  0  0  0  0  0  0  0  0  0
  1  2  1  0  0  0  0
  1  3  1  0  0  0  0
  1  4  1  0  0  0  0
  1  5  1  0  0  0  0
  5  6  1  0  0  0  0
  5  7  1  0  0  0  0
  5  8  1  0  0  0  0
  8  9  1  0  0  0  0
  8 10  1  0  0  0  0
  8 11  1  0  0  0  0
 11 12  1  0  0  0  0
 11 13  1  0  0  0  0
 11 14  1  0  0  0  0
 14 15  1  0  0  0  0
 14 16  1  0  0  0  0
 14 17  1  0  0  0  0
 17 18  1  0  0  0  0
 17 19  1  0  0  0  0
 17 20  1  0  0  0  0
 20 21  1  0  0  0  0
 20 22  1  0  0  0  0
 22 23  1  0  0  0  0
 22 24  1  0  0  0  0
 22 25  1  0  0  0  0
 20 26  1  0  0  0  0
 26 27  1  0  0  0  0
 26 28  1  0  0  0  0
 26 29  1  0  0  0  0
M  END
> <VM2 Rank>
198

> <Conf_Id>
336

> <Probability>
0.00

> <Sum Probability>
100.00

> <Delta G>
7.033

> <G>
40.735

> <E>
2.113

> <-TS>
38.622

> <U+W>
-22.032

> <U>
30.876

> <W>
-52.907

> <W(PB)>
-55.247

> <W(SA)>
2.340

> <Valence>
9.525

> <Coulomb>
20.452

> <VdW>
0.899

> <VdW6>
-11.877

> <VdW12>
12.776

> <Bond>
0.385

> <Angle>
2.747

> <Pdih>
6.393

> <Idih>
0.000

> <Tether>
0.000

$$$$
VeraChem MOL file


 29 28  0  0  0  0  0  0  0  0999 V2000     
   19.8353   20.9085   21.1550 C   0  0  0  0  0  0  0  0  0  0  0  0
   19.4991   21.8369   20.6755 H   0  0  0  0  0  0  0  0  0  0  0  0
   19.6462   21.0091   22.2302 H   0  0  0  0  0  0  0  0  0  0  0  0
   20.9180   20.8222   20.9963 H   0  0  0  0  0  0  0  0  0  0  0  0
   19.0875   19.6945   20.5619 C   0  0  0  0  0  0  0  0  0  0  0  0
   19.1695   19.7330   19.4666 H   0  0  0  0  0  0  0  0  0  0  0  0
   18.0156   19.7793   20.7889 H   0  0  0  0  0  0  0  0  0  0  0  0
   19.6147   18.3190   21.0446 C   0  0  0  0  0  0  0  0  0  0  0  0
   19.0490   17.5431   20.5105 H   0  0  0  0  0  0  0  0  0  0  0  0
   20.6613   18.1863   20.7377 H   0  0  0  0  0  0  0  0  0  0  0  0
   19.4620   18.0652   22.5665 C   0  0  0  0  0  0  0  0  0  0  0  0
   19.2563   16.9967   22.7189 H   0  0  0  0  0  0  0  0  0  0  0  0
   18.5775   18.5937   22.9380 H   0  0  0  0  0  0  0  0  0  0  0  0
   20.7337   18.4258   23.3790 C   0  0  0  0  0  0  0  0  0  0  0  0
   21.5537   17.7894   23.0185 H   0  0  0  0  0  0  0  0  0  0  0  0
   21.0536   19.4566   23.1863 H   0  0  0  0  0  0  0  0  0  0  0  0
   20.5848   18.2025   24.9067 C   0  0  0  0  0  0  0  0  0  0  0  0
   21.5786   17.9621   25.3076 H   0  0  0  0  0  0  0  0  0  0  0  0
   19.9586   17.3226   25.1056 H   0  0  0  0  0  0  0  0  0  0  0  0
   20.0509   19.4316   25.6789 C   0  0  2  0  0  0  0  0  0  0  0  0
   20.7027   20.2818   25.4556 H   0  0  0  0  0  0  0  0  0  0  0  0
   20.1035   19.1721   27.1930 C   0  0  0  0  0  0  0  0  0  0  0  0
   19.7658   20.0545   27.7505 H   0  0  0  0  0  0  0  0  0  0  0  0
   19.4641   18.3255   27.4729 H   0  0  0  0  0  0  0  0  0  0  0  0
   21.1280   18.9478   27.5154 H   0  0  0  0  0  0  0  0  0  0  0  0
   18.6636   19.8367   25.2684 N   0  3  0  0  0  0  0  0  0  0  0  0
   17.9889   19.0900   25.4551 H   0  0  0  0  0  0  0  0  0  0  0  0
   18.6242   20.0509   24.2684 H   0  0  0  0  0  0  0  0  0  0  0  0
   18.3511   20.6688   25.7772 H   0  0  0  0  0  0  0  0  0  0  0  0
  1  2  1  0  0  0  0
  1  3  1  0  0  0  0
  1  4  1  0  0  0  0
  1  5  1  0  0  0  0
  5  6  1  0  0  0  0
  5  7  1  0  0  0  0
  5  8  1  0  0  0  0
  8  9  1  0  0  0  0
  8 10  1  0  0  0  0
  8 11  1  0  0  0  0
 11 12  1  0  0  0  0
 11 13  1  0  0  0  0
 11 14  1  0  0  0  0
 14 15  1  0  0  0  0
 14 16  1  0  0  0  0
 14 17  1  0  0  0  0
 17 18  1  0  0  0  0
 17 19  1  0  0  0  0
 17 20  1  0  0  0  0
 20 21  1  0  0  0  0
 20 22  1  0  0  0  0
 22 23  1  0  0  0  0
 22 24  1  0  0  0  0
 22 25  1  0  0  0  0
 20 26  1  0  0  0  0
 26 27  1  0  0  0  0
 26 28  1  0  0  0  0
 26 29  1  0  0  0  0
M  END
> <VM2 Rank>
199

> <Conf_Id>
264

> <Probability>
0.00

> <Sum Probability>
100.00

> <Delta G>
7.046

> <G>
40.749

> <E>
2.867

> <-TS>
37.882

> <U+W>
-21.278

> <U>
30.586

> <W>
-51.864

> <W(PB)>
-54.285

> <W(SA)>
2.421

> <Valence>
8.132

> <Coulomb>
21.534

> <VdW>
0.920

> <VdW6>
-10.749

> <VdW12>
11.668

> <Bond>
0.338

> <Angle>
2.204

> <Pdih>
5.590

> <Idih>
0.000

> <Tether>
0.000

$$$$
VeraChem MOL file


 29 28  0  0  0  0  0  0  0  0999 V2000     
   19.3349   20.9580   20.1891 C   0  0  0  0  0  0  0  0  0  0  0  0
   18.5584   21.2015   19.4523 H   0  0  0  0  0  0  0  0  0  0  0  0
   19.3669   21.7711   20.9260 H   0  0  0  0  0  0  0  0  0  0  0  0
   20.2996   20.9326   19.6658 H   0  0  0  0  0  0  0  0  0  0  0  0
   19.0365   19.6045   20.8676 C   0  0  0  0  0  0  0  0  0  0  0  0
   18.9765   18.8181   20.1021 H   0  0  0  0  0  0  0  0  0  0  0  0
   18.0510   19.6502   21.3514 H   0  0  0  0  0  0  0  0  0  0  0  0
   20.1177   19.2367   21.9073 C   0  0  0  0  0  0  0  0  0  0  0  0
   21.0956   19.1816   21.4089 H   0  0  0  0  0  0  0  0  0  0  0  0
   20.2031   20.0395   22.6489 H   0  0  0  0  0  0  0  0  0  0  0  0
   19.8224   17.8784   22.5902 C   0  0  0  0  0  0  0  0  0  0  0  0
   19.9159   17.0918   21.8284 H   0  0  0  0  0  0  0  0  0  0  0  0
   18.7833   17.8250   22.9410 H   0  0  0  0  0  0  0  0  0  0  0  0
   20.7979   17.5569   23.7509 C   0  0  0  0  0  0  0  0  0  0  0  0
   21.0083   16.4786   23.7265 H   0  0  0  0  0  0  0  0  0  0  0  0
   21.7661   18.0473   23.5786 H   0  0  0  0  0  0  0  0  0  0  0  0
   20.2805   17.8943   25.1763 C   0  0  0  0  0  0  0  0  0  0  0  0
   21.0418   17.5428   25.8856 H   0  0  0  0  0  0  0  0  0  0  0  0
   19.3778   17.3090   25.3956 H   0  0  0  0  0  0  0  0  0  0  0  0
   20.0087   19.3925   25.4472 C   0  0  2  0  0  0  0  0  0  0  0  0
   20.8007   19.9791   24.9718 H   0  0  0  0  0  0  0  0  0  0  0  0
   20.0372   19.6789   26.9575 C   0  0  0  0  0  0  0  0  0  0  0  0
   21.0140   19.4217   27.3858 H   0  0  0  0  0  0  0  0  0  0  0  0
   19.8596   20.7433   27.1546 H   0  0  0  0  0  0  0  0  0  0  0  0
   19.2690   19.1002   27.4856 H   0  0  0  0  0  0  0  0  0  0  0  0
   18.7001   19.8560   24.8679 N   0  3  0  0  0  0  0  0  0  0  0  0
   17.9101   19.3687   25.2996 H   0  0  0  0  0  0  0  0  0  0  0  0
   18.6639   19.6776   23.8597 H   0  0  0  0  0  0  0  0  0  0  0  0
   18.5599   20.8598   25.0152 H   0  0  0  0  0  0  0  0  0  0  0  0
  1  2  1  0  0  0  0
  1  3  1  0  0  0  0
  1  4  1  0  0  0  0
  1  5  1  0  0  0  0
  5  6  1  0  0  0  0
  5  7  1  0  0  0  0
  5  8  1  0  0  0  0
  8  9  1  0  0  0  0
  8 10  1  0  0  0  0
  8 11  1  0  0  0  0
 11 12  1  0  0  0  0
 11 13  1  0  0  0  0
 11 14  1  0  0  0  0
 14 15  1  0  0  0  0
 14 16  1  0  0  0  0
 14 17  1  0  0  0  0
 17 18  1  0  0  0  0
 17 19  1  0  0  0  0
 17 20  1  0  0  0  0
 20 21  1  0  0  0  0
 20 22  1  0  0  0  0
 22 23  1  0  0  0  0
 22 24  1  0  0  0  0
 22 25  1  0  0  0  0
 20 26  1  0  0  0  0
 26 27  1  0  0  0  0
 26 28  1  0  0  0  0
 26 29  1  0  0  0  0
M  END
> <VM2 Rank>
200

> <Conf_Id>
459

> <Probability>
0.00

> <Sum Probability>
100.00

> <Delta G>
7.119

> <G>
40.821

> <E>
2.728

> <-TS>
38.093

> <U+W>
-21.417

> <U>
29.728

> <W>
-51.144

> <W(PB)>
-53.597

> <W(SA)>
2.453

> <Valence>
7.448

> <Coulomb>
21.445

> <VdW>
0.835

> <VdW6>
-10.815

> <VdW12>
11.649

> <Bond>
0.282

> <Angle>
2.108

> <Pdih>
5.057

> <Idih>
0.000

> <Tether>
0.000

$$$$
VeraChem MOL file


 29 28  0  0  0  0  0  0  0  0999 V2000     
   20.1853   20.7441   20.0728 C   0  0  0  0  0  0  0  0  0  0  0  0
   19.2276   21.1947   19.7812 H   0  0  0  0  0  0  0  0  0  0  0  0
   20.7038   21.4445   20.7405 H   0  0  0  0  0  0  0  0  0  0  0  0
   20.7936   20.6299   19.1662 H   0  0  0  0  0  0  0  0  0  0  0  0
   19.9703   19.3790   20.7599 C   0  0  0  0  0  0  0  0  0  0  0  0
   20.9477   18.9407   21.0003 H   0  0  0  0  0  0  0  0  0  0  0  0
   19.4811   18.6917   20.0556 H   0  0  0  0  0  0  0  0  0  0  0  0
   19.1108   19.5144   22.0391 C   0  0  0  0  0  0  0  0  0  0  0  0
   19.6011   20.2120   22.7287 H   0  0  0  0  0  0  0  0  0  0  0  0
   18.1473   19.9674   21.7670 H   0  0  0  0  0  0  0  0  0  0  0  0
   18.8409   18.1535   22.7333 C   0  0  0  0  0  0  0  0  0  0  0  0
   18.5282   17.4325   21.9653 H   0  0  0  0  0  0  0  0  0  0  0  0
   17.9819   18.2350   23.4123 H   0  0  0  0  0  0  0  0  0  0  0  0
   20.0610   17.5723   23.4969 C   0  0  0  0  0  0  0  0  0  0  0  0
   20.0559   16.4822   23.3588 H   0  0  0  0  0  0  0  0  0  0  0  0
   21.0007   17.9179   23.0475 H   0  0  0  0  0  0  0  0  0  0  0  0
   20.0872   17.8436   25.0258 C   0  0  0  0  0  0  0  0  0  0  0  0
   20.9497   17.2995   25.4333 H   0  0  0  0  0  0  0  0  0  0  0  0
   19.2035   17.3990   25.5025 H   0  0  0  0  0  0  0  0  0  0  0  0
   20.2070   19.3315   25.4297 C   0  0  2  0  0  0  0  0  0  0  0  0
   20.8960   19.8234   24.7363 H   0  0  0  0  0  0  0  0  0  0  0  0
   20.7800   19.4586   26.8507 C   0  0  0  0  0  0  0  0  0  0  0  0
   20.1318   18.9648   27.5855 H   0  0  0  0  0  0  0  0  0  0  0  0
   21.7763   19.0033   26.9126 H   0  0  0  0  0  0  0  0  0  0  0  0
   20.8800   20.5130   27.1365 H   0  0  0  0  0  0  0  0  0  0  0  0
   18.8935   20.0590   25.3458 N   0  3  0  0  0  0  0  0  0  0  0  0
   18.2125   19.6721   26.0049 H   0  0  0  0  0  0  0  0  0  0  0  0
   18.4935   19.9849   24.4062 H   0  0  0  0  0  0  0  0  0  0  0  0
   19.0013   21.0539   25.5642 H   0  0  0  0  0  0  0  0  0  0  0  0
  1  2  1  0  0  0  0
  1  3  1  0  0  0  0
  1  4  1  0  0  0  0
  1  5  1  0  0  0  0
  5  6  1  0  0  0  0
  5  7  1  0  0  0  0
  5  8  1  0  0  0  0
  8  9  1  0  0  0  0
  8 10  1  0  0  0  0
  8 11  1  0  0  0  0
 11 12  1  0  0  0  0
 11 13  1  0  0  0  0
 11 14  1  0  0  0  0
 14 15  1  0  0  0  0
 14 16  1  0  0  0  0
 14 17  1  0  0  0  0
 17 18  1  0  0  0  0
 17 19  1  0  0  0  0
 17 20  1  0  0  0  0
 20 21  1  0  0  0  0
 20 22  1  0  0  0  0
 22 23  1  0  0  0  0
 22 24  1  0  0  0  0
 22 25  1  0  0  0  0
 20 26  1  0  0  0  0
 26 27  1  0  0  0  0
 26 28  1  0  0  0  0
 26 29  1  0  0  0  0
M  END
> <VM2 Rank>
201

> <Conf_Id>
1039

> <Probability>
0.00

> <Sum Probability>
100.00

> <Delta G>
7.138

> <G>
40.840

> <E>
2.742

> <-TS>
38.098

> <U+W>
-21.402

> <U>
30.663

> <W>
-52.065

> <W(PB)>
-54.501

> <W(SA)>
2.436

> <Valence>
8.199

> <Coulomb>
21.430

> <VdW>
1.034

> <VdW6>
-11.039

> <VdW12>
12.073

> <Bond>
0.331

> <Angle>
2.224

> <Pdih>
5.645

> <Idih>
0.000

> <Tether>
0.000

$$$$
VeraChem MOL file


 29 28  0  0  0  0  0  0  0  0999 V2000     
   18.9867   20.1976   20.3816 C   0  0  0  0  0  0  0  0  0  0  0  0
   19.7055   20.2241   19.5523 H   0  0  0  0  0  0  0  0  0  0  0  0
   18.3989   19.2758   20.2938 H   0  0  0  0  0  0  0  0  0  0  0  0
   18.2984   21.0432   20.2546 H   0  0  0  0  0  0  0  0  0  0  0  0
   19.7091   20.2880   21.7451 C   0  0  0  0  0  0  0  0  0  0  0  0
   18.9645   20.2831   22.5504 H   0  0  0  0  0  0  0  0  0  0  0  0
   20.2242   21.2570   21.8048 H   0  0  0  0  0  0  0  0  0  0  0  0
   20.7482   19.1570   21.9544 C   0  0  0  0  0  0  0  0  0  0  0  0
   21.3762   19.0963   21.0548 H   0  0  0  0  0  0  0  0  0  0  0  0
   21.4365   19.4220   22.7678 H   0  0  0  0  0  0  0  0  0  0  0  0
   20.1264   17.7619   22.2275 C   0  0  0  0  0  0  0  0  0  0  0  0
   20.7285   17.0152   21.6917 H   0  0  0  0  0  0  0  0  0  0  0  0
   19.1218   17.6911   21.7916 H   0  0  0  0  0  0  0  0  0  0  0  0
   20.0794   17.3337   23.7188 C   0  0  0  0  0  0  0  0  0  0  0  0
   19.7147   16.2975   23.7458 H   0  0  0  0  0  0  0  0  0  0  0  0
   21.0964   17.2891   24.1270 H   0  0  0  0  0  0  0  0  0  0  0  0
   19.1483   18.1796   24.6299 C   0  0  0  0  0  0  0  0  0  0  0  0
   18.8556   17.5689   25.4944 H   0  0  0  0  0  0  0  0  0  0  0  0
   18.2184   18.3867   24.0844 H   0  0  0  0  0  0  0  0  0  0  0  0
   19.7472   19.5066   25.1558 C   0  0  2  0  0  0  0  0  0  0  0  0
   20.1309   20.0808   24.3098 H   0  0  0  0  0  0  0  0  0  0  0  0
   20.9033   19.2720   26.1447 C   0  0  0  0  0  0  0  0  0  0  0  0
   21.7524   18.7772   25.6605 H   0  0  0  0  0  0  0  0  0  0  0  0
   21.2699   20.2263   26.5425 H   0  0  0  0  0  0  0  0  0  0  0  0
   20.5820   18.6528   26.9915 H   0  0  0  0  0  0  0  0  0  0  0  0
   18.6873   20.3596   25.7962 N   0  3  0  0  0  0  0  0  0  0  0  0
   19.0690   21.2555   26.1130 H   0  0  0  0  0  0  0  0  0  0  0  0
   18.2797   19.8965   26.6130 H   0  0  0  0  0  0  0  0  0  0  0  0
   17.9232   20.5655   25.1463 H   0  0  0  0  0  0  0  0  0  0  0  0
  1  2  1  0  0  0  0
  1  3  1  0  0  0  0
  1  4  1  0  0  0  0
  1  5  1  0  0  0  0
  5  6  1  0  0  0  0
  5  7  1  0  0  0  0
  5  8  1  0  0  0  0
  8  9  1  0  0  0  0
  8 10  1  0  0  0  0
  8 11  1  0  0  0  0
 11 12  1  0  0  0  0
 11 13  1  0  0  0  0
 11 14  1  0  0  0  0
 14 15  1  0  0  0  0
 14 16  1  0  0  0  0
 14 17  1  0  0  0  0
 17 18  1  0  0  0  0
 17 19  1  0  0  0  0
 17 20  1  0  0  0  0
 20 21  1  0  0  0  0
 20 22  1  0  0  0  0
 22 23  1  0  0  0  0
 22 24  1  0  0  0  0
 22 25  1  0  0  0  0
 20 26  1  0  0  0  0
 26 27  1  0  0  0  0
 26 28  1  0  0  0  0
 26 29  1  0  0  0  0
M  END
> <VM2 Rank>
202

> <Conf_Id>
679

> <Probability>
0.00

> <Sum Probability>
100.00

> <Delta G>
7.276

> <G>
40.979

> <E>
2.695

> <-TS>
38.284

> <U+W>
-21.450

> <U>
31.628

> <W>
-53.078

> <W(PB)>
-55.478

> <W(SA)>
2.400

> <Valence>
9.584

> <Coulomb>
21.283

> <VdW>
0.761

> <VdW6>
-12.099

> <VdW12>
12.860

> <Bond>
0.374

> <Angle>
2.941

> <Pdih>
6.270

> <Idih>
0.000

> <Tether>
0.000

$$$$
VeraChem MOL file


 29 28  0  0  0  0  0  0  0  0999 V2000     
   18.2824   18.4630   21.1503 C   0  0  0  0  0  0  0  0  0  0  0  0
   17.6971   19.1815   20.5621 H   0  0  0  0  0  0  0  0  0  0  0  0
   17.9655   17.4537   20.8577 H   0  0  0  0  0  0  0  0  0  0  0  0
   18.0238   18.5987   22.2069 H   0  0  0  0  0  0  0  0  0  0  0  0
   19.7967   18.6486   20.9004 C   0  0  0  0  0  0  0  0  0  0  0  0
   20.0031   18.4375   19.8419 H   0  0  0  0  0  0  0  0  0  0  0  0
   20.3705   17.9062   21.4700 H   0  0  0  0  0  0  0  0  0  0  0  0
   20.2980   20.0777   21.2225 C   0  0  0  0  0  0  0  0  0  0  0  0
   21.3387   20.1730   20.8835 H   0  0  0  0  0  0  0  0  0  0  0  0
   19.7236   20.7956   20.6211 H   0  0  0  0  0  0  0  0  0  0  0  0
   20.2154   20.4987   22.7143 C   0  0  0  0  0  0  0  0  0  0  0  0
   19.1755   20.4651   23.0568 H   0  0  0  0  0  0  0  0  0  0  0  0
   20.5089   21.5560   22.7705 H   0  0  0  0  0  0  0  0  0  0  0  0
   21.1524   19.6940   23.6575 C   0  0  0  0  0  0  0  0  0  0  0  0
   22.0220   19.3471   23.0827 H   0  0  0  0  0  0  0  0  0  0  0  0
   21.5643   20.3676   24.4218 H   0  0  0  0  0  0  0  0  0  0  0  0
   20.4940   18.4791   24.3663 C   0  0  0  0  0  0  0  0  0  0  0  0
   21.2790   17.7345   24.5538 H   0  0  0  0  0  0  0  0  0  0  0  0
   19.7665   17.9892   23.7101 H   0  0  0  0  0  0  0  0  0  0  0  0
   19.8375   18.8230   25.7235 C   0  0  2  0  0  0  0  0  0  0  0  0
   20.6008   19.2763   26.3633 H   0  0  0  0  0  0  0  0  0  0  0  0
   19.3334   17.5438   26.4105 C   0  0  0  0  0  0  0  0  0  0  0  0
   20.1552   16.8333   26.5636 H   0  0  0  0  0  0  0  0  0  0  0  0
   18.9055   17.7739   27.3940 H   0  0  0  0  0  0  0  0  0  0  0  0
   18.5610   17.0483   25.8089 H   0  0  0  0  0  0  0  0  0  0  0  0
   18.7262   19.8280   25.6086 N   0  3  0  0  0  0  0  0  0  0  0  0
   17.9571   19.4684   25.0376 H   0  0  0  0  0  0  0  0  0  0  0  0
   19.0586   20.6945   25.1760 H   0  0  0  0  0  0  0  0  0  0  0  0
   18.3427   20.0681   26.5274 H   0  0  0  0  0  0  0  0  0  0  0  0
  1  2  1  0  0  0  0
  1  3  1  0  0  0  0
  1  4  1  0  0  0  0
  1  5  1  0  0  0  0
  5  6  1  0  0  0  0
  5  7  1  0  0  0  0
  5  8  1  0  0  0  0
  8  9  1  0  0  0  0
  8 10  1  0  0  0  0
  8 11  1  0  0  0  0
 11 12  1  0  0  0  0
 11 13  1  0  0  0  0
 11 14  1  0  0  0  0
 14 15  1  0  0  0  0
 14 16  1  0  0  0  0
 14 17  1  0  0  0  0
 17 18  1  0  0  0  0
 17 19  1  0  0  0  0
 17 20  1  0  0  0  0
 20 21  1  0  0  0  0
 20 22  1  0  0  0  0
 22 23  1  0  0  0  0
 22 24  1  0  0  0  0
 22 25  1  0  0  0  0
 20 26  1  0  0  0  0
 26 27  1  0  0  0  0
 26 28  1  0  0  0  0
 26 29  1  0  0  0  0
M  END
> <VM2 Rank>
203

> <Conf_Id>
1054

> <Probability>
0.00

> <Sum Probability>
100.00

> <Delta G>
7.277

> <G>
40.979

> <E>
2.588

> <-TS>
38.391

> <U+W>
-21.556

> <U>
30.824

> <W>
-52.381

> <W(PB)>
-54.757

> <W(SA)>
2.376

> <Valence>
8.689

> <Coulomb>
21.289

> <VdW>
0.847

> <VdW6>
-11.611

> <VdW12>
12.458

> <Bond>
0.383

> <Angle>
2.406

> <Pdih>
5.899

> <Idih>
0.000

> <Tether>
0.000

$$$$
VeraChem MOL file


 29 28  0  0  0  0  0  0  0  0999 V2000     
   18.2475   19.3821   20.0626 C   0  0  0  0  0  0  0  0  0  0  0  0
   18.4541   20.4140   19.7502 H   0  0  0  0  0  0  0  0  0  0  0  0
   18.0064   18.7998   19.1638 H   0  0  0  0  0  0  0  0  0  0  0  0
   17.3585   19.3911   20.7068 H   0  0  0  0  0  0  0  0  0  0  0  0
   19.4594   18.7720   20.7978 C   0  0  0  0  0  0  0  0  0  0  0  0
   20.3225   18.7437   20.1179 H   0  0  0  0  0  0  0  0  0  0  0  0
   19.2347   17.7308   21.0685 H   0  0  0  0  0  0  0  0  0  0  0  0
   19.8210   19.5744   22.0668 C   0  0  0  0  0  0  0  0  0  0  0  0
   20.0483   20.6127   21.7878 H   0  0  0  0  0  0  0  0  0  0  0  0
   18.9493   19.6121   22.7295 H   0  0  0  0  0  0  0  0  0  0  0  0
   21.0372   18.9640   22.8046 C   0  0  0  0  0  0  0  0  0  0  0  0
   21.9007   19.0044   22.1262 H   0  0  0  0  0  0  0  0  0  0  0  0
   20.8749   17.8979   23.0112 H   0  0  0  0  0  0  0  0  0  0  0  0
   21.4030   19.7180   24.1086 C   0  0  0  0  0  0  0  0  0  0  0  0
   22.4937   19.8522   24.1142 H   0  0  0  0  0  0  0  0  0  0  0  0
   20.9955   20.7376   24.0959 H   0  0  0  0  0  0  0  0  0  0  0  0
   21.0310   18.9921   25.4344 C   0  0  0  0  0  0  0  0  0  0  0  0
   21.5060   19.5495   26.2523 H   0  0  0  0  0  0  0  0  0  0  0  0
   21.4993   17.9992   25.4557 H   0  0  0  0  0  0  0  0  0  0  0  0
   19.5284   18.8636   25.7922 C   0  0  2  0  0  0  0  0  0  0  0  0
   19.4812   18.6808   26.8702 H   0  0  0  0  0  0  0  0  0  0  0  0
   18.8507   17.6551   25.1217 C   0  0  0  0  0  0  0  0  0  0  0  0
   18.7731   17.7669   24.0369 H   0  0  0  0  0  0  0  0  0  0  0  0
   19.4071   16.7330   25.3299 H   0  0  0  0  0  0  0  0  0  0  0  0
   17.8353   17.5219   25.5144 H   0  0  0  0  0  0  0  0  0  0  0  0
   18.7579   20.1346   25.5652 N   0  3  0  0  0  0  0  0  0  0  0  0
   19.1589   20.9129   26.0965 H   0  0  0  0  0  0  0  0  0  0  0  0
   17.7802   20.0370   25.8542 H   0  0  0  0  0  0  0  0  0  0  0  0
   18.7679   20.3979   24.5773 H   0  0  0  0  0  0  0  0  0  0  0  0
  1  2  1  0  0  0  0
  1  3  1  0  0  0  0
  1  4  1  0  0  0  0
  1  5  1  0  0  0  0
  5  6  1  0  0  0  0
  5  7  1  0  0  0  0
  5  8  1  0  0  0  0
  8  9  1  0  0  0  0
  8 10  1  0  0  0  0
  8 11  1  0  0  0  0
 11 12  1  0  0  0  0
 11 13  1  0  0  0  0
 11 14  1  0  0  0  0
 14 15  1  0  0  0  0
 14 16  1  0  0  0  0
 14 17  1  0  0  0  0
 17 18  1  0  0  0  0
 17 19  1  0  0  0  0
 17 20  1  0  0  0  0
 20 21  1  0  0  0  0
 20 22  1  0  0  0  0
 22 23  1  0  0  0  0
 22 24  1  0  0  0  0
 22 25  1  0  0  0  0
 20 26  1  0  0  0  0
 26 27  1  0  0  0  0
 26 28  1  0  0  0  0
 26 29  1  0  0  0  0
M  END
> <VM2 Rank>
204

> <Conf_Id>
110

> <Probability>
0.00

> <Sum Probability>
100.00

> <Delta G>
7.406

> <G>
41.108

> <E>
2.873

> <-TS>
38.235

> <U+W>
-21.271

> <U>
31.279

> <W>
-52.551

> <W(PB)>
-54.968

> <W(SA)>
2.418

> <Valence>
9.217

> <Coulomb>
21.424

> <VdW>
0.639

> <VdW6>
-11.253

> <VdW12>
11.892

> <Bond>
0.349

> <Angle>
3.016

> <Pdih>
5.852

> <Idih>
0.000

> <Tether>
0.000

$$$$
VeraChem MOL file


 29 28  0  0  0  0  0  0  0  0999 V2000     
   18.9151   19.7051   20.2001 C   0  0  0  0  0  0  0  0  0  0  0  0
   19.3538   20.6706   20.4794 H   0  0  0  0  0  0  0  0  0  0  0  0
   18.6370   19.7677   19.1401 H   0  0  0  0  0  0  0  0  0  0  0  0
   17.9960   19.5552   20.7811 H   0  0  0  0  0  0  0  0  0  0  0  0
   19.9139   18.5501   20.4278 C   0  0  0  0  0  0  0  0  0  0  0  0
   20.8566   18.7750   19.9097 H   0  0  0  0  0  0  0  0  0  0  0  0
   19.5152   17.6429   19.9527 H   0  0  0  0  0  0  0  0  0  0  0  0
   20.1997   18.2357   21.9183 C   0  0  0  0  0  0  0  0  0  0  0  0
   19.2775   17.9064   22.4118 H   0  0  0  0  0  0  0  0  0  0  0  0
   20.8717   17.3669   21.9451 H   0  0  0  0  0  0  0  0  0  0  0  0
   20.8772   19.3874   22.7111 C   0  0  0  0  0  0  0  0  0  0  0  0
   21.5057   19.9740   22.0272 H   0  0  0  0  0  0  0  0  0  0  0  0
   21.5767   18.9579   23.4397 H   0  0  0  0  0  0  0  0  0  0  0  0
   19.9072   20.3432   23.4574 C   0  0  0  0  0  0  0  0  0  0  0  0
   20.4977   21.1637   23.8877 H   0  0  0  0  0  0  0  0  0  0  0  0
   19.2280   20.8183   22.7404 H   0  0  0  0  0  0  0  0  0  0  0  0
   19.0592   19.7066   24.5916 C   0  0  0  0  0  0  0  0  0  0  0  0
   18.3625   18.9611   24.1889 H   0  0  0  0  0  0  0  0  0  0  0  0
   18.4219   20.5026   24.9988 H   0  0  0  0  0  0  0  0  0  0  0  0
   19.8992   19.1015   25.7428 C   0  0  2  0  0  0  0  0  0  0  0  0
   20.8989   19.5451   25.7067 H   0  0  0  0  0  0  0  0  0  0  0  0
   20.0305   17.5731   25.6134 C   0  0  0  0  0  0  0  0  0  0  0  0
   20.4891   17.2874   24.6611 H   0  0  0  0  0  0  0  0  0  0  0  0
   20.6608   17.1707   26.4160 H   0  0  0  0  0  0  0  0  0  0  0  0
   19.0497   17.0854   25.6760 H   0  0  0  0  0  0  0  0  0  0  0  0
   19.3339   19.4534   27.0915 N   0  3  0  0  0  0  0  0  0  0  0  0
   19.2802   20.4675   27.2242 H   0  0  0  0  0  0  0  0  0  0  0  0
   19.9120   19.0773   27.8486 H   0  0  0  0  0  0  0  0  0  0  0  0
   18.3900   19.0759   27.2113 H   0  0  0  0  0  0  0  0  0  0  0  0
  1  2  1  0  0  0  0
  1  3  1  0  0  0  0
  1  4  1  0  0  0  0
  1  5  1  0  0  0  0
  5  6  1  0  0  0  0
  5  7  1  0  0  0  0
  5  8  1  0  0  0  0
  8  9  1  0  0  0  0
  8 10  1  0  0  0  0
  8 11  1  0  0  0  0
 11 12  1  0  0  0  0
 11 13  1  0  0  0  0
 11 14  1  0  0  0  0
 14 15  1  0  0  0  0
 14 16  1  0  0  0  0
 14 17  1  0  0  0  0
 17 18  1  0  0  0  0
 17 19  1  0  0  0  0
 17 20  1  0  0  0  0
 20 21  1  0  0  0  0
 20 22  1  0  0  0  0
 22 23  1  0  0  0  0
 22 24  1  0  0  0  0
 22 25  1  0  0  0  0
 20 26  1  0  0  0  0
 26 27  1  0  0  0  0
 26 28  1  0  0  0  0
 26 29  1  0  0  0  0
M  END
> <VM2 Rank>
205

> <Conf_Id>
278

> <Probability>
0.00

> <Sum Probability>
100.00

> <Delta G>
7.423

> <G>
41.125

> <E>
2.911

> <-TS>
38.214

> <U+W>
-21.233

> <U>
31.323

> <W>
-52.557

> <W(PB)>
-54.930

> <W(SA)>
2.373

> <Valence>
10.065

> <Coulomb>
20.200

> <VdW>
1.059

> <VdW6>
-11.695

> <VdW12>
12.753

> <Bond>
0.384

> <Angle>
2.930

> <Pdih>
6.751

> <Idih>
0.000

> <Tether>
0.000

$$$$
VeraChem MOL file


 29 28  0  0  0  0  0  0  0  0999 V2000     
   18.3949   19.7369   20.8121 C   0  0  0  0  0  0  0  0  0  0  0  0
   17.9832   18.9811   21.4901 H   0  0  0  0  0  0  0  0  0  0  0  0
   17.7161   20.5994   20.8156 H   0  0  0  0  0  0  0  0  0  0  0  0
   18.3911   19.3136   19.7992 H   0  0  0  0  0  0  0  0  0  0  0  0
   19.8229   20.1668   21.2208 C   0  0  0  0  0  0  0  0  0  0  0  0
   19.8092   20.7112   22.1744 H   0  0  0  0  0  0  0  0  0  0  0  0
   20.1859   20.8858   20.4732 H   0  0  0  0  0  0  0  0  0  0  0  0
   20.8152   18.9794   21.2892 C   0  0  0  0  0  0  0  0  0  0  0  0
   20.4855   18.1702   20.6231 H   0  0  0  0  0  0  0  0  0  0  0  0
   21.7765   19.3199   20.8800 H   0  0  0  0  0  0  0  0  0  0  0  0
   21.0919   18.4176   22.7095 C   0  0  0  0  0  0  0  0  0  0  0  0
   21.5376   19.1977   23.3387 H   0  0  0  0  0  0  0  0  0  0  0  0
   21.8746   17.6537   22.6044 H   0  0  0  0  0  0  0  0  0  0  0  0
   19.8822   17.7506   23.4197 C   0  0  0  0  0  0  0  0  0  0  0  0
   19.2433   17.2616   22.6723 H   0  0  0  0  0  0  0  0  0  0  0  0
   20.2564   16.9326   24.0491 H   0  0  0  0  0  0  0  0  0  0  0  0
   19.0207   18.6955   24.3041 C   0  0  0  0  0  0  0  0  0  0  0  0
   18.2110   18.1074   24.7558 H   0  0  0  0  0  0  0  0  0  0  0  0
   18.5272   19.4398   23.6711 H   0  0  0  0  0  0  0  0  0  0  0  0
   19.7855   19.4387   25.4255 C   0  0  2  0  0  0  0  0  0  0  0  0
   20.5723   20.0443   24.9671 H   0  0  0  0  0  0  0  0  0  0  0  0
   20.4387   18.4690   26.4261 C   0  0  0  0  0  0  0  0  0  0  0  0
   21.2116   17.8604   25.9424 H   0  0  0  0  0  0  0  0  0  0  0  0
   20.9238   19.0219   27.2399 H   0  0  0  0  0  0  0  0  0  0  0  0
   19.6951   17.7945   26.8684 H   0  0  0  0  0  0  0  0  0  0  0  0
   18.8840   20.4015   26.1471 N   0  3  0  0  0  0  0  0  0  0  0  0
   19.3942   20.9257   26.8638 H   0  0  0  0  0  0  0  0  0  0  0  0
   18.1152   19.9140   26.6152 H   0  0  0  0  0  0  0  0  0  0  0  0
   18.4707   21.0846   25.5059 H   0  0  0  0  0  0  0  0  0  0  0  0
  1  2  1  0  0  0  0
  1  3  1  0  0  0  0
  1  4  1  0  0  0  0
  1  5  1  0  0  0  0
  5  6  1  0  0  0  0
  5  7  1  0  0  0  0
  5  8  1  0  0  0  0
  8  9  1  0  0  0  0
  8 10  1  0  0  0  0
  8 11  1  0  0  0  0
 11 12  1  0  0  0  0
 11 13  1  0  0  0  0
 11 14  1  0  0  0  0
 14 15  1  0  0  0  0
 14 16  1  0  0  0  0
 14 17  1  0  0  0  0
 17 18  1  0  0  0  0
 17 19  1  0  0  0  0
 17 20  1  0  0  0  0
 20 21  1  0  0  0  0
 20 22  1  0  0  0  0
 22 23  1  0  0  0  0
 22 24  1  0  0  0  0
 22 25  1  0  0  0  0
 20 26  1  0  0  0  0
 26 27  1  0  0  0  0
 26 28  1  0  0  0  0
 26 29  1  0  0  0  0
M  END
> <VM2 Rank>
206

> <Conf_Id>
1027

> <Probability>
0.00

> <Sum Probability>
100.00

> <Delta G>
7.442

> <G>
41.144

> <E>
2.801

> <-TS>
38.343

> <U+W>
-21.344

> <U>
31.596

> <W>
-52.940

> <W(PB)>
-55.316

> <W(SA)>
2.376

> <Valence>
9.790

> <Coulomb>
20.847

> <VdW>
0.959

> <VdW6>
-11.919

> <VdW12>
12.878

> <Bond>
0.397

> <Angle>
3.178

> <Pdih>
6.214

> <Idih>
0.000

> <Tether>
0.000

$$$$
VeraChem MOL file


 29 28  0  0  0  0  0  0  0  0999 V2000     
   19.2257   17.9563   20.7657 C   0  0  0  0  0  0  0  0  0  0  0  0
   20.0192   17.4978   21.3646 H   0  0  0  0  0  0  0  0  0  0  0  0
   18.2599   17.6832   21.2101 H   0  0  0  0  0  0  0  0  0  0  0  0
   19.2701   17.5072   19.7651 H   0  0  0  0  0  0  0  0  0  0  0  0
   19.3794   19.4918   20.6727 C   0  0  0  0  0  0  0  0  0  0  0  0
   18.6130   19.8629   19.9779 H   0  0  0  0  0  0  0  0  0  0  0  0
   20.3467   19.7502   20.2201 H   0  0  0  0  0  0  0  0  0  0  0  0
   19.2042   20.2275   22.0267 C   0  0  0  0  0  0  0  0  0  0  0  0
   18.7895   21.2218   21.8105 H   0  0  0  0  0  0  0  0  0  0  0  0
   18.4446   19.7234   22.6369 H   0  0  0  0  0  0  0  0  0  0  0  0
   20.5166   20.4462   22.8280 C   0  0  0  0  0  0  0  0  0  0  0  0
   20.3250   21.1421   23.6535 H   0  0  0  0  0  0  0  0  0  0  0  0
   21.2346   20.9713   22.1830 H   0  0  0  0  0  0  0  0  0  0  0  0
   21.2043   19.1720   23.3830 C   0  0  0  0  0  0  0  0  0  0  0  0
   21.5906   18.5851   22.5405 H   0  0  0  0  0  0  0  0  0  0  0  0
   22.0952   19.4773   23.9488 H   0  0  0  0  0  0  0  0  0  0  0  0
   20.3382   18.2502   24.2858 C   0  0  0  0  0  0  0  0  0  0  0  0
   20.9351   17.3511   24.4885 H   0  0  0  0  0  0  0  0  0  0  0  0
   19.4494   17.8978   23.7486 H   0  0  0  0  0  0  0  0  0  0  0  0
   19.9264   18.8761   25.6389 C   0  0  2  0  0  0  0  0  0  0  0  0
   20.7848   19.4241   26.0393 H   0  0  0  0  0  0  0  0  0  0  0  0
   19.5450   17.7768   26.6439 C   0  0  0  0  0  0  0  0  0  0  0  0
   18.6953   17.1849   26.2809 H   0  0  0  0  0  0  0  0  0  0  0  0
   20.3875   17.0955   26.8165 H   0  0  0  0  0  0  0  0  0  0  0  0
   19.2692   18.2136   27.6117 H   0  0  0  0  0  0  0  0  0  0  0  0
   18.7963   19.8591   25.5093 N   0  3  0  0  0  0  0  0  0  0  0  0
   19.0179   20.5887   24.8276 H   0  0  0  0  0  0  0  0  0  0  0  0
   18.5939   20.3167   26.4029 H   0  0  0  0  0  0  0  0  0  0  0  0
   17.9375   19.3968   25.1996 H   0  0  0  0  0  0  0  0  0  0  0  0
  1  2  1  0  0  0  0
  1  3  1  0  0  0  0
  1  4  1  0  0  0  0
  1  5  1  0  0  0  0
  5  6  1  0  0  0  0
  5  7  1  0  0  0  0
  5  8  1  0  0  0  0
  8  9  1  0  0  0  0
  8 10  1  0  0  0  0
  8 11  1  0  0  0  0
 11 12  1  0  0  0  0
 11 13  1  0  0  0  0
 11 14  1  0  0  0  0
 14 15  1  0  0  0  0
 14 16  1  0  0  0  0
 14 17  1  0  0  0  0
 17 18  1  0  0  0  0
 17 19  1  0  0  0  0
 17 20  1  0  0  0  0
 20 21  1  0  0  0  0
 20 22  1  0  0  0  0
 22 23  1  0  0  0  0
 22 24  1  0  0  0  0
 22 25  1  0  0  0  0
 20 26  1  0  0  0  0
 26 27  1  0  0  0  0
 26 28  1  0  0  0  0
 26 29  1  0  0  0  0
M  END
> <VM2 Rank>
207

> <Conf_Id>
1319

> <Probability>
0.00

> <Sum Probability>
100.00

> <Delta G>
7.494

> <G>
41.196

> <E>
2.598

> <-TS>
38.598

> <U+W>
-21.546

> <U>
30.768

> <W>
-52.314

> <W(PB)>
-54.682

> <W(SA)>
2.368

> <Valence>
8.454

> <Coulomb>
21.750

> <VdW>
0.564

> <VdW6>
-12.327

> <VdW12>
12.891

> <Bond>
0.393

> <Angle>
3.308

> <Pdih>
4.754

> <Idih>
0.000

> <Tether>
0.000

$$$$
VeraChem MOL file


 29 28  0  0  0  0  0  0  0  0999 V2000     
   19.0407   19.6608   19.7811 C   0  0  0  0  0  0  0  0  0  0  0  0
   20.0024   19.5946   19.2561 H   0  0  0  0  0  0  0  0  0  0  0  0
   18.6507   18.6439   19.9141 H   0  0  0  0  0  0  0  0  0  0  0  0
   18.3400   20.2013   19.1316 H   0  0  0  0  0  0  0  0  0  0  0  0
   19.1960   20.3896   21.1348 C   0  0  0  0  0  0  0  0  0  0  0  0
   18.2244   20.4233   21.6467 H   0  0  0  0  0  0  0  0  0  0  0  0
   19.4799   21.4342   20.9446 H   0  0  0  0  0  0  0  0  0  0  0  0
   20.2579   19.7451   22.0578 C   0  0  0  0  0  0  0  0  0  0  0  0
   21.2318   19.7518   21.5490 H   0  0  0  0  0  0  0  0  0  0  0  0
   20.3867   20.3781   22.9438 H   0  0  0  0  0  0  0  0  0  0  0  0
   19.9117   18.2913   22.4721 C   0  0  0  0  0  0  0  0  0  0  0  0
   20.0333   17.6476   21.5904 H   0  0  0  0  0  0  0  0  0  0  0  0
   18.8567   18.1990   22.7616 H   0  0  0  0  0  0  0  0  0  0  0  0
   20.8280   17.7463   23.5974 C   0  0  0  0  0  0  0  0  0  0  0  0
   21.0257   16.6858   23.3879 H   0  0  0  0  0  0  0  0  0  0  0  0
   21.8093   18.2392   23.5586 H   0  0  0  0  0  0  0  0  0  0  0  0
   20.2486   17.8319   25.0363 C   0  0  0  0  0  0  0  0  0  0  0  0
   20.9687   17.3383   25.7026 H   0  0  0  0  0  0  0  0  0  0  0  0
   19.3264   17.2400   25.1047 H   0  0  0  0  0  0  0  0  0  0  0  0
   19.9902   19.2623   25.5641 C   0  0  2  0  0  0  0  0  0  0  0  0
   20.8197   19.9023   25.2484 H   0  0  0  0  0  0  0  0  0  0  0  0
   19.9357   19.2663   27.1005 C   0  0  0  0  0  0  0  0  0  0  0  0
   19.7676   20.2815   27.4808 H   0  0  0  0  0  0  0  0  0  0  0  0
   19.1267   18.6239   27.4705 H   0  0  0  0  0  0  0  0  0  0  0  0
   20.8805   18.9058   27.5261 H   0  0  0  0  0  0  0  0  0  0  0  0
   18.7273   19.8623   25.0097 N   0  3  0  0  0  0  0  0  0  0  0  0
   17.9037   19.3309   25.3050 H   0  0  0  0  0  0  0  0  0  0  0  0
   18.7459   19.8659   23.9854 H   0  0  0  0  0  0  0  0  0  0  0  0
   18.6005   20.8280   25.3267 H   0  0  0  0  0  0  0  0  0  0  0  0
  1  2  1  0  0  0  0
  1  3  1  0  0  0  0
  1  4  1  0  0  0  0
  1  5  1  0  0  0  0
  5  6  1  0  0  0  0
  5  7  1  0  0  0  0
  5  8  1  0  0  0  0
  8  9  1  0  0  0  0
  8 10  1  0  0  0  0
  8 11  1  0  0  0  0
 11 12  1  0  0  0  0
 11 13  1  0  0  0  0
 11 14  1  0  0  0  0
 14 15  1  0  0  0  0
 14 16  1  0  0  0  0
 14 17  1  0  0  0  0
 17 18  1  0  0  0  0
 17 19  1  0  0  0  0
 17 20  1  0  0  0  0
 20 21  1  0  0  0  0
 20 22  1  0  0  0  0
 22 23  1  0  0  0  0
 22 24  1  0  0  0  0
 22 25  1  0  0  0  0
 20 26  1  0  0  0  0
 26 27  1  0  0  0  0
 26 28  1  0  0  0  0
 26 29  1  0  0  0  0
M  END
> <VM2 Rank>
208

> <Conf_Id>
1206

> <Probability>
0.00

> <Sum Probability>
100.00

> <Delta G>
7.694

> <G>
41.396

> <E>
3.124

> <-TS>
38.272

> <U+W>
-21.020

> <U>
30.361

> <W>
-51.382

> <W(PB)>
-53.822

> <W(SA)>
2.441

> <Valence>
7.956

> <Coulomb>
21.427

> <VdW>
0.978

> <VdW6>
-11.470

> <VdW12>
12.448

> <Bond>
0.321

> <Angle>
2.290

> <Pdih>
5.345

> <Idih>
0.000

> <Tether>
0.000

$$$$
VeraChem MOL file


 29 28  0  0  0  0  0  0  0  0999 V2000     
   19.2341   20.8569   21.4925 C   0  0  0  0  0  0  0  0  0  0  0  0
   18.2602   20.8890   20.9870 H   0  0  0  0  0  0  0  0  0  0  0  0
   19.0519   20.7082   22.5609 H   0  0  0  0  0  0  0  0  0  0  0  0
   19.7078   21.8390   21.3662 H   0  0  0  0  0  0  0  0  0  0  0  0
   20.1262   19.7440   20.8962 C   0  0  0  0  0  0  0  0  0  0  0  0
   21.1339   19.7776   21.3314 H   0  0  0  0  0  0  0  0  0  0  0  0
   20.2566   19.9565   19.8258 H   0  0  0  0  0  0  0  0  0  0  0  0
   19.5204   18.3257   21.0450 C   0  0  0  0  0  0  0  0  0  0  0  0
   18.4232   18.3774   21.0225 H   0  0  0  0  0  0  0  0  0  0  0  0
   19.8034   17.7470   20.1549 H   0  0  0  0  0  0  0  0  0  0  0  0
   19.9912   17.5181   22.2849 C   0  0  0  0  0  0  0  0  0  0  0  0
   21.0828   17.3960   22.2626 H   0  0  0  0  0  0  0  0  0  0  0  0
   19.5830   16.5030   22.1832 H   0  0  0  0  0  0  0  0  0  0  0  0
   19.5393   18.0719   23.6607 C   0  0  0  0  0  0  0  0  0  0  0  0
   18.5853   18.6033   23.5535 H   0  0  0  0  0  0  0  0  0  0  0  0
   19.3355   17.2145   24.3153 H   0  0  0  0  0  0  0  0  0  0  0  0
   20.6115   18.9666   24.3423 C   0  0  0  0  0  0  0  0  0  0  0  0
   20.8992   19.7849   23.6734 H   0  0  0  0  0  0  0  0  0  0  0  0
   21.5245   18.3766   24.4964 H   0  0  0  0  0  0  0  0  0  0  0  0
   20.1853   19.5751   25.6995 C   0  0  2  0  0  0  0  0  0  0  0  0
   21.0181   20.1893   26.0557 H   0  0  0  0  0  0  0  0  0  0  0  0
   19.9189   18.4943   26.7616 C   0  0  0  0  0  0  0  0  0  0  0  0
   19.0300   17.8992   26.5210 H   0  0  0  0  0  0  0  0  0  0  0  0
   20.7754   17.8143   26.8495 H   0  0  0  0  0  0  0  0  0  0  0  0
   19.7576   18.9542   27.7443 H   0  0  0  0  0  0  0  0  0  0  0  0
   19.0091   20.5033   25.5713 N   0  3  0  0  0  0  0  0  0  0  0  0
   18.1782   20.0049   25.2427 H   0  0  0  0  0  0  0  0  0  0  0  0
   19.1998   21.2620   24.9109 H   0  0  0  0  0  0  0  0  0  0  0  0
   18.7740   20.9324   26.4710 H   0  0  0  0  0  0  0  0  0  0  0  0
  1  2  1  0  0  0  0
  1  3  1  0  0  0  0
  1  4  1  0  0  0  0
  1  5  1  0  0  0  0
  5  6  1  0  0  0  0
  5  7  1  0  0  0  0
  5  8  1  0  0  0  0
  8  9  1  0  0  0  0
  8 10  1  0  0  0  0
  8 11  1  0  0  0  0
 11 12  1  0  0  0  0
 11 13  1  0  0  0  0
 11 14  1  0  0  0  0
 14 15  1  0  0  0  0
 14 16  1  0  0  0  0
 14 17  1  0  0  0  0
 17 18  1  0  0  0  0
 17 19  1  0  0  0  0
 17 20  1  0  0  0  0
 20 21  1  0  0  0  0
 20 22  1  0  0  0  0
 22 23  1  0  0  0  0
 22 24  1  0  0  0  0
 22 25  1  0  0  0  0
 20 26  1  0  0  0  0
 26 27  1  0  0  0  0
 26 28  1  0  0  0  0
 26 29  1  0  0  0  0
M  END
> <VM2 Rank>
209

> <Conf_Id>
126

> <Probability>
0.00

> <Sum Probability>
100.00

> <Delta G>
7.697

> <G>
41.400

> <E>
2.836

> <-TS>
38.564

> <U+W>
-21.309

> <U>
31.481

> <W>
-52.790

> <W(PB)>
-55.141

> <W(SA)>
2.351

> <Valence>
9.331

> <Coulomb>
21.339

> <VdW>
0.810

> <VdW6>
-11.777

> <VdW12>
12.587

> <Bond>
0.375

> <Angle>
2.763

> <Pdih>
6.194

> <Idih>
0.000

> <Tether>
0.000

$$$$
VeraChem MOL file


 29 28  0  0  0  0  0  0  0  0999 V2000     
   18.1742   19.3273   20.1251 C   0  0  0  0  0  0  0  0  0  0  0  0
   18.3688   18.3493   19.6659 H   0  0  0  0  0  0  0  0  0  0  0  0
   17.3050   19.2268   20.7882 H   0  0  0  0  0  0  0  0  0  0  0  0
   17.9072   20.0284   19.3237 H   0  0  0  0  0  0  0  0  0  0  0  0
   19.4095   19.8314   20.9005 C   0  0  0  0  0  0  0  0  0  0  0  0
   19.1960   20.8250   21.3184 H   0  0  0  0  0  0  0  0  0  0  0  0
   20.2513   19.9552   20.2046 H   0  0  0  0  0  0  0  0  0  0  0  0
   19.8086   18.8596   22.0324 C   0  0  0  0  0  0  0  0  0  0  0  0
   18.9553   18.7150   22.7039 H   0  0  0  0  0  0  0  0  0  0  0  0
   20.0306   17.8730   21.6023 H   0  0  0  0  0  0  0  0  0  0  0  0
   21.0474   19.3634   22.8124 C   0  0  0  0  0  0  0  0  0  0  0  0
   20.9112   20.4032   23.1377 H   0  0  0  0  0  0  0  0  0  0  0  0
   21.8981   19.3839   22.1170 H   0  0  0  0  0  0  0  0  0  0  0  0
   21.4228   18.4633   24.0189 C   0  0  0  0  0  0  0  0  0  0  0  0
   21.0134   17.4523   23.8927 H   0  0  0  0  0  0  0  0  0  0  0  0
   22.5134   18.3302   24.0043 H   0  0  0  0  0  0  0  0  0  0  0  0
   21.0549   19.0384   25.4176 C   0  0  0  0  0  0  0  0  0  0  0  0
   21.5233   20.0241   25.5370 H   0  0  0  0  0  0  0  0  0  0  0  0
   21.5265   18.4009   26.1771 H   0  0  0  0  0  0  0  0  0  0  0  0
   19.5520   19.1516   25.7741 C   0  0  2  0  0  0  0  0  0  0  0  0
   19.4972   19.4701   26.8197 H   0  0  0  0  0  0  0  0  0  0  0  0
   18.8259   17.7983   25.6769 C   0  0  0  0  0  0  0  0  0  0  0  0
   19.3369   17.0410   26.2842 H   0  0  0  0  0  0  0  0  0  0  0  0
   17.7988   17.8859   26.0516 H   0  0  0  0  0  0  0  0  0  0  0  0
   18.7766   17.4307   24.6462 H   0  0  0  0  0  0  0  0  0  0  0  0
   18.8407   20.2228   24.9961 N   0  3  0  0  0  0  0  0  0  0  0  0
   18.9041   20.0450   23.9904 H   0  0  0  0  0  0  0  0  0  0  0  0
   19.2505   21.1447   25.1727 H   0  0  0  0  0  0  0  0  0  0  0  0
   17.8494   20.2742   25.2483 H   0  0  0  0  0  0  0  0  0  0  0  0
  1  2  1  0  0  0  0
  1  3  1  0  0  0  0
  1  4  1  0  0  0  0
  1  5  1  0  0  0  0
  5  6  1  0  0  0  0
  5  7  1  0  0  0  0
  5  8  1  0  0  0  0
  8  9  1  0  0  0  0
  8 10  1  0  0  0  0
  8 11  1  0  0  0  0
 11 12  1  0  0  0  0
 11 13  1  0  0  0  0
 11 14  1  0  0  0  0
 14 15  1  0  0  0  0
 14 16  1  0  0  0  0
 14 17  1  0  0  0  0
 17 18  1  0  0  0  0
 17 19  1  0  0  0  0
 17 20  1  0  0  0  0
 20 21  1  0  0  0  0
 20 22  1  0  0  0  0
 22 23  1  0  0  0  0
 22 24  1  0  0  0  0
 22 25  1  0  0  0  0
 20 26  1  0  0  0  0
 26 27  1  0  0  0  0
 26 28  1  0  0  0  0
 26 29  1  0  0  0  0
M  END
> <VM2 Rank>
210

> <Conf_Id>
880

> <Probability>
0.00

> <Sum Probability>
100.00

> <Delta G>
7.848

> <G>
41.550

> <E>
3.004

> <-TS>
38.546

> <U+W>
-21.140

> <U>
30.268

> <W>
-51.409

> <W(PB)>
-53.818

> <W(SA)>
2.410

> <Valence>
8.045

> <Coulomb>
21.611

> <VdW>
0.612

> <VdW6>
-11.609

> <VdW12>
12.221

> <Bond>
0.344

> <Angle>
2.670

> <Pdih>
5.031

> <Idih>
0.000

> <Tether>
0.000

$$$$
VeraChem MOL file


 29 28  0  0  0  0  0  0  0  0999 V2000     
   19.9538   20.3237   20.0307 C   0  0  0  0  0  0  0  0  0  0  0  0
   18.9980   20.7618   19.7149 H   0  0  0  0  0  0  0  0  0  0  0  0
   20.3363   20.9194   20.8671 H   0  0  0  0  0  0  0  0  0  0  0  0
   20.6594   20.4272   19.1963 H   0  0  0  0  0  0  0  0  0  0  0  0
   19.7780   18.8348   20.4101 C   0  0  0  0  0  0  0  0  0  0  0  0
   20.7524   18.3804   20.6371 H   0  0  0  0  0  0  0  0  0  0  0  0
   19.3953   18.3026   19.5279 H   0  0  0  0  0  0  0  0  0  0  0  0
   18.7927   18.6172   21.5873 C   0  0  0  0  0  0  0  0  0  0  0  0
   18.0711   19.4442   21.6370 H   0  0  0  0  0  0  0  0  0  0  0  0
   18.1973   17.7190   21.3726 H   0  0  0  0  0  0  0  0  0  0  0  0
   19.4634   18.4126   22.9704 C   0  0  0  0  0  0  0  0  0  0  0  0
   20.1013   17.5187   22.9384 H   0  0  0  0  0  0  0  0  0  0  0  0
   18.6642   18.2022   23.6896 H   0  0  0  0  0  0  0  0  0  0  0  0
   20.2936   19.6236   23.4601 C   0  0  0  0  0  0  0  0  0  0  0  0
   21.0735   19.8382   22.7192 H   0  0  0  0  0  0  0  0  0  0  0  0
   19.6579   20.5182   23.4975 H   0  0  0  0  0  0  0  0  0  0  0  0
   21.0121   19.4200   24.8247 C   0  0  0  0  0  0  0  0  0  0  0  0
   21.6016   20.3256   25.0187 H   0  0  0  0  0  0  0  0  0  0  0  0
   21.7497   18.6117   24.7346 H   0  0  0  0  0  0  0  0  0  0  0  0
   20.1253   19.1777   26.0738 C   0  0  2  0  0  0  0  0  0  0  0  0
   20.6891   19.5505   26.9346 H   0  0  0  0  0  0  0  0  0  0  0  0
   19.8737   17.6816   26.3391 C   0  0  0  0  0  0  0  0  0  0  0  0
   19.2855   17.2073   25.5481 H   0  0  0  0  0  0  0  0  0  0  0  0
   20.8231   17.1390   26.4258 H   0  0  0  0  0  0  0  0  0  0  0  0
   19.3324   17.5472   27.2836 H   0  0  0  0  0  0  0  0  0  0  0  0
   18.8435   19.9647   26.0579 N   0  3  0  0  0  0  0  0  0  0  0  0
   19.0243   20.9692   25.9750 H   0  0  0  0  0  0  0  0  0  0  0  0
   18.3028   19.8193   26.9153 H   0  0  0  0  0  0  0  0  0  0  0  0
   18.2544   19.6915   25.2674 H   0  0  0  0  0  0  0  0  0  0  0  0
  1  2  1  0  0  0  0
  1  3  1  0  0  0  0
  1  4  1  0  0  0  0
  1  5  1  0  0  0  0
  5  6  1  0  0  0  0
  5  7  1  0  0  0  0
  5  8  1  0  0  0  0
  8  9  1  0  0  0  0
  8 10  1  0  0  0  0
  8 11  1  0  0  0  0
 11 12  1  0  0  0  0
 11 13  1  0  0  0  0
 11 14  1  0  0  0  0
 14 15  1  0  0  0  0
 14 16  1  0  0  0  0
 14 17  1  0  0  0  0
 17 18  1  0  0  0  0
 17 19  1  0  0  0  0
 17 20  1  0  0  0  0
 20 21  1  0  0  0  0
 20 22  1  0  0  0  0
 22 23  1  0  0  0  0
 22 24  1  0  0  0  0
 22 25  1  0  0  0  0
 20 26  1  0  0  0  0
 26 27  1  0  0  0  0
 26 28  1  0  0  0  0
 26 29  1  0  0  0  0
M  END
> <VM2 Rank>
211

> <Conf_Id>
191

> <Probability>
0.00

> <Sum Probability>
100.00

> <Delta G>
7.857

> <G>
41.560

> <E>
3.396

> <-TS>
38.163

> <U+W>
-20.748

> <U>
31.583

> <W>
-52.331

> <W(PB)>
-54.756

> <W(SA)>
2.425

> <Valence>
9.577

> <Coulomb>
20.656

> <VdW>
1.349

> <VdW6>
-11.328

> <VdW12>
12.677

> <Bond>
0.393

> <Angle>
3.220

> <Pdih>
5.965

> <Idih>
0.000

> <Tether>
0.000

$$$$
VeraChem MOL file


 29 28  0  0  0  0  0  0  0  0999 V2000     
   19.4591   20.8847   21.7313 C   0  0  0  0  0  0  0  0  0  0  0  0
   20.0270   21.1677   22.6255 H   0  0  0  0  0  0  0  0  0  0  0  0
   19.3505   21.7836   21.1107 H   0  0  0  0  0  0  0  0  0  0  0  0
   18.4510   20.5790   22.0283 H   0  0  0  0  0  0  0  0  0  0  0  0
   20.1795   19.7744   20.9365 C   0  0  0  0  0  0  0  0  0  0  0  0
   21.0852   20.2090   20.4907 H   0  0  0  0  0  0  0  0  0  0  0  0
   19.5511   19.4586   20.0922 H   0  0  0  0  0  0  0  0  0  0  0  0
   20.6021   18.5358   21.7687 C   0  0  0  0  0  0  0  0  0  0  0  0
   21.2666   17.9401   21.1276 H   0  0  0  0  0  0  0  0  0  0  0  0
   21.2278   18.8314   22.6176 H   0  0  0  0  0  0  0  0  0  0  0  0
   19.4472   17.5975   22.2141 C   0  0  0  0  0  0  0  0  0  0  0  0
   19.8698   16.5948   22.3673 H   0  0  0  0  0  0  0  0  0  0  0  0
   18.7349   17.4867   21.3851 H   0  0  0  0  0  0  0  0  0  0  0  0
   18.6698   17.9772   23.5042 C   0  0  0  0  0  0  0  0  0  0  0  0
   18.0988   18.8996   23.3651 H   0  0  0  0  0  0  0  0  0  0  0  0
   17.9094   17.1989   23.6570 H   0  0  0  0  0  0  0  0  0  0  0  0
   19.5349   18.0427   24.7925 C   0  0  0  0  0  0  0  0  0  0  0  0
   20.3522   17.3132   24.7166 H   0  0  0  0  0  0  0  0  0  0  0  0
   18.9240   17.7192   25.6457 H   0  0  0  0  0  0  0  0  0  0  0  0
   20.1067   19.4428   25.1110 C   0  0  2  0  0  0  0  0  0  0  0  0
   20.6354   19.8174   24.2320 H   0  0  0  0  0  0  0  0  0  0  0  0
   21.1096   19.3579   26.2722 C   0  0  0  0  0  0  0  0  0  0  0  0
   20.6280   18.9898   27.1868 H   0  0  0  0  0  0  0  0  0  0  0  0
   21.9359   18.6799   26.0244 H   0  0  0  0  0  0  0  0  0  0  0  0
   21.5411   20.3436   26.4857 H   0  0  0  0  0  0  0  0  0  0  0  0
   19.0271   20.4431   25.4236 N   0  3  0  0  0  0  0  0  0  0  0  0
   19.4195   21.3692   25.6163 H   0  0  0  0  0  0  0  0  0  0  0  0
   18.4878   20.1621   26.2469 H   0  0  0  0  0  0  0  0  0  0  0  0
   18.3718   20.5412   24.6439 H   0  0  0  0  0  0  0  0  0  0  0  0
  1  2  1  0  0  0  0
  1  3  1  0  0  0  0
  1  4  1  0  0  0  0
  1  5  1  0  0  0  0
  5  6  1  0  0  0  0
  5  7  1  0  0  0  0
  5  8  1  0  0  0  0
  8  9  1  0  0  0  0
  8 10  1  0  0  0  0
  8 11  1  0  0  0  0
 11 12  1  0  0  0  0
 11 13  1  0  0  0  0
 11 14  1  0  0  0  0
 14 15  1  0  0  0  0
 14 16  1  0  0  0  0
 14 17  1  0  0  0  0
 17 18  1  0  0  0  0
 17 19  1  0  0  0  0
 17 20  1  0  0  0  0
 20 21  1  0  0  0  0
 20 22  1  0  0  0  0
 22 23  1  0  0  0  0
 22 24  1  0  0  0  0
 22 25  1  0  0  0  0
 20 26  1  0  0  0  0
 26 27  1  0  0  0  0
 26 28  1  0  0  0  0
 26 29  1  0  0  0  0
M  END
> <VM2 Rank>
212

> <Conf_Id>
1625

> <Probability>
0.00

> <Sum Probability>
100.00

> <Delta G>
7.983

> <G>
41.685

> <E>
3.119

> <-TS>
38.566

> <U+W>
-21.026

> <U>
31.493

> <W>
-52.520

> <W(PB)>
-54.860

> <W(SA)>
2.341

> <Valence>
9.477

> <Coulomb>
21.744

> <VdW>
0.271

> <VdW6>
-12.153

> <VdW12>
12.425

> <Bond>
0.389

> <Angle>
3.717

> <Pdih>
5.371

> <Idih>
0.000

> <Tether>
0.000

$$$$
VeraChem MOL file


 29 28  0  0  0  0  0  0  0  0999 V2000     
   20.5276   19.7266   20.2912 C   0  0  0  0  0  0  0  0  0  0  0  0
   21.0976   18.8066   20.4663 H   0  0  0  0  0  0  0  0  0  0  0  0
   20.6458   19.9849   19.2309 H   0  0  0  0  0  0  0  0  0  0  0  0
   20.9715   20.5350   20.8864 H   0  0  0  0  0  0  0  0  0  0  0  0
   19.0351   19.5336   20.6351 C   0  0  0  0  0  0  0  0  0  0  0  0
   18.6516   18.6454   20.1139 H   0  0  0  0  0  0  0  0  0  0  0  0
   18.4711   20.3875   20.2343 H   0  0  0  0  0  0  0  0  0  0  0  0
   18.7347   19.4213   22.1514 C   0  0  0  0  0  0  0  0  0  0  0  0
   19.0224   20.3517   22.6543 H   0  0  0  0  0  0  0  0  0  0  0  0
   17.6433   19.3557   22.2598 H   0  0  0  0  0  0  0  0  0  0  0  0
   19.3583   18.1839   22.8550 C   0  0  0  0  0  0  0  0  0  0  0  0
   19.3957   17.3484   22.1426 H   0  0  0  0  0  0  0  0  0  0  0  0
   18.6809   17.8421   23.6464 H   0  0  0  0  0  0  0  0  0  0  0  0
   20.7732   18.3894   23.4650 C   0  0  0  0  0  0  0  0  0  0  0  0
   21.1006   17.4378   23.9045 H   0  0  0  0  0  0  0  0  0  0  0  0
   21.4910   18.5866   22.6612 H   0  0  0  0  0  0  0  0  0  0  0  0
   20.9253   19.5157   24.5300 C   0  0  0  0  0  0  0  0  0  0  0  0
   20.7807   20.4967   24.0613 H   0  0  0  0  0  0  0  0  0  0  0  0
   21.9720   19.5147   24.8613 H   0  0  0  0  0  0  0  0  0  0  0  0
   20.0400   19.4225   25.7986 C   0  0  2  0  0  0  0  0  0  0  0  0
   20.4248   20.1605   26.5092 H   0  0  0  0  0  0  0  0  0  0  0  0
   20.1306   18.0446   26.4773 C   0  0  0  0  0  0  0  0  0  0  0  0
   19.6798   17.2578   25.8611 H   0  0  0  0  0  0  0  0  0  0  0  0
   21.1765   17.7744   26.6690 H   0  0  0  0  0  0  0  0  0  0  0  0
   19.6080   18.0564   27.4416 H   0  0  0  0  0  0  0  0  0  0  0  0
   18.6112   19.8184   25.5506 N   0  3  0  0  0  0  0  0  0  0  0  0
   18.1787   19.2109   24.8511 H   0  0  0  0  0  0  0  0  0  0  0  0
   18.5452   20.7806   25.2068 H   0  0  0  0  0  0  0  0  0  0  0  0
   18.0524   19.7594   26.4067 H   0  0  0  0  0  0  0  0  0  0  0  0
  1  2  1  0  0  0  0
  1  3  1  0  0  0  0
  1  4  1  0  0  0  0
  1  5  1  0  0  0  0
  5  6  1  0  0  0  0
  5  7  1  0  0  0  0
  5  8  1  0  0  0  0
  8  9  1  0  0  0  0
  8 10  1  0  0  0  0
  8 11  1  0  0  0  0
 11 12  1  0  0  0  0
 11 13  1  0  0  0  0
 11 14  1  0  0  0  0
 14 15  1  0  0  0  0
 14 16  1  0  0  0  0
 14 17  1  0  0  0  0
 17 18  1  0  0  0  0
 17 19  1  0  0  0  0
 17 20  1  0  0  0  0
 20 21  1  0  0  0  0
 20 22  1  0  0  0  0
 22 23  1  0  0  0  0
 22 24  1  0  0  0  0
 22 25  1  0  0  0  0
 20 26  1  0  0  0  0
 26 27  1  0  0  0  0
 26 28  1  0  0  0  0
 26 29  1  0  0  0  0
M  END
> <VM2 Rank>
213

> <Conf_Id>
701

> <Probability>
0.00

> <Sum Probability>
100.00

> <Delta G>
8.030

> <G>
41.733

> <E>
3.077

> <-TS>
38.656

> <U+W>
-21.068

> <U>
31.482

> <W>
-52.550

> <W(PB)>
-54.905

> <W(SA)>
2.356

> <Valence>
8.795

> <Coulomb>
21.891

> <VdW>
0.796

> <VdW6>
-12.959

> <VdW12>
13.755

> <Bond>
0.475

> <Angle>
3.847

> <Pdih>
4.473

> <Idih>
0.000

> <Tether>
0.000

$$$$
VeraChem MOL file


 29 28  0  0  0  0  0  0  0  0999 V2000     
   19.6302   18.9413   19.7197 C   0  0  0  0  0  0  0  0  0  0  0  0
   19.6203   19.9950   19.4122 H   0  0  0  0  0  0  0  0  0  0  0  0
   20.6732   18.6368   19.8719 H   0  0  0  0  0  0  0  0  0  0  0  0
   19.2302   18.3452   18.8893 H   0  0  0  0  0  0  0  0  0  0  0  0
   18.7850   18.7269   20.9956 C   0  0  0  0  0  0  0  0  0  0  0  0
   18.8352   17.6717   21.2983 H   0  0  0  0  0  0  0  0  0  0  0  0
   17.7308   18.9297   20.7604 H   0  0  0  0  0  0  0  0  0  0  0  0
   19.2137   19.6306   22.1764 C   0  0  0  0  0  0  0  0  0  0  0  0
   19.1346   20.6846   21.8762 H   0  0  0  0  0  0  0  0  0  0  0  0
   18.4969   19.4930   22.9939 H   0  0  0  0  0  0  0  0  0  0  0  0
   20.6511   19.3432   22.6797 C   0  0  0  0  0  0  0  0  0  0  0  0
   21.3585   19.6279   21.8895 H   0  0  0  0  0  0  0  0  0  0  0  0
   20.8013   18.2673   22.8380 H   0  0  0  0  0  0  0  0  0  0  0  0
   21.0161   20.1357   23.9611 C   0  0  0  0  0  0  0  0  0  0  0  0
   22.0112   20.5741   23.8029 H   0  0  0  0  0  0  0  0  0  0  0  0
   20.3479   20.9974   24.0897 H   0  0  0  0  0  0  0  0  0  0  0  0
   21.0944   19.2976   25.2704 C   0  0  0  0  0  0  0  0  0  0  0  0
   21.5456   19.9390   26.0388 H   0  0  0  0  0  0  0  0  0  0  0  0
   21.8031   18.4696   25.1371 H   0  0  0  0  0  0  0  0  0  0  0  0
   19.7685   18.7540   25.8611 C   0  0  2  0  0  0  0  0  0  0  0  0
   19.9726   18.5120   26.9087 H   0  0  0  0  0  0  0  0  0  0  0  0
   19.3046   17.4442   25.1991 C   0  0  0  0  0  0  0  0  0  0  0  0
   20.1089   16.6984   25.2068 H   0  0  0  0  0  0  0  0  0  0  0  0
   18.4568   17.0192   25.7501 H   0  0  0  0  0  0  0  0  0  0  0  0
   18.9852   17.5898   24.1637 H   0  0  0  0  0  0  0  0  0  0  0  0
   18.6723   19.7825   25.8908 N   0  3  0  0  0  0  0  0  0  0  0  0
   18.9560   20.6141   26.4169 H   0  0  0  0  0  0  0  0  0  0  0  0
   17.8248   19.4143   26.3324 H   0  0  0  0  0  0  0  0  0  0  0  0
   18.4264   20.0844   24.9455 H   0  0  0  0  0  0  0  0  0  0  0  0
  1  2  1  0  0  0  0
  1  3  1  0  0  0  0
  1  4  1  0  0  0  0
  1  5  1  0  0  0  0
  5  6  1  0  0  0  0
  5  7  1  0  0  0  0
  5  8  1  0  0  0  0
  8  9  1  0  0  0  0
  8 10  1  0  0  0  0
  8 11  1  0  0  0  0
 11 12  1  0  0  0  0
 11 13  1  0  0  0  0
 11 14  1  0  0  0  0
 14 15  1  0  0  0  0
 14 16  1  0  0  0  0
 14 17  1  0  0  0  0
 17 18  1  0  0  0  0
 17 19  1  0  0  0  0
 17 20  1  0  0  0  0
 20 21  1  0  0  0  0
 20 22  1  0  0  0  0
 22 23  1  0  0  0  0
 22 24  1  0  0  0  0
 22 25  1  0  0  0  0
 20 26  1  0  0  0  0
 26 27  1  0  0  0  0
 26 28  1  0  0  0  0
 26 29  1  0  0  0  0
M  END
> <VM2 Rank>
214

> <Conf_Id>
682

> <Probability>
0.00

> <Sum Probability>
100.00

> <Delta G>
8.053

> <G>
41.755

> <E>
3.417

> <-TS>
38.338

> <U+W>
-20.727

> <U>
31.882

> <W>
-52.609

> <W(PB)>
-54.981

> <W(SA)>
2.372

> <Valence>
9.739

> <Coulomb>
21.343

> <VdW>
0.800

> <VdW6>
-11.812

> <VdW12>
12.612

> <Bond>
0.385

> <Angle>
3.191

> <Pdih>
6.164

> <Idih>
0.000

> <Tether>
0.000

$$$$
VeraChem MOL file


 29 28  0  0  0  0  0  0  0  0999 V2000     
   18.7633   18.0472   20.6762 C   0  0  0  0  0  0  0  0  0  0  0  0
   17.9275   17.8779   21.3671 H   0  0  0  0  0  0  0  0  0  0  0  0
   18.4262   17.7690   19.6693 H   0  0  0  0  0  0  0  0  0  0  0  0
   19.5798   17.3677   20.9495 H   0  0  0  0  0  0  0  0  0  0  0  0
   19.2174   19.5243   20.7039 C   0  0  0  0  0  0  0  0  0  0  0  0
   18.3985   20.1520   20.3255 H   0  0  0  0  0  0  0  0  0  0  0  0
   20.0586   19.6664   20.0112 H   0  0  0  0  0  0  0  0  0  0  0  0
   19.6117   20.0201   22.1158 C   0  0  0  0  0  0  0  0  0  0  0  0
   19.7798   21.1048   22.0654 H   0  0  0  0  0  0  0  0  0  0  0  0
   18.7672   19.8733   22.7983 H   0  0  0  0  0  0  0  0  0  0  0  0
   20.8913   19.3420   22.6694 C   0  0  0  0  0  0  0  0  0  0  0  0
   21.7059   19.5234   21.9546 H   0  0  0  0  0  0  0  0  0  0  0  0
   20.7783   18.2521   22.7163 H   0  0  0  0  0  0  0  0  0  0  0  0
   21.3253   19.8922   24.0525 C   0  0  0  0  0  0  0  0  0  0  0  0
   22.4103   20.0612   24.0114 H   0  0  0  0  0  0  0  0  0  0  0  0
   20.8942   20.8864   24.2293 H   0  0  0  0  0  0  0  0  0  0  0  0
   21.0612   18.9542   25.2664 C   0  0  0  0  0  0  0  0  0  0  0  0
   21.5723   19.3950   26.1323 H   0  0  0  0  0  0  0  0  0  0  0  0
   21.5582   17.9889   25.1024 H   0  0  0  0  0  0  0  0  0  0  0  0
   19.5894   18.7143   25.6883 C   0  0  2  0  0  0  0  0  0  0  0  0
   19.6158   18.3750   26.7284 H   0  0  0  0  0  0  0  0  0  0  0  0
   18.9105   17.5896   24.8864 C   0  0  0  0  0  0  0  0  0  0  0  0
   17.9236   17.3630   25.3080 H   0  0  0  0  0  0  0  0  0  0  0  0
   18.7687   17.8534   23.8353 H   0  0  0  0  0  0  0  0  0  0  0  0
   19.5054   16.6689   24.9287 H   0  0  0  0  0  0  0  0  0  0  0  0
   18.7659   19.9721   25.6951 N   0  3  0  0  0  0  0  0  0  0  0  0
   17.8115   19.7939   26.0207 H   0  0  0  0  0  0  0  0  0  0  0  0
   18.7074   20.3761   24.7576 H   0  0  0  0  0  0  0  0  0  0  0  0
   19.1738   20.6806   26.3120 H   0  0  0  0  0  0  0  0  0  0  0  0
  1  2  1  0  0  0  0
  1  3  1  0  0  0  0
  1  4  1  0  0  0  0
  1  5  1  0  0  0  0
  5  6  1  0  0  0  0
  5  7  1  0  0  0  0
  5  8  1  0  0  0  0
  8  9  1  0  0  0  0
  8 10  1  0  0  0  0
  8 11  1  0  0  0  0
 11 12  1  0  0  0  0
 11 13  1  0  0  0  0
 11 14  1  0  0  0  0
 14 15  1  0  0  0  0
 14 16  1  0  0  0  0
 14 17  1  0  0  0  0
 17 18  1  0  0  0  0
 17 19  1  0  0  0  0
 17 20  1  0  0  0  0
 20 21  1  0  0  0  0
 20 22  1  0  0  0  0
 22 23  1  0  0  0  0
 22 24  1  0  0  0  0
 22 25  1  0  0  0  0
 20 26  1  0  0  0  0
 26 27  1  0  0  0  0
 26 28  1  0  0  0  0
 26 29  1  0  0  0  0
M  END
> <VM2 Rank>
215

> <Conf_Id>
1692

> <Probability>
0.00

> <Sum Probability>
100.00

> <Delta G>
8.141

> <G>
41.843

> <E>
3.366

> <-TS>
38.477

> <U+W>
-20.778

> <U>
31.790

> <W>
-52.568

> <W(PB)>
-54.941

> <W(SA)>
2.373

> <Valence>
9.764

> <Coulomb>
21.415

> <VdW>
0.611

> <VdW6>
-12.189

> <VdW12>
12.800

> <Bond>
0.394

> <Angle>
3.286

> <Pdih>
6.084

> <Idih>
0.000

> <Tether>
0.000

$$$$
VeraChem MOL file


 29 28  0  0  0  0  0  0  0  0999 V2000     
   20.5037   18.0919   20.7109 C   0  0  0  0  0  0  0  0  0  0  0  0
   21.0184   18.6239   19.9003 H   0  0  0  0  0  0  0  0  0  0  0  0
   21.1425   18.1310   21.5989 H   0  0  0  0  0  0  0  0  0  0  0  0
   20.4139   17.0391   20.4137 H   0  0  0  0  0  0  0  0  0  0  0  0
   19.1062   18.7006   20.9699 C   0  0  0  0  0  0  0  0  0  0  0  0
   18.5726   18.1292   21.7414 H   0  0  0  0  0  0  0  0  0  0  0  0
   18.5158   18.5843   20.0503 H   0  0  0  0  0  0  0  0  0  0  0  0
   19.1408   20.2056   21.3391 C   0  0  0  0  0  0  0  0  0  0  0  0
   19.9581   20.7094   20.8050 H   0  0  0  0  0  0  0  0  0  0  0  0
   18.2173   20.6625   20.9575 H   0  0  0  0  0  0  0  0  0  0  0  0
   19.2150   20.5238   22.8569 C   0  0  0  0  0  0  0  0  0  0  0  0
   18.3618   20.0609   23.3669 H   0  0  0  0  0  0  0  0  0  0  0  0
   19.0739   21.6077   22.9694 H   0  0  0  0  0  0  0  0  0  0  0  0
   20.5525   20.1465   23.5484 C   0  0  0  0  0  0  0  0  0  0  0  0
   21.3599   20.1746   22.8045 H   0  0  0  0  0  0  0  0  0  0  0  0
   20.8143   20.9220   24.2816 H   0  0  0  0  0  0  0  0  0  0  0  0
   20.5473   18.7670   24.2617 C   0  0  0  0  0  0  0  0  0  0  0  0
   21.5698   18.3680   24.2323 H   0  0  0  0  0  0  0  0  0  0  0  0
   19.9256   18.0491   23.7132 H   0  0  0  0  0  0  0  0  0  0  0  0
   20.1064   18.8280   25.7425 C   0  0  2  0  0  0  0  0  0  0  0  0
   20.7663   19.5286   26.2634 H   0  0  0  0  0  0  0  0  0  0  0  0
   20.2570   17.4472   26.4006 C   0  0  0  0  0  0  0  0  0  0  0  0
   21.2939   17.0947   26.3351 H   0  0  0  0  0  0  0  0  0  0  0  0
   19.9876   17.4918   27.4631 H   0  0  0  0  0  0  0  0  0  0  0  0
   19.6121   16.7039   25.9152 H   0  0  0  0  0  0  0  0  0  0  0  0
   18.7072   19.3454   25.9239 N   0  3  0  0  0  0  0  0  0  0  0  0
   18.0224   18.7288   25.4790 H   0  0  0  0  0  0  0  0  0  0  0  0
   18.6035   20.2764   25.5107 H   0  0  0  0  0  0  0  0  0  0  0  0
   18.4599   19.4170   26.9151 H   0  0  0  0  0  0  0  0  0  0  0  0
  1  2  1  0  0  0  0
  1  3  1  0  0  0  0
  1  4  1  0  0  0  0
  1  5  1  0  0  0  0
  5  6  1  0  0  0  0
  5  7  1  0  0  0  0
  5  8  1  0  0  0  0
  8  9  1  0  0  0  0
  8 10  1  0  0  0  0
  8 11  1  0  0  0  0
 11 12  1  0  0  0  0
 11 13  1  0  0  0  0
 11 14  1  0  0  0  0
 14 15  1  0  0  0  0
 14 16  1  0  0  0  0
 14 17  1  0  0  0  0
 17 18  1  0  0  0  0
 17 19  1  0  0  0  0
 17 20  1  0  0  0  0
 20 21  1  0  0  0  0
 20 22  1  0  0  0  0
 22 23  1  0  0  0  0
 22 24  1  0  0  0  0
 22 25  1  0  0  0  0
 20 26  1  0  0  0  0
 26 27  1  0  0  0  0
 26 28  1  0  0  0  0
 26 29  1  0  0  0  0
M  END
> <VM2 Rank>
216

> <Conf_Id>
1221

> <Probability>
0.00

> <Sum Probability>
100.00

> <Delta G>
8.934

> <G>
42.637

> <E>
4.269

> <-TS>
38.368

> <U+W>
-19.876

> <U>
32.569

> <W>
-52.445

> <W(PB)>
-54.827

> <W(SA)>
2.382

> <Valence>
10.555

> <Coulomb>
21.093

> <VdW>
0.921

> <VdW6>
-11.682

> <VdW12>
12.604

> <Bond>
0.382

> <Angle>
2.638

> <Pdih>
7.535

> <Idih>
0.000

> <Tether>
0.000

$$$$
VeraChem MOL file


 29 28  0  0  0  0  0  0  0  0999 V2000     
   19.1509   20.2502   20.5098 C   0  0  0  0  0  0  0  0  0  0  0  0
   18.3240   19.5410   20.6395 H   0  0  0  0  0  0  0  0  0  0  0  0
   19.0395   21.0550   21.2477 H   0  0  0  0  0  0  0  0  0  0  0  0
   19.0502   20.6942   19.5110 H   0  0  0  0  0  0  0  0  0  0  0  0
   20.5196   19.5494   20.6534 C   0  0  0  0  0  0  0  0  0  0  0  0
   21.3109   20.2633   20.3852 H   0  0  0  0  0  0  0  0  0  0  0  0
   20.5889   18.7304   19.9239 H   0  0  0  0  0  0  0  0  0  0  0  0
   20.8074   19.0049   22.0756 C   0  0  0  0  0  0  0  0  0  0  0  0
   21.8255   18.5920   22.0720 H   0  0  0  0  0  0  0  0  0  0  0  0
   20.8252   19.8355   22.7913 H   0  0  0  0  0  0  0  0  0  0  0  0
   19.8345   17.8889   22.5449 C   0  0  0  0  0  0  0  0  0  0  0  0
   20.3827   17.1445   23.1378 H   0  0  0  0  0  0  0  0  0  0  0  0
   19.4745   17.3416   21.6629 H   0  0  0  0  0  0  0  0  0  0  0  0
   18.6156   18.3905   23.3643 C   0  0  0  0  0  0  0  0  0  0  0  0
   18.2905   19.3775   23.0130 H   0  0  0  0  0  0  0  0  0  0  0  0
   17.7748   17.7133   23.1604 H   0  0  0  0  0  0  0  0  0  0  0  0
   18.8171   18.4274   24.9034 C   0  0  0  0  0  0  0  0  0  0  0  0
   19.0951   17.4318   25.2740 H   0  0  0  0  0  0  0  0  0  0  0  0
   17.8354   18.6399   25.3471 H   0  0  0  0  0  0  0  0  0  0  0  0
   19.8242   19.4907   25.4037 C   0  0  2  0  0  0  0  0  0  0  0  0
   19.8958   20.2783   24.6481 H   0  0  0  0  0  0  0  0  0  0  0  0
   21.2225   18.8907   25.6384 C   0  0  0  0  0  0  0  0  0  0  0  0
   21.6194   18.4232   24.7318 H   0  0  0  0  0  0  0  0  0  0  0  0
   21.9306   19.6706   25.9441 H   0  0  0  0  0  0  0  0  0  0  0  0
   21.1975   18.1281   26.4268 H   0  0  0  0  0  0  0  0  0  0  0  0
   19.3441   20.1634   26.6606 N   0  3  0  0  0  0  0  0  0  0  0  0
   19.9992   20.8866   26.9712 H   0  0  0  0  0  0  0  0  0  0  0  0
   19.2429   19.4932   27.4277 H   0  0  0  0  0  0  0  0  0  0  0  0
   18.4349   20.6144   26.5230 H   0  0  0  0  0  0  0  0  0  0  0  0
  1  2  1  0  0  0  0
  1  3  1  0  0  0  0
  1  4  1  0  0  0  0
  1  5  1  0  0  0  0
  5  6  1  0  0  0  0
  5  7  1  0  0  0  0
  5  8  1  0  0  0  0
  8  9  1  0  0  0  0
  8 10  1  0  0  0  0
  8 11  1  0  0  0  0
 11 12  1  0  0  0  0
 11 13  1  0  0  0  0
 11 14  1  0  0  0  0
 14 15  1  0  0  0  0
 14 16  1  0  0  0  0
 14 17  1  0  0  0  0
 17 18  1  0  0  0  0
 17 19  1  0  0  0  0
 17 20  1  0  0  0  0
 20 21  1  0  0  0  0
 20 22  1  0  0  0  0
 22 23  1  0  0  0  0
 22 24  1  0  0  0  0
 22 25  1  0  0  0  0
 20 26  1  0  0  0  0
 26 27  1  0  0  0  0
 26 28  1  0  0  0  0
 26 29  1  0  0  0  0
M  END
> <VM2 Rank>
217

> <Conf_Id>
337

> <Probability>
0.00

> <Sum Probability>
100.00

> <Delta G>
8.987

> <G>
42.689

> <E>
4.158

> <-TS>
38.531

> <U+W>
-19.986

> <U>
32.755

> <W>
-52.741

> <W(PB)>
-55.136

> <W(SA)>
2.395

> <Valence>
11.326

> <Coulomb>
20.462

> <VdW>
0.967

> <VdW6>
-11.967

> <VdW12>
12.934

> <Bond>
0.369

> <Angle>
2.748

> <Pdih>
8.208

> <Idih>
0.000

> <Tether>
0.000

$$$$
VeraChem MOL file


 29 28  0  0  0  0  0  0  0  0999 V2000     
   18.0959   19.8642   21.1149 C   0  0  0  0  0  0  0  0  0  0  0  0
   17.0385   19.5719   21.0770 H   0  0  0  0  0  0  0  0  0  0  0  0
   18.1895   20.6695   21.8521 H   0  0  0  0  0  0  0  0  0  0  0  0
   18.3635   20.2719   20.1314 H   0  0  0  0  0  0  0  0  0  0  0  0
   18.9809   18.6460   21.4662 C   0  0  0  0  0  0  0  0  0  0  0  0
   18.7770   17.8506   20.7359 H   0  0  0  0  0  0  0  0  0  0  0  0
   18.6846   18.2383   22.4381 H   0  0  0  0  0  0  0  0  0  0  0  0
   20.4996   18.9569   21.4338 C   0  0  0  0  0  0  0  0  0  0  0  0
   21.0665   18.0174   21.4890 H   0  0  0  0  0  0  0  0  0  0  0  0
   20.7356   19.3816   20.4483 H   0  0  0  0  0  0  0  0  0  0  0  0
   21.0114   19.9348   22.5274 C   0  0  0  0  0  0  0  0  0  0  0  0
   20.2492   20.6720   22.7939 H   0  0  0  0  0  0  0  0  0  0  0  0
   21.8209   20.5281   22.0799 H   0  0  0  0  0  0  0  0  0  0  0  0
   21.6079   19.2527   23.7897 C   0  0  0  0  0  0  0  0  0  0  0  0
   22.4668   18.6478   23.4676 H   0  0  0  0  0  0  0  0  0  0  0  0
   22.0279   20.0255   24.4481 H   0  0  0  0  0  0  0  0  0  0  0  0
   20.6676   18.3402   24.6233 C   0  0  0  0  0  0  0  0  0  0  0  0
   21.3097   17.7338   25.2759 H   0  0  0  0  0  0  0  0  0  0  0  0
   20.1508   17.6187   23.9814 H   0  0  0  0  0  0  0  0  0  0  0  0
   19.6643   19.0903   25.5316 C   0  0  2  0  0  0  0  0  0  0  0  0
   20.2243   19.8170   26.1281 H   0  0  0  0  0  0  0  0  0  0  0  0
   18.9823   18.1044   26.4939 C   0  0  0  0  0  0  0  0  0  0  0  0
   19.7246   17.5868   27.1142 H   0  0  0  0  0  0  0  0  0  0  0  0
   18.2964   18.6314   27.1687 H   0  0  0  0  0  0  0  0  0  0  0  0
   18.4080   17.3474   25.9453 H   0  0  0  0  0  0  0  0  0  0  0  0
   18.6260   19.8665   24.7733 N   0  3  0  0  0  0  0  0  0  0  0  0
   18.0496   19.2501   24.1949 H   0  0  0  0  0  0  0  0  0  0  0  0
   19.0634   20.5538   24.1554 H   0  0  0  0  0  0  0  0  0  0  0  0
   18.0009   20.3722   25.4078 H   0  0  0  0  0  0  0  0  0  0  0  0
  1  2  1  0  0  0  0
  1  3  1  0  0  0  0
  1  4  1  0  0  0  0
  1  5  1  0  0  0  0
  5  6  1  0  0  0  0
  5  7  1  0  0  0  0
  5  8  1  0  0  0  0
  8  9  1  0  0  0  0
  8 10  1  0  0  0  0
  8 11  1  0  0  0  0
 11 12  1  0  0  0  0
 11 13  1  0  0  0  0
 11 14  1  0  0  0  0
 14 15  1  0  0  0  0
 14 16  1  0  0  0  0
 14 17  1  0  0  0  0
 17 18  1  0  0  0  0
 17 19  1  0  0  0  0
 17 20  1  0  0  0  0
 20 21  1  0  0  0  0
 20 22  1  0  0  0  0
 22 23  1  0  0  0  0
 22 24  1  0  0  0  0
 22 25  1  0  0  0  0
 20 26  1  0  0  0  0
 26 27  1  0  0  0  0
 26 28  1  0  0  0  0
 26 29  1  0  0  0  0
M  END
> <VM2 Rank>
218

> <Conf_Id>
619

> <Probability>
0.00

> <Sum Probability>
100.00

> <Delta G>
9.175

> <G>
42.877

> <E>
4.511

> <-TS>
38.366

> <U+W>
-19.634

> <U>
31.754

> <W>
-51.388

> <W(PB)>
-53.729

> <W(SA)>
2.341

> <Valence>
9.082

> <Coulomb>
22.209

> <VdW>
0.463

> <VdW6>
-12.280

> <VdW12>
12.743

> <Bond>
0.435

> <Angle>
3.629

> <Pdih>
5.018

> <Idih>
0.000

> <Tether>
0.000

$$$$
VeraChem MOL file


 29 28  0  0  0  0  0  0  0  0999 V2000     
   20.7528   19.6642   20.3662 C   0  0  0  0  0  0  0  0  0  0  0  0
   21.4652   20.1791   21.0236 H   0  0  0  0  0  0  0  0  0  0  0  0
   20.9058   18.5825   20.4667 H   0  0  0  0  0  0  0  0  0  0  0  0
   20.9947   19.9367   19.3308 H   0  0  0  0  0  0  0  0  0  0  0  0
   19.2985   20.0605   20.7034 C   0  0  0  0  0  0  0  0  0  0  0  0
   18.6088   19.5156   20.0437 H   0  0  0  0  0  0  0  0  0  0  0  0
   19.1612   21.1264   20.4734 H   0  0  0  0  0  0  0  0  0  0  0  0
   18.9046   19.8185   22.1825 C   0  0  0  0  0  0  0  0  0  0  0  0
   19.5478   20.4255   22.8327 H   0  0  0  0  0  0  0  0  0  0  0  0
   17.8831   20.1998   22.3184 H   0  0  0  0  0  0  0  0  0  0  0  0
   18.9333   18.3258   22.6120 C   0  0  0  0  0  0  0  0  0  0  0  0
   18.7377   17.7015   21.7291 H   0  0  0  0  0  0  0  0  0  0  0  0
   18.1012   18.1131   23.2964 H   0  0  0  0  0  0  0  0  0  0  0  0
   20.2667   17.8744   23.2663 C   0  0  0  0  0  0  0  0  0  0  0  0
   20.4626   16.8403   22.9508 H   0  0  0  0  0  0  0  0  0  0  0  0
   21.1071   18.4635   22.8777 H   0  0  0  0  0  0  0  0  0  0  0  0
   20.2926   17.8979   24.8189 C   0  0  0  0  0  0  0  0  0  0  0  0
   21.2430   17.4450   25.1315 H   0  0  0  0  0  0  0  0  0  0  0  0
   19.5058   17.2448   25.2192 H   0  0  0  0  0  0  0  0  0  0  0  0
   20.1852   19.3017   25.4580 C   0  0  2  0  0  0  0  0  0  0  0  0
   20.7979   19.9948   24.8735 H   0  0  0  0  0  0  0  0  0  0  0  0
   20.7230   19.2791   26.8981 C   0  0  0  0  0  0  0  0  0  0  0  0
   20.1499   18.5842   27.5247 H   0  0  0  0  0  0  0  0  0  0  0  0
   21.7752   18.9690   26.9176 H   0  0  0  0  0  0  0  0  0  0  0  0
   20.6636   20.2766   27.3509 H   0  0  0  0  0  0  0  0  0  0  0  0
   18.7793   19.8338   25.4486 N   0  3  0  0  0  0  0  0  0  0  0  0
   18.7362   20.7875   25.8196 H   0  0  0  0  0  0  0  0  0  0  0  0
   18.1592   19.2532   26.0198 H   0  0  0  0  0  0  0  0  0  0  0  0
   18.4028   19.8480   24.4966 H   0  0  0  0  0  0  0  0  0  0  0  0
  1  2  1  0  0  0  0
  1  3  1  0  0  0  0
  1  4  1  0  0  0  0
  1  5  1  0  0  0  0
  5  6  1  0  0  0  0
  5  7  1  0  0  0  0
  5  8  1  0  0  0  0
  8  9  1  0  0  0  0
  8 10  1  0  0  0  0
  8 11  1  0  0  0  0
 11 12  1  0  0  0  0
 11 13  1  0  0  0  0
 11 14  1  0  0  0  0
 14 15  1  0  0  0  0
 14 16  1  0  0  0  0
 14 17  1  0  0  0  0
 17 18  1  0  0  0  0
 17 19  1  0  0  0  0
 17 20  1  0  0  0  0
 20 21  1  0  0  0  0
 20 22  1  0  0  0  0
 22 23  1  0  0  0  0
 22 24  1  0  0  0  0
 22 25  1  0  0  0  0
 20 26  1  0  0  0  0
 26 27  1  0  0  0  0
 26 28  1  0  0  0  0
 26 29  1  0  0  0  0
M  END
> <VM2 Rank>
219

> <Conf_Id>
1034

> <Probability>
0.00

> <Sum Probability>
100.00

> <Delta G>
9.374

> <G>
43.076

> <E>
4.610

> <-TS>
38.466

> <U+W>
-19.535

> <U>
32.302

> <W>
-51.837

> <W(PB)>
-54.234

> <W(SA)>
2.398

> <Valence>
9.852

> <Coulomb>
21.476

> <VdW>
0.974

> <VdW6>
-12.184

> <VdW12>
13.158

> <Bond>
0.376

> <Angle>
2.508

> <Pdih>
6.968

> <Idih>
0.000

> <Tether>
0.000

$$$$
VeraChem MOL file


 29 28  0  0  0  0  0  0  0  0999 V2000     
   21.0660   20.2873   21.2477 C   0  0  0  0  0  0  0  0  0  0  0  0
   20.9146   21.3251   21.5722 H   0  0  0  0  0  0  0  0  0  0  0  0
   21.5633   19.7489   22.0625 H   0  0  0  0  0  0  0  0  0  0  0  0
   21.7513   20.3032   20.3904 H   0  0  0  0  0  0  0  0  0  0  0  0
   19.7220   19.6309   20.8547 C   0  0  0  0  0  0  0  0  0  0  0  0
   19.8949   18.6257   20.4458 H   0  0  0  0  0  0  0  0  0  0  0  0
   19.2823   20.2170   20.0356 H   0  0  0  0  0  0  0  0  0  0  0  0
   18.7097   19.5751   22.0279 C   0  0  0  0  0  0  0  0  0  0  0  0
   18.9705   20.3312   22.7752 H   0  0  0  0  0  0  0  0  0  0  0  0
   17.7272   19.8796   21.6410 H   0  0  0  0  0  0  0  0  0  0  0  0
   18.5394   18.1679   22.6675 C   0  0  0  0  0  0  0  0  0  0  0  0
   18.1882   17.4899   21.8773 H   0  0  0  0  0  0  0  0  0  0  0  0
   17.7290   18.1859   23.4082 H   0  0  0  0  0  0  0  0  0  0  0  0
   19.8113   17.5418   23.3004 C   0  0  0  0  0  0  0  0  0  0  0  0
   19.7119   16.4498   23.2306 H   0  0  0  0  0  0  0  0  0  0  0  0
   20.6970   17.7797   22.7009 H   0  0  0  0  0  0  0  0  0  0  0  0
   20.0773   17.8746   24.7937 C   0  0  0  0  0  0  0  0  0  0  0  0
   21.0085   17.3642   25.0737 H   0  0  0  0  0  0  0  0  0  0  0  0
   19.2960   17.4250   25.4206 H   0  0  0  0  0  0  0  0  0  0  0  0
   20.2079   19.3776   25.1284 C   0  0  2  0  0  0  0  0  0  0  0  0
   20.6501   19.8881   24.2674 H   0  0  0  0  0  0  0  0  0  0  0  0
   21.1314   19.5864   26.3397 C   0  0  0  0  0  0  0  0  0  0  0  0
   21.2307   20.6537   26.5731 H   0  0  0  0  0  0  0  0  0  0  0  0
   20.7407   19.0763   27.2292 H   0  0  0  0  0  0  0  0  0  0  0  0
   22.1369   19.1975   26.1358 H   0  0  0  0  0  0  0  0  0  0  0  0
   18.8709   20.0144   25.3940 N   0  3  0  0  0  0  0  0  0  0  0  0
   18.2378   19.8828   24.6003 H   0  0  0  0  0  0  0  0  0  0  0  0
   18.9612   21.0208   25.5610 H   0  0  0  0  0  0  0  0  0  0  0  0
   18.4229   19.6057   26.2187 H   0  0  0  0  0  0  0  0  0  0  0  0
  1  2  1  0  0  0  0
  1  3  1  0  0  0  0
  1  4  1  0  0  0  0
  1  5  1  0  0  0  0
  5  6  1  0  0  0  0
  5  7  1  0  0  0  0
  5  8  1  0  0  0  0
  8  9  1  0  0  0  0
  8 10  1  0  0  0  0
  8 11  1  0  0  0  0
 11 12  1  0  0  0  0
 11 13  1  0  0  0  0
 11 14  1  0  0  0  0
 14 15  1  0  0  0  0
 14 16  1  0  0  0  0
 14 17  1  0  0  0  0
 17 18  1  0  0  0  0
 17 19  1  0  0  0  0
 17 20  1  0  0  0  0
 20 21  1  0  0  0  0
 20 22  1  0  0  0  0
 22 23  1  0  0  0  0
 22 24  1  0  0  0  0
 22 25  1  0  0  0  0
 20 26  1  0  0  0  0
 26 27  1  0  0  0  0
 26 28  1  0  0  0  0
 26 29  1  0  0  0  0
M  END
> <VM2 Rank>
220

> <Conf_Id>
349

> <Probability>
0.00

> <Sum Probability>
100.00

> <Delta G>
9.974

> <G>
43.676

> <E>
5.441

> <-TS>
38.235

> <U+W>
-18.703

> <U>
33.704

> <W>
-52.407

> <W(PB)>
-54.808

> <W(SA)>
2.401

> <Valence>
11.194

> <Coulomb>
21.655

> <VdW>
0.855

> <VdW6>
-12.373

> <VdW12>
13.228

> <Bond>
0.401

> <Angle>
3.378

> <Pdih>
7.414

> <Idih>
0.000

> <Tether>
0.000

$$$$
