VeraChem MOL file


 17 16  0  0  0  0  0  0  0  0999 V2000     
   20.1216   19.0268   25.0643 C   0  0  0  0  0  0  0  0  0  0  0  0
   21.2293   19.3333   25.4593 O   0  5  0  0  0  0  0  0  0  0  0  0
   19.0985   19.5456   25.4657 O   0  0  0  0  0  0  0  0  0  0  0  0
   20.0076   17.9136   24.0272 C   0  0  0  0  0  0  0  0  0  0  0  0
   19.0746   17.3709   24.2189 H   0  0  0  0  0  0  0  0  0  0  0  0
   20.8161   17.1972   24.2139 H   0  0  0  0  0  0  0  0  0  0  0  0
   20.0479   18.3595   22.5719 C   0  0  0  0  0  0  0  0  0  0  0  0
   19.9642   17.5396   21.8613 H   0  0  0  0  0  0  0  0  0  0  0  0
   20.1727   19.6233   22.1417 C   0  0  0  0  0  0  0  0  0  0  0  0
   20.2559   20.4371   22.8608 H   0  0  0  0  0  0  0  0  0  0  0  0
   20.2150   20.0872   20.6950 C   0  0  0  0  0  0  0  0  0  0  0  0
   19.4079   20.8139   20.5307 H   0  0  0  0  0  0  0  0  0  0  0  0
   21.1486   20.6406   20.5260 H   0  0  0  0  0  0  0  0  0  0  0  0
   20.1002   18.9628   19.6420 C   0  0  0  0  0  0  0  0  0  0  0  0
   20.1392   19.3805   18.6276 H   0  0  0  0  0  0  0  0  0  0  0  0
   20.9245   18.2444   19.7412 H   0  0  0  0  0  0  0  0  0  0  0  0
   19.1510   18.4210   19.7458 H   0  0  0  0  0  0  0  0  0  0  0  0
  1  2  1  0  0  0  0
  1  3  2  0  0  0  0
  1  4  1  0  0  0  0
  4  5  1  0  0  0  0
  4  6  1  0  0  0  0
  4  7  1  0  0  0  0
  7  8  1  0  0  0  0
  7  9  2  0  0  0  0
  9 10  1  0  0  0  0
  9 11  1  0  0  0  0
 11 12  1  0  0  0  0
 11 13  1  0  0  0  0
 11 14  1  0  0  0  0
 14 15  1  0  0  0  0
 14 16  1  0  0  0  0
 14 17  1  0  0  0  0
M  END
> <VM2 Rank>
1

> <Conf_Id>
121

> <Probability>
14.27

> <Sum Probability>
14.27

> <Delta G>
0.000

> <G>
-26.660

> <E>
-36.826

> <-TS>
10.165

> <U+W>
-50.239

> <U>
14.007

> <W>
-64.247

> <W(PB)>
-66.286

> <W(SA)>
2.040

> <Valence>
12.998

> <Coulomb>
-0.405

> <VdW>
1.414

> <VdW6>
-5.682

> <VdW12>
7.096

> <Bond>
0.147

> <Angle>
3.367

> <Pdih>
9.484

> <Idih>
0.001

> <Tether>
0.000

$$$$
