VeraChem MOL file


 25 24  0  0  0  0  0  0  0  0999 V2000     
   20.1601   19.3401   27.8084 C   0  0  0  0  0  0  0  0  0  0  0  0
   21.2157   19.7050   28.2872 O   0  5  0  0  0  0  0  0  0  0  0  0
   19.0777   19.5690   28.3112 O   0  0  0  0  0  0  0  0  0  0  0  0
   20.1941   18.5724   26.4918 C   0  0  0  0  0  0  0  0  0  0  0  0
   19.3547   17.8667   26.4872 H   0  0  0  0  0  0  0  0  0  0  0  0
   21.1164   17.9795   26.4670 H   0  0  0  0  0  0  0  0  0  0  0  0
   20.1206   19.4991   25.2533 C   0  0  0  0  0  0  0  0  0  0  0  0
   19.1984   20.0950   25.3002 H   0  0  0  0  0  0  0  0  0  0  0  0
   20.9600   20.2078   25.2799 H   0  0  0  0  0  0  0  0  0  0  0  0
   20.1566   18.6986   23.9334 C   0  0  0  0  0  0  0  0  0  0  0  0
   19.3171   17.9902   23.9106 H   0  0  0  0  0  0  0  0  0  0  0  0
   21.0790   18.1032   23.8902 H   0  0  0  0  0  0  0  0  0  0  0  0
   20.0829   19.6250   22.7006 C   0  0  0  0  0  0  0  0  0  0  0  0
   19.1606   20.2204   22.7437 H   0  0  0  0  0  0  0  0  0  0  0  0
   20.9223   20.3334   22.7232 H   0  0  0  0  0  0  0  0  0  0  0  0
   20.1189   18.8252   21.3804 C   0  0  0  0  0  0  0  0  0  0  0  0
   19.2795   18.1167   21.3574 H   0  0  0  0  0  0  0  0  0  0  0  0
   21.0412   18.2297   21.3370 H   0  0  0  0  0  0  0  0  0  0  0  0
   20.0451   19.7510   20.1480 C   0  0  0  0  0  0  0  0  0  0  0  0
   19.1228   20.3470   20.1870 H   0  0  0  0  0  0  0  0  0  0  0  0
   20.8844   20.4600   20.1665 H   0  0  0  0  0  0  0  0  0  0  0  0
   20.0813   18.9486   18.8317 C   0  0  0  0  0  0  0  0  0  0  0  0
   19.2340   18.2529   18.7723 H   0  0  0  0  0  0  0  0  0  0  0  0
   20.0280   19.6221   17.9664 H   0  0  0  0  0  0  0  0  0  0  0  0
   21.0089   18.3668   18.7516 H   0  0  0  0  0  0  0  0  0  0  0  0
  1  2  1  0  0  0  0
  1  3  2  0  0  0  0
  1  4  1  0  0  0  0
  4  5  1  0  0  0  0
  4  6  1  0  0  0  0
  4  7  1  0  0  0  0
  7  8  1  0  0  0  0
  7  9  1  0  0  0  0
  7 10  1  0  0  0  0
 10 11  1  0  0  0  0
 10 12  1  0  0  0  0
 10 13  1  0  0  0  0
 13 14  1  0  0  0  0
 13 15  1  0  0  0  0
 13 16  1  0  0  0  0
 16 17  1  0  0  0  0
 16 18  1  0  0  0  0
 16 19  1  0  0  0  0
 19 20  1  0  0  0  0
 19 21  1  0  0  0  0
 19 22  1  0  0  0  0
 22 23  1  0  0  0  0
 22 24  1  0  0  0  0
 22 25  1  0  0  0  0
M  END
> <VM2 Rank>
1

> <Conf_Id>
348

> <Probability>
25.22

> <Sum Probability>
25.22

> <Delta G>
0.000

> <G>
-7.962

> <E>
-32.361

> <-TS>
24.399

> <U+W>
-52.928

> <U>
5.617

> <W>
-58.544

> <W(PB)>
-61.064

> <W(SA)>
2.520

> <Valence>
7.531

> <Coulomb>
-2.818

> <VdW>
0.904

> <VdW6>
-7.640

> <VdW12>
8.544

> <Bond>
0.115

> <Angle>
2.271

> <Pdih>
5.144

> <Idih>
0.001

> <Tether>
0.000

$$$$
VeraChem MOL file


 25 24  0  0  0  0  0  0  0  0999 V2000     
   20.1314   19.7075   27.5208 C   0  0  0  0  0  0  0  0  0  0  0  0
   20.9465   19.3334   28.3409 O   0  5  0  0  0  0  0  0  0  0  0  0
   19.0292   20.1289   27.8110 O   0  0  0  0  0  0  0  0  0  0  0  0
   20.5034   19.6202   26.0450 C   0  0  0  0  0  0  0  0  0  0  0  0
   21.5850   19.7777   25.9570 H   0  0  0  0  0  0  0  0  0  0  0  0
   20.0101   20.4507   25.5276 H   0  0  0  0  0  0  0  0  0  0  0  0
   20.1061   18.2641   25.4059 C   0  0  0  0  0  0  0  0  0  0  0  0
   20.5416   17.4515   26.0039 H   0  0  0  0  0  0  0  0  0  0  0  0
   19.0159   18.1386   25.4596 H   0  0  0  0  0  0  0  0  0  0  0  0
   20.5788   18.1094   23.9408 C   0  0  0  0  0  0  0  0  0  0  0  0
   20.3595   17.0848   23.6103 H   0  0  0  0  0  0  0  0  0  0  0  0
   21.6702   18.2246   23.8921 H   0  0  0  0  0  0  0  0  0  0  0  0
   19.9056   19.1060   22.9691 C   0  0  0  0  0  0  0  0  0  0  0  0
   18.8136   19.0255   23.0589 H   0  0  0  0  0  0  0  0  0  0  0  0
   20.1753   20.1348   23.2409 H   0  0  0  0  0  0  0  0  0  0  0  0
   20.3226   18.8454   21.5054 C   0  0  0  0  0  0  0  0  0  0  0  0
   20.0498   17.8194   21.2226 H   0  0  0  0  0  0  0  0  0  0  0  0
   21.4150   18.9219   21.4162 H   0  0  0  0  0  0  0  0  0  0  0  0
   19.6554   19.8415   20.5338 C   0  0  0  0  0  0  0  0  0  0  0  0
   18.5624   19.7668   20.6196 H   0  0  0  0  0  0  0  0  0  0  0  0
   19.9279   20.8691   20.8117 H   0  0  0  0  0  0  0  0  0  0  0  0
   20.0740   19.5777   19.0734 C   0  0  0  0  0  0  0  0  0  0  0  0
   19.7848   18.5664   18.7585 H   0  0  0  0  0  0  0  0  0  0  0  0
   19.5907   20.2945   18.3969 H   0  0  0  0  0  0  0  0  0  0  0  0
   21.1607   19.6769   18.9523 H   0  0  0  0  0  0  0  0  0  0  0  0
  1  2  1  0  0  0  0
  1  3  2  0  0  0  0
  1  4  1  0  0  0  0
  4  5  1  0  0  0  0
  4  6  1  0  0  0  0
  4  7  1  0  0  0  0
  7  8  1  0  0  0  0
  7  9  1  0  0  0  0
  7 10  1  0  0  0  0
 10 11  1  0  0  0  0
 10 12  1  0  0  0  0
 10 13  1  0  0  0  0
 13 14  1  0  0  0  0
 13 15  1  0  0  0  0
 13 16  1  0  0  0  0
 16 17  1  0  0  0  0
 16 18  1  0  0  0  0
 16 19  1  0  0  0  0
 19 20  1  0  0  0  0
 19 21  1  0  0  0  0
 19 22  1  0  0  0  0
 22 23  1  0  0  0  0
 22 24  1  0  0  0  0
 22 25  1  0  0  0  0
M  END
> <VM2 Rank>
2

> <Conf_Id>
1026

> <Probability>
5.98

> <Sum Probability>
31.20

> <Delta G>
0.858

> <G>
-7.105

> <E>
-31.612

> <-TS>
24.508

> <U+W>
-52.180

> <U>
6.575

> <W>
-58.755

> <W(PB)>
-61.293

> <W(SA)>
2.538

> <Valence>
8.050

> <Coulomb>
-2.490

> <VdW>
1.015

> <VdW6>
-8.339

> <VdW12>
9.354

> <Bond>
0.157

> <Angle>
2.513

> <Pdih>
5.379

> <Idih>
0.001

> <Tether>
0.000

$$$$
VeraChem MOL file


 25 24  0  0  0  0  0  0  0  0999 V2000     
   20.1304   19.1679   27.7051 C   0  0  0  0  0  0  0  0  0  0  0  0
   21.2276   19.2435   28.2218 O   0  5  0  0  0  0  0  0  0  0  0  0
   19.2270   18.4812   28.1400 O   0  0  0  0  0  0  0  0  0  0  0  0
   19.8806   19.9606   26.4271 C   0  0  0  0  0  0  0  0  0  0  0  0
   20.4729   20.8822   26.4766 H   0  0  0  0  0  0  0  0  0  0  0  0
   18.8242   20.2545   26.4096 H   0  0  0  0  0  0  0  0  0  0  0  0
   20.2355   19.1650   25.1468 C   0  0  0  0  0  0  0  0  0  0  0  0
   21.2925   18.8669   25.1861 H   0  0  0  0  0  0  0  0  0  0  0  0
   19.6440   18.2393   25.1192 H   0  0  0  0  0  0  0  0  0  0  0  0
   19.9741   19.9884   23.8671 C   0  0  0  0  0  0  0  0  0  0  0  0
   20.5657   20.9136   23.8990 H   0  0  0  0  0  0  0  0  0  0  0  0
   18.9169   20.2854   23.8311 H   0  0  0  0  0  0  0  0  0  0  0  0
   20.3288   19.1926   22.5924 C   0  0  0  0  0  0  0  0  0  0  0  0
   21.3866   18.8981   22.6262 H   0  0  0  0  0  0  0  0  0  0  0  0
   19.7384   18.2674   22.5702 H   0  0  0  0  0  0  0  0  0  0  0  0
   20.0631   20.0172   21.3117 C   0  0  0  0  0  0  0  0  0  0  0  0
   20.6050   20.9703   21.3814 H   0  0  0  0  0  0  0  0  0  0  0  0
   18.9958   20.2702   21.2490 H   0  0  0  0  0  0  0  0  0  0  0  0
   20.5009   19.2974   20.0148 C   0  0  0  0  0  0  0  0  0  0  0  0
   20.3885   19.9921   19.1710 H   0  0  0  0  0  0  0  0  0  0  0  0
   21.5697   19.0485   20.0713 H   0  0  0  0  0  0  0  0  0  0  0  0
   19.6850   18.0202   19.7192 C   0  0  0  0  0  0  0  0  0  0  0  0
   18.6098   18.2393   19.6877 H   0  0  0  0  0  0  0  0  0  0  0  0
   19.9723   17.5975   18.7477 H   0  0  0  0  0  0  0  0  0  0  0  0
   19.8575   17.2492   20.4805 H   0  0  0  0  0  0  0  0  0  0  0  0
  1  2  1  0  0  0  0
  1  3  2  0  0  0  0
  1  4  1  0  0  0  0
  4  5  1  0  0  0  0
  4  6  1  0  0  0  0
  4  7  1  0  0  0  0
  7  8  1  0  0  0  0
  7  9  1  0  0  0  0
  7 10  1  0  0  0  0
 10 11  1  0  0  0  0
 10 12  1  0  0  0  0
 10 13  1  0  0  0  0
 13 14  1  0  0  0  0
 13 15  1  0  0  0  0
 13 16  1  0  0  0  0
 16 17  1  0  0  0  0
 16 18  1  0  0  0  0
 16 19  1  0  0  0  0
 19 20  1  0  0  0  0
 19 21  1  0  0  0  0
 19 22  1  0  0  0  0
 22 23  1  0  0  0  0
 22 24  1  0  0  0  0
 22 25  1  0  0  0  0
M  END
> <VM2 Rank>
3

> <Conf_Id>
755

> <Probability>
5.49

> <Sum Probability>
36.70

> <Delta G>
0.908

> <G>
-7.054

> <E>
-31.562

> <-TS>
24.508

> <U+W>
-52.129

> <U>
6.630

> <W>
-58.759

> <W(PB)>
-61.280

> <W(SA)>
2.521

> <Valence>
8.032

> <Coulomb>
-2.441

> <VdW>
1.039

> <VdW6>
-8.257

> <VdW12>
9.295

> <Bond>
0.146

> <Angle>
2.498

> <Pdih>
5.387

> <Idih>
0.001

> <Tether>
0.000

$$$$
VeraChem MOL file


 25 24  0  0  0  0  0  0  0  0999 V2000     
   20.0216   19.1704   27.6698 C   0  0  0  0  0  0  0  0  0  0  0  0
   21.0606   19.2684   28.2924 O   0  5  0  0  0  0  0  0  0  0  0  0
   18.9411   19.5175   28.1041 O   0  0  0  0  0  0  0  0  0  0  0  0
   20.0803   18.6011   26.2569 C   0  0  0  0  0  0  0  0  0  0  0  0
   19.1421   18.0663   26.0660 H   0  0  0  0  0  0  0  0  0  0  0  0
   20.8886   17.8609   26.2211 H   0  0  0  0  0  0  0  0  0  0  0  0
   20.3041   19.6898   25.1786 C   0  0  0  0  0  0  0  0  0  0  0  0
   19.4936   20.4297   25.2360 H   0  0  0  0  0  0  0  0  0  0  0  0
   21.2400   20.2246   25.3922 H   0  0  0  0  0  0  0  0  0  0  0  0
   20.3598   19.0886   23.7574 C   0  0  0  0  0  0  0  0  0  0  0  0
   19.4239   18.5506   23.5583 H   0  0  0  0  0  0  0  0  0  0  0  0
   21.1726   18.3515   23.7024 H   0  0  0  0  0  0  0  0  0  0  0  0
   20.5792   20.1801   22.6845 C   0  0  0  0  0  0  0  0  0  0  0  0
   19.7401   20.8890   22.7000 H   0  0  0  0  0  0  0  0  0  0  0  0
   21.4780   20.7572   22.9414 H   0  0  0  0  0  0  0  0  0  0  0  0
   20.7528   19.6144   21.2548 C   0  0  0  0  0  0  0  0  0  0  0  0
   21.5947   18.9089   21.2379 H   0  0  0  0  0  0  0  0  0  0  0  0
   21.0269   20.4407   20.5847 H   0  0  0  0  0  0  0  0  0  0  0  0
   19.4835   18.9241   20.7062 C   0  0  0  0  0  0  0  0  0  0  0  0
   19.2364   18.0459   21.3168 H   0  0  0  0  0  0  0  0  0  0  0  0
   18.6293   19.6120   20.7728 H   0  0  0  0  0  0  0  0  0  0  0  0
   19.6699   18.4795   19.2414 C   0  0  0  0  0  0  0  0  0  0  0  0
   20.5017   17.7688   19.1498 H   0  0  0  0  0  0  0  0  0  0  0  0
   18.7620   17.9886   18.8677 H   0  0  0  0  0  0  0  0  0  0  0  0
   19.8810   19.3399   18.5929 H   0  0  0  0  0  0  0  0  0  0  0  0
  1  2  1  0  0  0  0
  1  3  2  0  0  0  0
  1  4  1  0  0  0  0
  4  5  1  0  0  0  0
  4  6  1  0  0  0  0
  4  7  1  0  0  0  0
  7  8  1  0  0  0  0
  7  9  1  0  0  0  0
  7 10  1  0  0  0  0
 10 11  1  0  0  0  0
 10 12  1  0  0  0  0
 10 13  1  0  0  0  0
 13 14  1  0  0  0  0
 13 15  1  0  0  0  0
 13 16  1  0  0  0  0
 16 17  1  0  0  0  0
 16 18  1  0  0  0  0
 16 19  1  0  0  0  0
 19 20  1  0  0  0  0
 19 21  1  0  0  0  0
 19 22  1  0  0  0  0
 22 23  1  0  0  0  0
 22 24  1  0  0  0  0
 22 25  1  0  0  0  0
M  END
> <VM2 Rank>
4

> <Conf_Id>
887

> <Probability>
5.41

> <Sum Probability>
42.11

> <Delta G>
0.918

> <G>
-7.045

> <E>
-31.544

> <-TS>
24.499

> <U+W>
-52.112

> <U>
6.583

> <W>
-58.695

> <W(PB)>
-61.195

> <W(SA)>
2.500

> <Valence>
8.068

> <Coulomb>
-2.516

> <VdW>
1.031

> <VdW6>
-8.305

> <VdW12>
9.336

> <Bond>
0.150

> <Angle>
2.522

> <Pdih>
5.396

> <Idih>
0.001

> <Tether>
0.000

$$$$
VeraChem MOL file


 25 24  0  0  0  0  0  0  0  0999 V2000     
   20.3737   19.6428   27.4433 C   0  0  0  0  0  0  0  0  0  0  0  0
   21.5153   20.0321   27.5914 O   0  5  0  0  0  0  0  0  0  0  0  0
   19.4211   20.1083   28.0369 O   0  0  0  0  0  0  0  0  0  0  0  0
   20.1198   18.5219   26.4417 C   0  0  0  0  0  0  0  0  0  0  0  0
   19.2737   17.9262   26.8047 H   0  0  0  0  0  0  0  0  0  0  0  0
   20.9988   17.8661   26.4341 H   0  0  0  0  0  0  0  0  0  0  0  0
   19.8321   19.0459   25.0131 C   0  0  0  0  0  0  0  0  0  0  0  0
   18.9554   19.7078   25.0393 H   0  0  0  0  0  0  0  0  0  0  0  0
   20.6833   19.6547   24.6808 H   0  0  0  0  0  0  0  0  0  0  0  0
   19.5832   17.8893   24.0174 C   0  0  0  0  0  0  0  0  0  0  0  0
   18.7804   17.2489   24.4076 H   0  0  0  0  0  0  0  0  0  0  0  0
   20.4798   17.2579   23.9508 H   0  0  0  0  0  0  0  0  0  0  0  0
   19.1821   18.3696   22.6024 C   0  0  0  0  0  0  0  0  0  0  0  0
   18.9054   17.4918   22.0027 H   0  0  0  0  0  0  0  0  0  0  0  0
   18.2826   18.9969   22.6681 H   0  0  0  0  0  0  0  0  0  0  0  0
   20.3046   19.1428   21.8721 C   0  0  0  0  0  0  0  0  0  0  0  0
   21.2192   18.5344   21.8562 H   0  0  0  0  0  0  0  0  0  0  0  0
   20.5417   20.0648   22.4186 H   0  0  0  0  0  0  0  0  0  0  0  0
   19.9012   19.5035   20.4268 C   0  0  0  0  0  0  0  0  0  0  0  0
   19.6696   18.5870   19.8666 H   0  0  0  0  0  0  0  0  0  0  0  0
   18.9854   20.1105   20.4388 H   0  0  0  0  0  0  0  0  0  0  0  0
   21.0199   20.2779   19.7010 C   0  0  0  0  0  0  0  0  0  0  0  0
   21.9397   19.6809   19.6475 H   0  0  0  0  0  0  0  0  0  0  0  0
   20.7164   20.5256   18.6755 H   0  0  0  0  0  0  0  0  0  0  0  0
   21.2500   21.2162   20.2224 H   0  0  0  0  0  0  0  0  0  0  0  0
  1  2  1  0  0  0  0
  1  3  2  0  0  0  0
  1  4  1  0  0  0  0
  4  5  1  0  0  0  0
  4  6  1  0  0  0  0
  4  7  1  0  0  0  0
  7  8  1  0  0  0  0
  7  9  1  0  0  0  0
  7 10  1  0  0  0  0
 10 11  1  0  0  0  0
 10 12  1  0  0  0  0
 10 13  1  0  0  0  0
 13 14  1  0  0  0  0
 13 15  1  0  0  0  0
 13 16  1  0  0  0  0
 16 17  1  0  0  0  0
 16 18  1  0  0  0  0
 16 19  1  0  0  0  0
 19 20  1  0  0  0  0
 19 21  1  0  0  0  0
 19 22  1  0  0  0  0
 22 23  1  0  0  0  0
 22 24  1  0  0  0  0
 22 25  1  0  0  0  0
M  END
> <VM2 Rank>
5

> <Conf_Id>
779

> <Probability>
5.34

> <Sum Probability>
47.44

> <Delta G>
0.926

> <G>
-7.036

> <E>
-31.542

> <-TS>
24.506

> <U+W>
-52.109

> <U>
7.044

> <W>
-59.153

> <W(PB)>
-61.665

> <W(SA)>
2.511

> <Valence>
8.064

> <Coulomb>
-2.027

> <VdW>
1.007

> <VdW6>
-8.345

> <VdW12>
9.352

> <Bond>
0.151

> <Angle>
2.518

> <Pdih>
5.395

> <Idih>
0.001

> <Tether>
0.000

$$$$
VeraChem MOL file


 25 24  0  0  0  0  0  0  0  0999 V2000     
   19.9013   19.6124   27.4488 C   0  0  0  0  0  0  0  0  0  0  0  0
   20.8002   20.1962   28.0213 O   0  5  0  0  0  0  0  0  0  0  0  0
   18.7231   19.8535   27.6234 O   0  0  0  0  0  0  0  0  0  0  0  0
   20.2730   18.5317   26.4399 C   0  0  0  0  0  0  0  0  0  0  0  0
   19.4849   17.7692   26.4515 H   0  0  0  0  0  0  0  0  0  0  0  0
   21.1963   18.0493   26.7825 H   0  0  0  0  0  0  0  0  0  0  0  0
   20.4586   19.0861   25.0059 C   0  0  0  0  0  0  0  0  0  0  0  0
   19.5293   19.5809   24.6941 H   0  0  0  0  0  0  0  0  0  0  0  0
   21.2441   19.8545   25.0130 H   0  0  0  0  0  0  0  0  0  0  0  0
   20.8302   17.9693   24.0029 C   0  0  0  0  0  0  0  0  0  0  0  0
   20.0203   17.2285   23.9561 H   0  0  0  0  0  0  0  0  0  0  0  0
   21.7170   17.4372   24.3737 H   0  0  0  0  0  0  0  0  0  0  0  0
   21.1340   18.4950   22.5798 C   0  0  0  0  0  0  0  0  0  0  0  0
   21.9472   19.2322   22.6258 H   0  0  0  0  0  0  0  0  0  0  0  0
   21.5068   17.6588   21.9726 H   0  0  0  0  0  0  0  0  0  0  0  0
   19.9053   19.1171   21.8766 C   0  0  0  0  0  0  0  0  0  0  0  0
   19.5649   20.0020   22.4299 H   0  0  0  0  0  0  0  0  0  0  0  0
   19.0759   18.3968   21.8808 H   0  0  0  0  0  0  0  0  0  0  0  0
   20.2260   19.5244   20.4230 C   0  0  0  0  0  0  0  0  0  0  0  0
   21.0567   20.2437   20.4150 H   0  0  0  0  0  0  0  0  0  0  0  0
   20.5602   18.6443   19.8563 H   0  0  0  0  0  0  0  0  0  0  0  0
   19.0012   20.1482   19.7242 C   0  0  0  0  0  0  0  0  0  0  0  0
   18.1643   19.4384   19.6908 H   0  0  0  0  0  0  0  0  0  0  0  0
   18.6648   21.0502   20.2522 H   0  0  0  0  0  0  0  0  0  0  0  0
   19.2469   20.4313   18.6925 H   0  0  0  0  0  0  0  0  0  0  0  0
  1  2  1  0  0  0  0
  1  3  2  0  0  0  0
  1  4  1  0  0  0  0
  4  5  1  0  0  0  0
  4  6  1  0  0  0  0
  4  7  1  0  0  0  0
  7  8  1  0  0  0  0
  7  9  1  0  0  0  0
  7 10  1  0  0  0  0
 10 11  1  0  0  0  0
 10 12  1  0  0  0  0
 10 13  1  0  0  0  0
 13 14  1  0  0  0  0
 13 15  1  0  0  0  0
 13 16  1  0  0  0  0
 16 17  1  0  0  0  0
 16 18  1  0  0  0  0
 16 19  1  0  0  0  0
 19 20  1  0  0  0  0
 19 21  1  0  0  0  0
 19 22  1  0  0  0  0
 22 23  1  0  0  0  0
 22 24  1  0  0  0  0
 22 25  1  0  0  0  0
M  END
> <VM2 Rank>
6

> <Conf_Id>
1030

> <Probability>
5.18

> <Sum Probability>
52.63

> <Delta G>
0.943

> <G>
-7.019

> <E>
-31.525

> <-TS>
24.506

> <U+W>
-52.093

> <U>
7.044

> <W>
-59.136

> <W(PB)>
-61.631

> <W(SA)>
2.494

> <Valence>
8.064

> <Coulomb>
-2.027

> <VdW>
1.007

> <VdW6>
-8.345

> <VdW12>
9.352

> <Bond>
0.151

> <Angle>
2.518

> <Pdih>
5.395

> <Idih>
0.001

> <Tether>
0.000

$$$$
VeraChem MOL file


 25 24  0  0  0  0  0  0  0  0999 V2000     
   20.0591   19.4466   27.7000 C   0  0  0  0  0  0  0  0  0  0  0  0
   21.0533   19.9254   28.2090 O   0  5  0  0  0  0  0  0  0  0  0  0
   18.9334   19.6287   28.1197 O   0  0  0  0  0  0  0  0  0  0  0  0
   20.2318   18.5882   26.4520 C   0  0  0  0  0  0  0  0  0  0  0  0
   19.4467   17.8226   26.4539 H   0  0  0  0  0  0  0  0  0  0  0  0
   21.1935   18.0666   26.5278 H   0  0  0  0  0  0  0  0  0  0  0  0
   20.1721   19.4122   25.1423 C   0  0  0  0  0  0  0  0  0  0  0  0
   19.2090   19.9385   25.0883 H   0  0  0  0  0  0  0  0  0  0  0  0
   20.9557   20.1824   25.1620 H   0  0  0  0  0  0  0  0  0  0  0  0
   20.3492   18.5212   23.8938 C   0  0  0  0  0  0  0  0  0  0  0  0
   19.5648   17.7520   23.8771 H   0  0  0  0  0  0  0  0  0  0  0  0
   21.3121   17.9953   23.9520 H   0  0  0  0  0  0  0  0  0  0  0  0
   20.2896   19.3455   22.5896 C   0  0  0  0  0  0  0  0  0  0  0  0
   19.3278   19.8725   22.5410 H   0  0  0  0  0  0  0  0  0  0  0  0
   21.0759   20.1125   22.6041 H   0  0  0  0  0  0  0  0  0  0  0  0
   20.4634   18.4514   21.3401 C   0  0  0  0  0  0  0  0  0  0  0  0
   19.6490   17.7154   21.2954 H   0  0  0  0  0  0  0  0  0  0  0  0
   21.3955   17.8782   21.4377 H   0  0  0  0  0  0  0  0  0  0  0  0
   20.5135   19.2483   20.0157 C   0  0  0  0  0  0  0  0  0  0  0  0
   21.3314   19.9810   20.0543 H   0  0  0  0  0  0  0  0  0  0  0  0
   20.7554   18.5564   19.1971 H   0  0  0  0  0  0  0  0  0  0  0  0
   19.1876   19.9667   19.6838 C   0  0  0  0  0  0  0  0  0  0  0  0
   19.2454   20.4419   18.6960 H   0  0  0  0  0  0  0  0  0  0  0  0
   18.3495   19.2578   19.6693 H   0  0  0  0  0  0  0  0  0  0  0  0
   18.9626   20.7514   20.4168 H   0  0  0  0  0  0  0  0  0  0  0  0
  1  2  1  0  0  0  0
  1  3  2  0  0  0  0
  1  4  1  0  0  0  0
  4  5  1  0  0  0  0
  4  6  1  0  0  0  0
  4  7  1  0  0  0  0
  7  8  1  0  0  0  0
  7  9  1  0  0  0  0
  7 10  1  0  0  0  0
 10 11  1  0  0  0  0
 10 12  1  0  0  0  0
 10 13  1  0  0  0  0
 13 14  1  0  0  0  0
 13 15  1  0  0  0  0
 13 16  1  0  0  0  0
 16 17  1  0  0  0  0
 16 18  1  0  0  0  0
 16 19  1  0  0  0  0
 19 20  1  0  0  0  0
 19 21  1  0  0  0  0
 19 22  1  0  0  0  0
 22 23  1  0  0  0  0
 22 24  1  0  0  0  0
 22 25  1  0  0  0  0
M  END
> <VM2 Rank>
7

> <Conf_Id>
1000

> <Probability>
5.13

> <Sum Probability>
57.76

> <Delta G>
0.949

> <G>
-7.013

> <E>
-31.521

> <-TS>
24.508

> <U+W>
-52.088

> <U>
6.630

> <W>
-58.718

> <W(PB)>
-61.243

> <W(SA)>
2.525

> <Valence>
8.032

> <Coulomb>
-2.441

> <VdW>
1.039

> <VdW6>
-8.256

> <VdW12>
9.295

> <Bond>
0.146

> <Angle>
2.498

> <Pdih>
5.387

> <Idih>
0.001

> <Tether>
0.000

$$$$
VeraChem MOL file


 25 24  0  0  0  0  0  0  0  0999 V2000     
   20.3158   19.1892   27.6664 C   0  0  0  0  0  0  0  0  0  0  0  0
   21.3534   19.6711   28.0762 O   0  5  0  0  0  0  0  0  0  0  0  0
   19.2874   19.1556   28.3129 O   0  0  0  0  0  0  0  0  0  0  0  0
   20.2974   18.6149   26.2544 C   0  0  0  0  0  0  0  0  0  0  0  0
   19.5889   17.7781   26.2361 H   0  0  0  0  0  0  0  0  0  0  0  0
   21.2911   18.2032   26.0411 H   0  0  0  0  0  0  0  0  0  0  0  0
   19.9124   19.6648   25.1831 C   0  0  0  0  0  0  0  0  0  0  0  0
   18.9214   20.0768   25.4190 H   0  0  0  0  0  0  0  0  0  0  0  0
   20.6236   20.5016   25.2229 H   0  0  0  0  0  0  0  0  0  0  0  0
   19.9008   19.0593   23.7627 C   0  0  0  0  0  0  0  0  0  0  0  0
   19.1872   18.2248   23.7253 H   0  0  0  0  0  0  0  0  0  0  0  0
   20.8926   18.6442   23.5413 H   0  0  0  0  0  0  0  0  0  0  0  0
   19.5199   20.1125   22.6967 C   0  0  0  0  0  0  0  0  0  0  0  0
   18.5612   20.5711   22.9750 H   0  0  0  0  0  0  0  0  0  0  0  0
   20.2623   20.9223   22.6940 H   0  0  0  0  0  0  0  0  0  0  0  0
   19.3868   19.5272   21.2706 C   0  0  0  0  0  0  0  0  0  0  0  0
   18.9946   20.3110   20.6082 H   0  0  0  0  0  0  0  0  0  0  0  0
   18.6412   18.7204   21.2721 H   0  0  0  0  0  0  0  0  0  0  0  0
   20.7205   19.0031   20.6919 C   0  0  0  0  0  0  0  0  0  0  0  0
   21.4817   19.7940   20.7398 H   0  0  0  0  0  0  0  0  0  0  0  0
   21.0913   18.1643   21.2954 H   0  0  0  0  0  0  0  0  0  0  0  0
   20.5585   18.5362   19.2311 C   0  0  0  0  0  0  0  0  0  0  0  0
   20.2250   19.3619   18.5890 H   0  0  0  0  0  0  0  0  0  0  0  0
   21.5127   18.1641   18.8359 H   0  0  0  0  0  0  0  0  0  0  0  0
   19.8219   17.7254   19.1577 H   0  0  0  0  0  0  0  0  0  0  0  0
  1  2  1  0  0  0  0
  1  3  2  0  0  0  0
  1  4  1  0  0  0  0
  4  5  1  0  0  0  0
  4  6  1  0  0  0  0
  4  7  1  0  0  0  0
  7  8  1  0  0  0  0
  7  9  1  0  0  0  0
  7 10  1  0  0  0  0
 10 11  1  0  0  0  0
 10 12  1  0  0  0  0
 10 13  1  0  0  0  0
 13 14  1  0  0  0  0
 13 15  1  0  0  0  0
 13 16  1  0  0  0  0
 16 17  1  0  0  0  0
 16 18  1  0  0  0  0
 16 19  1  0  0  0  0
 19 20  1  0  0  0  0
 19 21  1  0  0  0  0
 19 22  1  0  0  0  0
 22 23  1  0  0  0  0
 22 24  1  0  0  0  0
 22 25  1  0  0  0  0
M  END
> <VM2 Rank>
8

> <Conf_Id>
863

> <Probability>
5.13

> <Sum Probability>
62.88

> <Delta G>
0.950

> <G>
-7.013

> <E>
-31.512

> <-TS>
24.499

> <U+W>
-52.079

> <U>
6.583

> <W>
-58.663

> <W(PB)>
-61.146

> <W(SA)>
2.483

> <Valence>
8.068

> <Coulomb>
-2.516

> <VdW>
1.031

> <VdW6>
-8.305

> <VdW12>
9.336

> <Bond>
0.150

> <Angle>
2.522

> <Pdih>
5.396

> <Idih>
0.001

> <Tether>
0.000

$$$$
