VeraChem MOL file


 22 21  0  0  0  0  0  0  0  0999 V2000     
   19.8314   19.1341   26.1875 C   0  0  0  0  0  0  0  0  0  0  0  0
   20.0589   20.2373   26.6431 O   0  5  0  0  0  0  0  0  0  0  0  0
   20.1743   18.0999   26.7254 O   0  0  0  0  0  0  0  0  0  0  0  0
   19.0946   19.0431   24.8559 C   0  0  0  0  0  0  0  0  0  0  0  0
   18.3978   19.8876   24.7937 H   0  0  0  0  0  0  0  0  0  0  0  0
   18.4931   18.1261   24.8613 H   0  0  0  0  0  0  0  0  0  0  0  0
   20.0506   19.0480   23.6377 C   0  0  0  0  0  0  0  0  0  0  0  0
   20.6546   19.9659   23.6541 H   0  0  0  0  0  0  0  0  0  0  0  0
   20.7498   18.2045   23.7217 H   0  0  0  0  0  0  0  0  0  0  0  0
   19.2808   18.9552   22.3025 C   0  0  0  0  0  0  0  0  0  0  0  0
   18.5819   19.7991   22.2223 H   0  0  0  0  0  0  0  0  0  0  0  0
   18.6771   18.0373   22.2898 H   0  0  0  0  0  0  0  0  0  0  0  0
   20.2363   18.9604   21.0900 C   0  0  0  0  0  0  0  0  0  0  0  0
   20.8403   19.8781   21.1024 H   0  0  0  0  0  0  0  0  0  0  0  0
   20.9354   18.1165   21.1698 H   0  0  0  0  0  0  0  0  0  0  0  0
   19.4677   18.8678   19.7552 C   0  0  0  0  0  0  0  0  0  0  0  0
   18.7687   19.7115   19.6708 H   0  0  0  0  0  0  0  0  0  0  0  0
   18.8638   17.9499   19.7382 H   0  0  0  0  0  0  0  0  0  0  0  0
   20.4254   18.8732   18.5468 C   0  0  0  0  0  0  0  0  0  0  0  0
   21.0203   19.7956   18.5212 H   0  0  0  0  0  0  0  0  0  0  0  0
   19.8624   18.8068   17.6067 H   0  0  0  0  0  0  0  0  0  0  0  0
   21.1161   18.0208   18.5892 H   0  0  0  0  0  0  0  0  0  0  0  0
  1  2  1  0  0  0  0
  1  3  2  0  0  0  0
  1  4  1  0  0  0  0
  4  5  1  0  0  0  0
  4  6  1  0  0  0  0
  4  7  1  0  0  0  0
  7  8  1  0  0  0  0
  7  9  1  0  0  0  0
  7 10  1  0  0  0  0
 10 11  1  0  0  0  0
 10 12  1  0  0  0  0
 10 13  1  0  0  0  0
 13 14  1  0  0  0  0
 13 15  1  0  0  0  0
 13 16  1  0  0  0  0
 16 17  1  0  0  0  0
 16 18  1  0  0  0  0
 16 19  1  0  0  0  0
 19 20  1  0  0  0  0
 19 21  1  0  0  0  0
 19 22  1  0  0  0  0
M  END
> <VM2 Rank>
1

> <Conf_Id>
202

> <Probability>
32.02

> <Sum Probability>
32.02

> <Delta G>
0.000

> <G>
-16.999

> <E>
-36.566

> <-TS>
19.568

> <U+W>
-54.451

> <U>
5.779

> <W>
-60.229

> <W(PB)>
-62.557

> <W(SA)>
2.328

> <Valence>
7.101

> <Coulomb>
-2.079

> <VdW>
0.757

> <VdW6>
-6.496

> <VdW12>
7.253

> <Bond>
0.100

> <Angle>
2.262

> <Pdih>
4.738

> <Idih>
0.001

> <Tether>
0.000

$$$$
