VeraChem MOL file


 26 25  0  0  0  0  0  0  0  0999 V2000     
   19.9837   18.6238   26.4861 N   0  3  0  0  0  0  0  0  0  0  0  0
   20.8629   18.0855   26.5333 H   0  0  0  0  0  0  0  0  0  0  0  0
   19.2305   17.9186   26.4753 H   0  0  0  0  0  0  0  0  0  0  0  0
   19.9443   19.4507   25.2166 C   0  0  0  0  0  0  0  0  0  0  0  0
   20.7598   20.1768   25.2639 H   0  0  0  0  0  0  0  0  0  0  0  0
   18.9976   19.9967   25.2014 H   0  0  0  0  0  0  0  0  0  0  0  0
   20.0759   18.6066   23.9359 C   0  0  0  0  0  0  0  0  0  0  0  0
   21.0206   18.0471   23.9630 H   0  0  0  0  0  0  0  0  0  0  0  0
   19.2643   17.8676   23.9008 H   0  0  0  0  0  0  0  0  0  0  0  0
   20.0306   19.4900   22.6695 C   0  0  0  0  0  0  0  0  0  0  0  0
   20.8408   20.2314   22.7110 H   0  0  0  0  0  0  0  0  0  0  0  0
   19.0865   20.0524   22.6490 H   0  0  0  0  0  0  0  0  0  0  0  0
   20.1618   18.6528   21.3767 C   0  0  0  0  0  0  0  0  0  0  0  0
   21.1057   18.0906   21.3970 H   0  0  0  0  0  0  0  0  0  0  0  0
   19.3517   17.9115   21.3349 H   0  0  0  0  0  0  0  0  0  0  0  0
   20.1163   19.5367   20.1103 C   0  0  0  0  0  0  0  0  0  0  0  0
   20.9264   20.2786   20.1461 H   0  0  0  0  0  0  0  0  0  0  0  0
   19.1726   20.0995   20.0840 H   0  0  0  0  0  0  0  0  0  0  0  0
   20.2476   18.6974   18.8214 C   0  0  0  0  0  0  0  0  0  0  0  0
   20.2132   19.3421   17.9337 H   0  0  0  0  0  0  0  0  0  0  0  0
   19.4308   17.9684   18.7399 H   0  0  0  0  0  0  0  0  0  0  0  0
   21.1984   18.1489   18.8025 H   0  0  0  0  0  0  0  0  0  0  0  0
   19.8478   19.5320   27.7005 C   0  0  0  0  0  0  0  0  0  0  0  0
   18.8963   20.0654   27.6453 H   0  0  0  0  0  0  0  0  0  0  0  0
   19.8778   18.9241   28.6075 H   0  0  0  0  0  0  0  0  0  0  0  0
   20.6732   20.2472   27.7083 H   0  0  0  0  0  0  0  0  0  0  0  0
  1  2  1  0  0  0  0
  1  3  1  0  0  0  0
  1  4  1  0  0  0  0
  4  5  1  0  0  0  0
  4  6  1  0  0  0  0
  4  7  1  0  0  0  0
  7  8  1  0  0  0  0
  7  9  1  0  0  0  0
  7 10  1  0  0  0  0
 10 11  1  0  0  0  0
 10 12  1  0  0  0  0
 10 13  1  0  0  0  0
 13 14  1  0  0  0  0
 13 15  1  0  0  0  0
 13 16  1  0  0  0  0
 16 17  1  0  0  0  0
 16 18  1  0  0  0  0
 16 19  1  0  0  0  0
 19 20  1  0  0  0  0
 19 21  1  0  0  0  0
 19 22  1  0  0  0  0
  1 23  1  0  0  0  0
 23 24  1  0  0  0  0
 23 25  1  0  0  0  0
 23 26  1  0  0  0  0
M  END
> <VM2 Rank>
1

> <Conf_Id>
11

> <Probability>
6.71

> <Sum Probability>
6.71

> <Delta G>
0.000

> <G>
75.467

> <E>
43.304

> <-TS>
32.163

> <U+W>
21.842

> <U>
70.357

> <W>
-48.512

> <W(PB)>
-50.853

> <W(SA)>
2.341

> <Valence>
1.714

> <Coulomb>
68.480

> <VdW>
0.163

> <VdW6>
-5.268

> <VdW12>
5.431

> <Bond>
0.126

> <Angle>
0.350

> <Pdih>
1.238

> <Idih>
0.000

> <Tether>
0.000

$$$$
