VeraChem MOL file


 26 25  0  0  0  0  0  0  0  0999 V2000     
   20.2414   18.6562   18.8060 C   0  0  0  0  0  0  0  0  0  0  0  0
   19.6042   19.4968   18.5017 H   0  0  0  0  0  0  0  0  0  0  0  0
   21.0557   18.5688   18.0750 H   0  0  0  0  0  0  0  0  0  0  0  0
   19.6428   17.7374   18.7550 H   0  0  0  0  0  0  0  0  0  0  0  0
   20.8051   18.8730   20.2263 C   0  0  0  0  0  0  0  0  0  0  0  0
   21.4261   19.7797   20.2375 H   0  0  0  0  0  0  0  0  0  0  0  0
   21.4645   18.0338   20.4887 H   0  0  0  0  0  0  0  0  0  0  0  0
   19.6785   18.9994   21.2757 C   0  0  0  0  0  0  0  0  0  0  0  0
   19.0205   19.8374   21.0067 H   0  0  0  0  0  0  0  0  0  0  0  0
   19.0595   18.0916   21.2595 H   0  0  0  0  0  0  0  0  0  0  0  0
   20.2389   19.2174   22.6994 C   0  0  0  0  0  0  0  0  0  0  0  0
   20.8549   20.1274   22.7150 H   0  0  0  0  0  0  0  0  0  0  0  0
   20.9000   18.3795   22.9576 H   0  0  0  0  0  0  0  0  0  0  0  0
   19.1076   19.3423   23.7488 C   0  0  0  0  0  0  0  0  0  0  0  0
   18.4279   20.1490   23.4434 H   0  0  0  0  0  0  0  0  0  0  0  0
   18.5119   18.4198   23.7646 H   0  0  0  0  0  0  0  0  0  0  0  0
   19.6331   19.6456   25.1688 C   0  0  1  0  0  0  0  0  0  0  0  0
   20.2419   20.5539   25.1223 H   0  0  0  0  0  0  0  0  0  0  0  0
   18.4605   19.8996   26.1296 C   0  0  0  0  0  0  0  0  0  0  0  0
   17.8447   20.7377   25.7803 H   0  0  0  0  0  0  0  0  0  0  0  0
   18.8276   20.1520   27.1321 H   0  0  0  0  0  0  0  0  0  0  0  0
   17.8173   19.0147   26.2138 H   0  0  0  0  0  0  0  0  0  0  0  0
   20.5229   18.5546   25.6994 N   0  3  0  0  0  0  0  0  0  0  0  0
   20.0217   17.6651   25.7696 H   0  0  0  0  0  0  0  0  0  0  0  0
   21.3337   18.4049   25.0931 H   0  0  0  0  0  0  0  0  0  0  0  0
   20.8769   18.7814   26.6330 H   0  0  0  0  0  0  0  0  0  0  0  0
  1  2  1  0  0  0  0
  1  3  1  0  0  0  0
  1  4  1  0  0  0  0
  1  5  1  0  0  0  0
  5  6  1  0  0  0  0
  5  7  1  0  0  0  0
  5  8  1  0  0  0  0
  8  9  1  0  0  0  0
  8 10  1  0  0  0  0
  8 11  1  0  0  0  0
 11 12  1  0  0  0  0
 11 13  1  0  0  0  0
 11 14  1  0  0  0  0
 14 15  1  0  0  0  0
 14 16  1  0  0  0  0
 14 17  1  0  0  0  0
 17 18  1  0  0  0  0
 17 19  1  0  0  0  0
 19 20  1  0  0  0  0
 19 21  1  0  0  0  0
 19 22  1  0  0  0  0
 17 23  1  0  0  0  0
 23 24  1  0  0  0  0
 23 25  1  0  0  0  0
 23 26  1  0  0  0  0
M  END
> <VM2 Rank>
1

> <Conf_Id>
613

> <Probability>
16.98

> <Sum Probability>
16.98

> <Delta G>
0.000

> <G>
23.712

> <E>
-8.840

> <-TS>
32.553

> <U+W>
-30.302

> <U>
23.517

> <W>
-53.817

> <W(PB)>
-56.163

> <W(SA)>
2.346

> <Valence>
2.737

> <Coulomb>
19.862

> <VdW>
0.919

> <VdW6>
-6.793

> <VdW12>
7.712

> <Bond>
0.171

> <Angle>
0.873

> <Pdih>
1.693

> <Idih>
0.000

> <Tether>
0.000

$$$$
VeraChem MOL file


 26 25  0  0  0  0  0  0  0  0999 V2000     
   20.2651   18.6438   18.8026 C   0  0  0  0  0  0  0  0  0  0  0  0
   21.1742   18.0291   18.8332 H   0  0  0  0  0  0  0  0  0  0  0  0
   19.4028   17.9736   18.6903 H   0  0  0  0  0  0  0  0  0  0  0  0
   20.3173   19.2783   17.9084 H   0  0  0  0  0  0  0  0  0  0  0  0
   20.1353   19.5062   20.0760 C   0  0  0  0  0  0  0  0  0  0  0  0
   19.2362   20.1339   20.0009 H   0  0  0  0  0  0  0  0  0  0  0  0
   20.9939   20.1889   20.1429 H   0  0  0  0  0  0  0  0  0  0  0  0
   20.0597   18.6366   21.3506 C   0  0  0  0  0  0  0  0  0  0  0  0
   19.2010   17.9547   21.2783 H   0  0  0  0  0  0  0  0  0  0  0  0
   20.9590   18.0089   21.4186 H   0  0  0  0  0  0  0  0  0  0  0  0
   19.9302   19.4968   22.6281 C   0  0  0  0  0  0  0  0  0  0  0  0
   19.0340   20.1256   22.5455 H   0  0  0  0  0  0  0  0  0  0  0  0
   20.7917   20.1749   22.7022 H   0  0  0  0  0  0  0  0  0  0  0  0
   19.8500   18.6222   23.9036 C   0  0  0  0  0  0  0  0  0  0  0  0
   18.9534   17.9894   23.8631 H   0  0  0  0  0  0  0  0  0  0  0  0
   20.7112   17.9410   23.9147 H   0  0  0  0  0  0  0  0  0  0  0  0
   19.8535   19.4355   25.2183 C   0  0  1  0  0  0  0  0  0  0  0  0
   20.7326   20.0873   25.2161 H   0  0  0  0  0  0  0  0  0  0  0  0
   18.5969   20.3130   25.3617 C   0  0  0  0  0  0  0  0  0  0  0  0
   17.6826   19.7092   25.3053 H   0  0  0  0  0  0  0  0  0  0  0  0
   18.5529   21.0782   24.5782 H   0  0  0  0  0  0  0  0  0  0  0  0
   18.5995   20.8366   26.3256 H   0  0  0  0  0  0  0  0  0  0  0  0
   19.9974   18.5340   26.4131 N   0  3  0  0  0  0  0  0  0  0  0  0
   19.2077   17.8877   26.4919 H   0  0  0  0  0  0  0  0  0  0  0  0
   20.8513   17.9713   26.3608 H   0  0  0  0  0  0  0  0  0  0  0  0
   20.0403   19.0710   27.2839 H   0  0  0  0  0  0  0  0  0  0  0  0
  1  2  1  0  0  0  0
  1  3  1  0  0  0  0
  1  4  1  0  0  0  0
  1  5  1  0  0  0  0
  5  6  1  0  0  0  0
  5  7  1  0  0  0  0
  5  8  1  0  0  0  0
  8  9  1  0  0  0  0
  8 10  1  0  0  0  0
  8 11  1  0  0  0  0
 11 12  1  0  0  0  0
 11 13  1  0  0  0  0
 11 14  1  0  0  0  0
 14 15  1  0  0  0  0
 14 16  1  0  0  0  0
 14 17  1  0  0  0  0
 17 18  1  0  0  0  0
 17 19  1  0  0  0  0
 19 20  1  0  0  0  0
 19 21  1  0  0  0  0
 19 22  1  0  0  0  0
 17 23  1  0  0  0  0
 23 24  1  0  0  0  0
 23 25  1  0  0  0  0
 23 26  1  0  0  0  0
M  END
> <VM2 Rank>
2

> <Conf_Id>
969

> <Probability>
7.72

> <Sum Probability>
24.69

> <Delta G>
0.470

> <G>
24.182

> <E>
-8.384

> <-TS>
32.567

> <U+W>
-29.846

> <U>
23.817

> <W>
-53.664

> <W(PB)>
-56.022

> <W(SA)>
2.358

> <Valence>
3.277

> <Coulomb>
19.492

> <VdW>
1.049

> <VdW6>
-6.949

> <VdW12>
7.998

> <Bond>
0.183

> <Angle>
1.152

> <Pdih>
1.942

> <Idih>
0.000

> <Tether>
0.000

$$$$
VeraChem MOL file


 26 25  0  0  0  0  0  0  0  0999 V2000     
   20.3613   18.7664   18.8989 C   0  0  0  0  0  0  0  0  0  0  0  0
   20.3290   17.9289   18.1900 H   0  0  0  0  0  0  0  0  0  0  0  0
   19.6207   19.5098   18.5761 H   0  0  0  0  0  0  0  0  0  0  0  0
   21.3567   19.2248   18.8338 H   0  0  0  0  0  0  0  0  0  0  0  0
   20.0681   18.2779   20.3333 C   0  0  0  0  0  0  0  0  0  0  0  0
   20.8040   17.5117   20.6148 H   0  0  0  0  0  0  0  0  0  0  0  0
   19.0814   17.7945   20.3590 H   0  0  0  0  0  0  0  0  0  0  0  0
   20.1074   19.4385   21.3521 C   0  0  0  0  0  0  0  0  0  0  0  0
   21.0946   19.9198   21.3202 H   0  0  0  0  0  0  0  0  0  0  0  0
   19.3719   20.2027   21.0647 H   0  0  0  0  0  0  0  0  0  0  0  0
   19.8141   18.9535   22.7899 C   0  0  0  0  0  0  0  0  0  0  0  0
   20.5513   18.1892   23.0694 H   0  0  0  0  0  0  0  0  0  0  0  0
   18.8284   18.4704   22.8097 H   0  0  0  0  0  0  0  0  0  0  0  0
   19.8523   20.1239   23.8070 C   0  0  0  0  0  0  0  0  0  0  0  0
   20.8255   20.6277   23.7405 H   0  0  0  0  0  0  0  0  0  0  0  0
   19.1035   20.8754   23.5235 H   0  0  0  0  0  0  0  0  0  0  0  0
   19.6133   19.7157   25.2800 C   0  0  1  0  0  0  0  0  0  0  0  0
   19.6967   20.6232   25.8861 H   0  0  0  0  0  0  0  0  0  0  0  0
   18.2040   19.1383   25.4994 C   0  0  0  0  0  0  0  0  0  0  0  0
   18.0784   18.1719   24.9971 H   0  0  0  0  0  0  0  0  0  0  0  0
   17.4376   19.8256   25.1202 H   0  0  0  0  0  0  0  0  0  0  0  0
   18.0142   18.9865   26.5691 H   0  0  0  0  0  0  0  0  0  0  0  0
   20.6676   18.7738   25.7935 N   0  3  0  0  0  0  0  0  0  0  0  0
   20.6509   17.8852   25.2871 H   0  0  0  0  0  0  0  0  0  0  0  0
   21.6065   19.1695   25.6918 H   0  0  0  0  0  0  0  0  0  0  0  0
   20.5304   18.5640   26.7862 H   0  0  0  0  0  0  0  0  0  0  0  0
  1  2  1  0  0  0  0
  1  3  1  0  0  0  0
  1  4  1  0  0  0  0
  1  5  1  0  0  0  0
  5  6  1  0  0  0  0
  5  7  1  0  0  0  0
  5  8  1  0  0  0  0
  8  9  1  0  0  0  0
  8 10  1  0  0  0  0
  8 11  1  0  0  0  0
 11 12  1  0  0  0  0
 11 13  1  0  0  0  0
 11 14  1  0  0  0  0
 14 15  1  0  0  0  0
 14 16  1  0  0  0  0
 14 17  1  0  0  0  0
 17 18  1  0  0  0  0
 17 19  1  0  0  0  0
 19 20  1  0  0  0  0
 19 21  1  0  0  0  0
 19 22  1  0  0  0  0
 17 23  1  0  0  0  0
 23 24  1  0  0  0  0
 23 25  1  0  0  0  0
 23 26  1  0  0  0  0
M  END
> <VM2 Rank>
3

> <Conf_Id>
995

> <Probability>
7.21

> <Sum Probability>
31.91

> <Delta G>
0.511

> <G>
24.223

> <E>
-8.475

> <-TS>
32.698

> <U+W>
-29.937

> <U>
24.060

> <W>
-53.997

> <W(PB)>
-56.329

> <W(SA)>
2.332

> <Valence>
3.249

> <Coulomb>
19.781

> <VdW>
1.030

> <VdW6>
-7.421

> <VdW12>
8.451

> <Bond>
0.207

> <Angle>
1.205

> <Pdih>
1.837

> <Idih>
0.000

> <Tether>
0.000

$$$$
VeraChem MOL file


 26 25  0  0  0  0  0  0  0  0999 V2000     
   21.0483   19.5372   19.5910 C   0  0  0  0  0  0  0  0  0  0  0  0
   21.6441   19.2910   18.7026 H   0  0  0  0  0  0  0  0  0  0  0  0
   20.3767   20.3641   19.3262 H   0  0  0  0  0  0  0  0  0  0  0  0
   21.7412   19.8906   20.3646 H   0  0  0  0  0  0  0  0  0  0  0  0
   20.2491   18.3022   20.0653 C   0  0  0  0  0  0  0  0  0  0  0  0
   20.9437   17.5005   20.3525 H   0  0  0  0  0  0  0  0  0  0  0  0
   19.6638   17.9135   19.2203 H   0  0  0  0  0  0  0  0  0  0  0  0
   19.2860   18.6059   21.2383 C   0  0  0  0  0  0  0  0  0  0  0  0
   18.5787   19.3911   20.9375 H   0  0  0  0  0  0  0  0  0  0  0  0
   18.6847   17.7079   21.4370 H   0  0  0  0  0  0  0  0  0  0  0  0
   20.0117   19.0260   22.5390 C   0  0  0  0  0  0  0  0  0  0  0  0
   20.5568   19.9651   22.3753 H   0  0  0  0  0  0  0  0  0  0  0  0
   20.7571   18.2624   22.7974 H   0  0  0  0  0  0  0  0  0  0  0  0
   19.0190   19.2155   23.7118 C   0  0  0  0  0  0  0  0  0  0  0  0
   18.2493   19.9389   23.4112 H   0  0  0  0  0  0  0  0  0  0  0  0
   18.4984   18.2702   23.9150 H   0  0  0  0  0  0  0  0  0  0  0  0
   19.7000   19.7209   25.0022 C   0  0  1  0  0  0  0  0  0  0  0  0
   20.2300   20.6496   24.7690 H   0  0  0  0  0  0  0  0  0  0  0  0
   18.6461   20.0245   26.0791 C   0  0  0  0  0  0  0  0  0  0  0  0
   19.1202   20.4190   26.9862 H   0  0  0  0  0  0  0  0  0  0  0  0
   18.0852   19.1216   26.3515 H   0  0  0  0  0  0  0  0  0  0  0  0
   17.9309   20.7767   25.7237 H   0  0  0  0  0  0  0  0  0  0  0  0
   20.7278   18.7558   25.5273 N   0  3  0  0  0  0  0  0  0  0  0  0
   21.1825   19.1158   26.3711 H   0  0  0  0  0  0  0  0  0  0  0  0
   20.3057   17.8550   25.7673 H   0  0  0  0  0  0  0  0  0  0  0  0
   21.4618   18.5784   24.8365 H   0  0  0  0  0  0  0  0  0  0  0  0
  1  2  1  0  0  0  0
  1  3  1  0  0  0  0
  1  4  1  0  0  0  0
  1  5  1  0  0  0  0
  5  6  1  0  0  0  0
  5  7  1  0  0  0  0
  5  8  1  0  0  0  0
  8  9  1  0  0  0  0
  8 10  1  0  0  0  0
  8 11  1  0  0  0  0
 11 12  1  0  0  0  0
 11 13  1  0  0  0  0
 11 14  1  0  0  0  0
 14 15  1  0  0  0  0
 14 16  1  0  0  0  0
 14 17  1  0  0  0  0
 17 18  1  0  0  0  0
 17 19  1  0  0  0  0
 19 20  1  0  0  0  0
 19 21  1  0  0  0  0
 19 22  1  0  0  0  0
 17 23  1  0  0  0  0
 23 24  1  0  0  0  0
 23 25  1  0  0  0  0
 23 26  1  0  0  0  0
M  END
> <VM2 Rank>
4

> <Conf_Id>
1012

> <Probability>
6.30

> <Sum Probability>
38.21

> <Delta G>
0.591

> <G>
24.303

> <E>
-8.362

> <-TS>
32.665

> <U+W>
-29.824

> <U>
24.148

> <W>
-53.972

> <W(PB)>
-56.283

> <W(SA)>
2.311

> <Valence>
3.242

> <Coulomb>
19.863

> <VdW>
1.043

> <VdW6>
-7.422

> <VdW12>
8.465

> <Bond>
0.206

> <Angle>
1.112

> <Pdih>
1.924

> <Idih>
0.000

> <Tether>
0.000

$$$$
VeraChem MOL file


 26 25  0  0  0  0  0  0  0  0999 V2000     
   21.0698   18.0176   19.8286 C   0  0  0  0  0  0  0  0  0  0  0  0
   21.6580   18.0076   18.9019 H   0  0  0  0  0  0  0  0  0  0  0  0
   21.7716   17.9122   20.6651 H   0  0  0  0  0  0  0  0  0  0  0  0
   20.4118   17.1390   19.8179 H   0  0  0  0  0  0  0  0  0  0  0  0
   20.2510   19.3242   19.9348 C   0  0  0  0  0  0  0  0  0  0  0  0
   19.6581   19.4456   19.0175 H   0  0  0  0  0  0  0  0  0  0  0  0
   20.9326   20.1853   19.9763 H   0  0  0  0  0  0  0  0  0  0  0  0
   19.2943   19.3545   21.1513 C   0  0  0  0  0  0  0  0  0  0  0  0
   18.6763   20.2606   21.0852 H   0  0  0  0  0  0  0  0  0  0  0  0
   18.6017   18.5034   21.0944 H   0  0  0  0  0  0  0  0  0  0  0  0
   20.0282   19.3402   22.5138 C   0  0  0  0  0  0  0  0  0  0  0  0
   20.7543   20.1643   22.5471 H   0  0  0  0  0  0  0  0  0  0  0  0
   20.5966   18.4072   22.6136 H   0  0  0  0  0  0  0  0  0  0  0  0
   19.0396   19.4756   23.6975 C   0  0  0  0  0  0  0  0  0  0  0  0
   18.4433   20.3875   23.5598 H   0  0  0  0  0  0  0  0  0  0  0  0
   18.3330   18.6350   23.6891 H   0  0  0  0  0  0  0  0  0  0  0  0
   19.7463   19.5467   25.0687 C   0  0  1  0  0  0  0  0  0  0  0  0
   20.4617   20.3745   25.0431 H   0  0  0  0  0  0  0  0  0  0  0  0
   18.7246   19.8266   26.1825 C   0  0  0  0  0  0  0  0  0  0  0  0
   17.9821   19.0217   26.2517 H   0  0  0  0  0  0  0  0  0  0  0  0
   18.1921   20.7674   25.9958 H   0  0  0  0  0  0  0  0  0  0  0  0
   19.2246   19.9150   27.1549 H   0  0  0  0  0  0  0  0  0  0  0  0
   20.5343   18.3026   25.3768 N   0  3  0  0  0  0  0  0  0  0  0  0
   21.2507   18.1281   24.6671 H   0  0  0  0  0  0  0  0  0  0  0  0
   21.0103   18.3755   26.2804 H   0  0  0  0  0  0  0  0  0  0  0  0
   19.9298   17.4777   25.4147 H   0  0  0  0  0  0  0  0  0  0  0  0
  1  2  1  0  0  0  0
  1  3  1  0  0  0  0
  1  4  1  0  0  0  0
  1  5  1  0  0  0  0
  5  6  1  0  0  0  0
  5  7  1  0  0  0  0
  5  8  1  0  0  0  0
  8  9  1  0  0  0  0
  8 10  1  0  0  0  0
  8 11  1  0  0  0  0
 11 12  1  0  0  0  0
 11 13  1  0  0  0  0
 11 14  1  0  0  0  0
 14 15  1  0  0  0  0
 14 16  1  0  0  0  0
 14 17  1  0  0  0  0
 17 18  1  0  0  0  0
 17 19  1  0  0  0  0
 19 20  1  0  0  0  0
 19 21  1  0  0  0  0
 19 22  1  0  0  0  0
 17 23  1  0  0  0  0
 23 24  1  0  0  0  0
 23 25  1  0  0  0  0
 23 26  1  0  0  0  0
M  END
> <VM2 Rank>
5

> <Conf_Id>
1081

> <Probability>
6.05

> <Sum Probability>
44.25

> <Delta G>
0.616

> <G>
24.328

> <E>
-8.330

> <-TS>
32.658

> <U+W>
-29.792

> <U>
24.259

> <W>
-54.052

> <W(PB)>
-56.355

> <W(SA)>
2.304

> <Valence>
3.240

> <Coulomb>
19.971

> <VdW>
1.049

> <VdW6>
-7.432

> <VdW12>
8.481

> <Bond>
0.208

> <Angle>
1.110

> <Pdih>
1.922

> <Idih>
0.000

> <Tether>
0.000

$$$$
VeraChem MOL file


 26 25  0  0  0  0  0  0  0  0999 V2000     
   20.8971   19.5642   19.3397 C   0  0  0  0  0  0  0  0  0  0  0  0
   21.6802   20.2088   19.7600 H   0  0  0  0  0  0  0  0  0  0  0  0
   21.3060   19.0769   18.4452 H   0  0  0  0  0  0  0  0  0  0  0  0
   20.0619   20.2027   19.0235 H   0  0  0  0  0  0  0  0  0  0  0  0
   20.4325   18.5123   20.3691 C   0  0  0  0  0  0  0  0  0  0  0  0
   21.2808   17.8685   20.6406 H   0  0  0  0  0  0  0  0  0  0  0  0
   19.6756   17.8618   19.9088 H   0  0  0  0  0  0  0  0  0  0  0  0
   19.8510   19.1725   21.6388 C   0  0  0  0  0  0  0  0  0  0  0  0
   20.6121   19.8275   22.0832 H   0  0  0  0  0  0  0  0  0  0  0  0
   19.0023   19.8130   21.3614 H   0  0  0  0  0  0  0  0  0  0  0  0
   19.3869   18.1185   22.6727 C   0  0  0  0  0  0  0  0  0  0  0  0
   20.2367   17.4902   22.9710 H   0  0  0  0  0  0  0  0  0  0  0  0
   18.6632   17.4429   22.1961 H   0  0  0  0  0  0  0  0  0  0  0  0
   18.7226   18.7436   23.9263 C   0  0  0  0  0  0  0  0  0  0  0  0
   17.8185   19.2834   23.6144 H   0  0  0  0  0  0  0  0  0  0  0  0
   18.3840   17.9378   24.5911 H   0  0  0  0  0  0  0  0  0  0  0  0
   19.6370   19.7072   24.7157 C   0  0  1  0  0  0  0  0  0  0  0  0
   19.9488   20.5136   24.0454 H   0  0  0  0  0  0  0  0  0  0  0  0
   18.8678   20.3323   25.8903 C   0  0  0  0  0  0  0  0  0  0  0  0
   19.4995   21.0475   26.4314 H   0  0  0  0  0  0  0  0  0  0  0  0
   18.5346   19.5651   26.6004 H   0  0  0  0  0  0  0  0  0  0  0  0
   17.9833   20.8740   25.5326 H   0  0  0  0  0  0  0  0  0  0  0  0
   20.8933   19.0374   25.2014 N   0  3  0  0  0  0  0  0  0  0  0  0
   21.4999   19.6946   25.6999 H   0  0  0  0  0  0  0  0  0  0  0  0
   20.6819   18.2683   25.8425 H   0  0  0  0  0  0  0  0  0  0  0  0
   21.4331   18.6507   24.4225 H   0  0  0  0  0  0  0  0  0  0  0  0
  1  2  1  0  0  0  0
  1  3  1  0  0  0  0
  1  4  1  0  0  0  0
  1  5  1  0  0  0  0
  5  6  1  0  0  0  0
  5  7  1  0  0  0  0
  5  8  1  0  0  0  0
  8  9  1  0  0  0  0
  8 10  1  0  0  0  0
  8 11  1  0  0  0  0
 11 12  1  0  0  0  0
 11 13  1  0  0  0  0
 11 14  1  0  0  0  0
 14 15  1  0  0  0  0
 14 16  1  0  0  0  0
 14 17  1  0  0  0  0
 17 18  1  0  0  0  0
 17 19  1  0  0  0  0
 19 20  1  0  0  0  0
 19 21  1  0  0  0  0
 19 22  1  0  0  0  0
 17 23  1  0  0  0  0
 23 24  1  0  0  0  0
 23 25  1  0  0  0  0
 23 26  1  0  0  0  0
M  END
> <VM2 Rank>
6

> <Conf_Id>
452

> <Probability>
5.30

> <Sum Probability>
49.56

> <Delta G>
0.694

> <G>
24.406

> <E>
-8.339

> <-TS>
32.745

> <U+W>
-29.801

> <U>
24.149

> <W>
-53.949

> <W(PB)>
-56.255

> <W(SA)>
2.306

> <Valence>
3.038

> <Coulomb>
20.324

> <VdW>
0.787

> <VdW6>
-7.686

> <VdW12>
8.473

> <Bond>
0.201

> <Angle>
1.089

> <Pdih>
1.748

> <Idih>
0.000

> <Tether>
0.000

$$$$
VeraChem MOL file


 26 25  0  0  0  0  0  0  0  0999 V2000     
   19.9267   18.4376   19.0849 C   0  0  0  0  0  0  0  0  0  0  0  0
   20.9095   18.6605   18.6494 H   0  0  0  0  0  0  0  0  0  0  0  0
   19.5851   17.4795   18.6721 H   0  0  0  0  0  0  0  0  0  0  0  0
   19.2237   19.2150   18.7585 H   0  0  0  0  0  0  0  0  0  0  0  0
   20.0038   18.3710   20.6250 C   0  0  0  0  0  0  0  0  0  0  0  0
   20.6909   17.5659   20.9206 H   0  0  0  0  0  0  0  0  0  0  0  0
   19.0139   18.1065   21.0198 H   0  0  0  0  0  0  0  0  0  0  0  0
   20.4795   19.7128   21.2303 C   0  0  0  0  0  0  0  0  0  0  0  0
   21.4336   19.9963   20.7649 H   0  0  0  0  0  0  0  0  0  0  0  0
   19.7649   20.5078   20.9760 H   0  0  0  0  0  0  0  0  0  0  0  0
   20.6775   19.6634   22.7653 C   0  0  0  0  0  0  0  0  0  0  0  0
   21.1156   20.6174   23.0902 H   0  0  0  0  0  0  0  0  0  0  0  0
   21.4129   18.8849   23.0087 H   0  0  0  0  0  0  0  0  0  0  0  0
   19.3623   19.4201   23.5489 C   0  0  0  0  0  0  0  0  0  0  0  0
   18.6078   20.1425   23.2099 H   0  0  0  0  0  0  0  0  0  0  0  0
   18.9664   18.4217   23.3241 H   0  0  0  0  0  0  0  0  0  0  0  0
   19.5397   19.5652   25.0758 C   0  0  1  0  0  0  0  0  0  0  0  0
   19.9495   20.5592   25.2803 H   0  0  0  0  0  0  0  0  0  0  0  0
   18.1814   19.4482   25.7856 C   0  0  0  0  0  0  0  0  0  0  0  0
   18.2954   19.5878   26.8677 H   0  0  0  0  0  0  0  0  0  0  0  0
   17.7268   18.4644   25.6139 H   0  0  0  0  0  0  0  0  0  0  0  0
   17.4847   20.2144   25.4231 H   0  0  0  0  0  0  0  0  0  0  0  0
   20.5173   18.5696   25.6383 N   0  3  0  0  0  0  0  0  0  0  0  0
   20.2019   17.6084   25.4838 H   0  0  0  0  0  0  0  0  0  0  0  0
   21.4394   18.6654   25.2048 H   0  0  0  0  0  0  0  0  0  0  0  0
   20.6391   18.6939   26.6473 H   0  0  0  0  0  0  0  0  0  0  0  0
  1  2  1  0  0  0  0
  1  3  1  0  0  0  0
  1  4  1  0  0  0  0
  1  5  1  0  0  0  0
  5  6  1  0  0  0  0
  5  7  1  0  0  0  0
  5  8  1  0  0  0  0
  8  9  1  0  0  0  0
  8 10  1  0  0  0  0
  8 11  1  0  0  0  0
 11 12  1  0  0  0  0
 11 13  1  0  0  0  0
 11 14  1  0  0  0  0
 14 15  1  0  0  0  0
 14 16  1  0  0  0  0
 14 17  1  0  0  0  0
 17 18  1  0  0  0  0
 17 19  1  0  0  0  0
 19 20  1  0  0  0  0
 19 21  1  0  0  0  0
 19 22  1  0  0  0  0
 17 23  1  0  0  0  0
 23 24  1  0  0  0  0
 23 25  1  0  0  0  0
 23 26  1  0  0  0  0
M  END
> <VM2 Rank>
7

> <Conf_Id>
262

> <Probability>
5.30

> <Sum Probability>
54.85

> <Delta G>
0.694

> <G>
24.407

> <E>
-8.262

> <-TS>
32.668

> <U+W>
-29.724

> <U>
24.276

> <W>
-53.999

> <W(PB)>
-56.312

> <W(SA)>
2.312

> <Valence>
3.269

> <Coulomb>
20.007

> <VdW>
1.000

> <VdW6>
-7.483

> <VdW12>
8.483

> <Bond>
0.211

> <Angle>
1.103

> <Pdih>
1.955

> <Idih>
0.000

> <Tether>
0.000

$$$$
VeraChem MOL file


 26 25  0  0  0  0  0  0  0  0999 V2000     
   19.8815   18.9330   18.9777 C   0  0  0  0  0  0  0  0  0  0  0  0
   19.2377   18.0472   18.8992 H   0  0  0  0  0  0  0  0  0  0  0  0
   19.4705   19.7080   18.3177 H   0  0  0  0  0  0  0  0  0  0  0  0
   20.8782   18.6658   18.6031 H   0  0  0  0  0  0  0  0  0  0  0  0
   19.9527   19.4393   20.4341 C   0  0  0  0  0  0  0  0  0  0  0  0
   18.9457   19.7349   20.7566 H   0  0  0  0  0  0  0  0  0  0  0  0
   20.5790   20.3413   20.4755 H   0  0  0  0  0  0  0  0  0  0  0  0
   20.5252   18.3611   21.3846 C   0  0  0  0  0  0  0  0  0  0  0  0
   19.8675   17.4809   21.3859 H   0  0  0  0  0  0  0  0  0  0  0  0
   21.4937   18.0205   20.9930 H   0  0  0  0  0  0  0  0  0  0  0  0
   20.7324   18.8572   22.8370 C   0  0  0  0  0  0  0  0  0  0  0  0
   21.3920   19.7360   22.8342 H   0  0  0  0  0  0  0  0  0  0  0  0
   21.2653   18.0727   23.3900 H   0  0  0  0  0  0  0  0  0  0  0  0
   19.4090   19.1993   23.5692 C   0  0  0  0  0  0  0  0  0  0  0  0
   18.8912   20.0002   23.0274 H   0  0  0  0  0  0  0  0  0  0  0  0
   18.7411   18.3278   23.5567 H   0  0  0  0  0  0  0  0  0  0  0  0
   19.6293   19.6630   25.0259 C   0  0  1  0  0  0  0  0  0  0  0  0
   20.3251   20.5076   25.0153 H   0  0  0  0  0  0  0  0  0  0  0  0
   18.3034   20.1384   25.6415 C   0  0  0  0  0  0  0  0  0  0  0  0
   17.8752   20.9624   25.0572 H   0  0  0  0  0  0  0  0  0  0  0  0
   18.4586   20.5023   26.6646 H   0  0  0  0  0  0  0  0  0  0  0  0
   17.5674   19.3253   25.6758 H   0  0  0  0  0  0  0  0  0  0  0  0
   20.2546   18.5969   25.8839 N   0  3  0  0  0  0  0  0  0  0  0  0
   19.6598   17.7659   25.9397 H   0  0  0  0  0  0  0  0  0  0  0  0
   21.1621   18.3024   25.5138 H   0  0  0  0  0  0  0  0  0  0  0  0
   20.4079   18.9287   26.8404 H   0  0  0  0  0  0  0  0  0  0  0  0
  1  2  1  0  0  0  0
  1  3  1  0  0  0  0
  1  4  1  0  0  0  0
  1  5  1  0  0  0  0
  5  6  1  0  0  0  0
  5  7  1  0  0  0  0
  5  8  1  0  0  0  0
  8  9  1  0  0  0  0
  8 10  1  0  0  0  0
  8 11  1  0  0  0  0
 11 12  1  0  0  0  0
 11 13  1  0  0  0  0
 11 14  1  0  0  0  0
 14 15  1  0  0  0  0
 14 16  1  0  0  0  0
 14 17  1  0  0  0  0
 17 18  1  0  0  0  0
 17 19  1  0  0  0  0
 19 20  1  0  0  0  0
 19 21  1  0  0  0  0
 19 22  1  0  0  0  0
 17 23  1  0  0  0  0
 23 24  1  0  0  0  0
 23 25  1  0  0  0  0
 23 26  1  0  0  0  0
M  END
> <VM2 Rank>
8

> <Conf_Id>
753

> <Probability>
4.39

> <Sum Probability>
59.24

> <Delta G>
0.807

> <G>
24.519

> <E>
-8.104

> <-TS>
32.623

> <U+W>
-29.565

> <U>
24.282

> <W>
-53.847

> <W(PB)>
-56.207

> <W(SA)>
2.360

> <Valence>
3.311

> <Coulomb>
19.887

> <VdW>
1.083

> <VdW6>
-7.444

> <VdW12>
8.527

> <Bond>
0.219

> <Angle>
1.167

> <Pdih>
1.926

> <Idih>
0.000

> <Tether>
0.000

$$$$
