VeraChem MOL file


 23 22  0  0  0  0  0  0  0  0999 V2000     
   19.7414   18.6610   26.4278 N   0  3  0  0  0  0  0  0  0  0  0  0
   19.4803   19.1972   27.2623 H   0  0  0  0  0  0  0  0  0  0  0  0
   20.7320   18.4173   26.5284 H   0  0  0  0  0  0  0  0  0  0  0  0
   19.2106   17.7845   26.4591 H   0  0  0  0  0  0  0  0  0  0  0  0
   19.4764   19.4376   25.1540 C   0  0  0  0  0  0  0  0  0  0  0  0
   20.0479   20.3686   25.2013 H   0  0  0  0  0  0  0  0  0  0  0  0
   18.4125   19.6884   25.1268 H   0  0  0  0  0  0  0  0  0  0  0  0
   19.8580   18.6596   23.8821 C   0  0  0  0  0  0  0  0  0  0  0  0
   20.9233   18.3958   23.9214 H   0  0  0  0  0  0  0  0  0  0  0  0
   19.2938   17.7180   23.8472 H   0  0  0  0  0  0  0  0  0  0  0  0
   19.5728   19.4847   22.6077 C   0  0  0  0  0  0  0  0  0  0  0  0
   20.1349   20.4281   22.6489 H   0  0  0  0  0  0  0  0  0  0  0  0
   18.5071   19.7511   22.5748 H   0  0  0  0  0  0  0  0  0  0  0  0
   19.9525   18.7125   21.3237 C   0  0  0  0  0  0  0  0  0  0  0  0
   21.0181   18.4461   21.3565 H   0  0  0  0  0  0  0  0  0  0  0  0
   19.3904   17.7691   21.2823 H   0  0  0  0  0  0  0  0  0  0  0  0
   19.6673   19.5379   20.0493 C   0  0  0  0  0  0  0  0  0  0  0  0
   20.2292   20.4818   20.0849 H   0  0  0  0  0  0  0  0  0  0  0  0
   18.6018   19.8048   20.0106 H   0  0  0  0  0  0  0  0  0  0  0  0
   20.0477   18.7637   18.7693 C   0  0  0  0  0  0  0  0  0  0  0  0
   19.4761   17.8299   18.6881 H   0  0  0  0  0  0  0  0  0  0  0  0
   21.1163   18.5121   18.7630 H   0  0  0  0  0  0  0  0  0  0  0  0
   19.8381   19.3656   17.8755 H   0  0  0  0  0  0  0  0  0  0  0  0
  1  2  1  0  0  0  0
  1  3  1  0  0  0  0
  1  4  1  0  0  0  0
  1  5  1  0  0  0  0
  5  6  1  0  0  0  0
  5  7  1  0  0  0  0
  5  8  1  0  0  0  0
  8  9  1  0  0  0  0
  8 10  1  0  0  0  0
  8 11  1  0  0  0  0
 11 12  1  0  0  0  0
 11 13  1  0  0  0  0
 11 14  1  0  0  0  0
 14 15  1  0  0  0  0
 14 16  1  0  0  0  0
 14 17  1  0  0  0  0
 17 18  1  0  0  0  0
 17 19  1  0  0  0  0
 17 20  1  0  0  0  0
 20 21  1  0  0  0  0
 20 22  1  0  0  0  0
 20 23  1  0  0  0  0
M  END
> <VM2 Rank>
1

> <Conf_Id>
625

> <Probability>
11.98

> <Sum Probability>
11.98

> <Delta G>
0.000

> <G>
37.917

> <E>
10.396

> <-TS>
27.520

> <U+W>
-8.383

> <U>
46.604

> <W>
-54.987

> <W(PB)>
-57.163

> <W(SA)>
2.176

> <Valence>
1.727

> <Coulomb>
44.434

> <VdW>
0.443

> <VdW6>
-4.623

> <VdW12>
5.066

> <Bond>
0.112

> <Angle>
0.386

> <Pdih>
1.228

> <Idih>
0.000

> <Tether>
0.000

$$$$
VeraChem MOL file


 23 22  0  0  0  0  0  0  0  0999 V2000     
   20.4491   19.4573   25.7939 N   0  3  0  0  0  0  0  0  0  0  0  0
   20.3534   19.8733   26.7266 H   0  0  0  0  0  0  0  0  0  0  0  0
   20.8558   20.1751   25.1865 H   0  0  0  0  0  0  0  0  0  0  0  0
   21.1373   18.7018   25.8732 H   0  0  0  0  0  0  0  0  0  0  0  0
   19.1204   18.9564   25.2623 C   0  0  0  0  0  0  0  0  0  0  0  0
   18.4287   19.8024   25.2256 H   0  0  0  0  0  0  0  0  0  0  0  0
   18.7301   18.2283   25.9787 H   0  0  0  0  0  0  0  0  0  0  0  0
   19.2146   18.3026   23.8700 C   0  0  0  0  0  0  0  0  0  0  0  0
   19.9143   17.4571   23.9086 H   0  0  0  0  0  0  0  0  0  0  0  0
   18.2316   17.8843   23.6156 H   0  0  0  0  0  0  0  0  0  0  0  0
   19.6475   19.2997   22.7689 C   0  0  0  0  0  0  0  0  0  0  0  0
   20.6464   19.6958   22.9955 H   0  0  0  0  0  0  0  0  0  0  0  0
   18.9591   20.1562   22.7599 H   0  0  0  0  0  0  0  0  0  0  0  0
   19.6671   18.6391   21.3717 C   0  0  0  0  0  0  0  0  0  0  0  0
   20.3533   17.7808   21.3807 H   0  0  0  0  0  0  0  0  0  0  0  0
   18.6686   18.2449   21.1370 H   0  0  0  0  0  0  0  0  0  0  0  0
   20.0997   19.6326   20.2705 C   0  0  0  0  0  0  0  0  0  0  0  0
   21.0996   20.0276   20.4987 H   0  0  0  0  0  0  0  0  0  0  0  0
   19.4151   20.4922   20.2563 H   0  0  0  0  0  0  0  0  0  0  0  0
   20.1175   18.9694   18.8768 C   0  0  0  0  0  0  0  0  0  0  0  0
   19.1221   18.5942   18.6054 H   0  0  0  0  0  0  0  0  0  0  0  0
   20.8198   18.1260   18.8498 H   0  0  0  0  0  0  0  0  0  0  0  0
   20.4268   19.6899   18.1085 H   0  0  0  0  0  0  0  0  0  0  0  0
  1  2  1  0  0  0  0
  1  3  1  0  0  0  0
  1  4  1  0  0  0  0
  1  5  1  0  0  0  0
  5  6  1  0  0  0  0
  5  7  1  0  0  0  0
  5  8  1  0  0  0  0
  8  9  1  0  0  0  0
  8 10  1  0  0  0  0
  8 11  1  0  0  0  0
 11 12  1  0  0  0  0
 11 13  1  0  0  0  0
 11 14  1  0  0  0  0
 14 15  1  0  0  0  0
 14 16  1  0  0  0  0
 14 17  1  0  0  0  0
 17 18  1  0  0  0  0
 17 19  1  0  0  0  0
 17 20  1  0  0  0  0
 20 21  1  0  0  0  0
 20 22  1  0  0  0  0
 20 23  1  0  0  0  0
M  END
> <VM2 Rank>
2

> <Conf_Id>
674

> <Probability>
7.37

> <Sum Probability>
19.34

> <Delta G>
0.290

> <G>
38.206

> <E>
10.584

> <-TS>
27.622

> <U+W>
-8.195

> <U>
47.288

> <W>
-55.483

> <W(PB)>
-57.632

> <W(SA)>
2.149

> <Valence>
1.833

> <Coulomb>
44.908

> <VdW>
0.548

> <VdW6>
-5.142

> <VdW12>
5.689

> <Bond>
0.133

> <Angle>
0.431

> <Pdih>
1.269

> <Idih>
0.000

> <Tether>
0.000

$$$$
VeraChem MOL file


 23 22  0  0  0  0  0  0  0  0999 V2000     
   18.7298   18.7422   25.7155 N   0  3  0  0  0  0  0  0  0  0  0  0
   17.9834   18.9805   25.0555 H   0  0  0  0  0  0  0  0  0  0  0  0
   18.4301   19.0734   26.6388 H   0  0  0  0  0  0  0  0  0  0  0  0
   18.7754   17.7195   25.7655 H   0  0  0  0  0  0  0  0  0  0  0  0
   20.0586   19.3466   25.3051 C   0  0  0  0  0  0  0  0  0  0  0  0
   20.7924   19.0860   26.0727 H   0  0  0  0  0  0  0  0  0  0  0  0
   19.9482   20.4343   25.2949 H   0  0  0  0  0  0  0  0  0  0  0  0
   20.5633   18.8636   23.9314 C   0  0  0  0  0  0  0  0  0  0  0  0
   21.5692   19.2725   23.7678 H   0  0  0  0  0  0  0  0  0  0  0  0
   20.6677   17.7704   23.9430 H   0  0  0  0  0  0  0  0  0  0  0  0
   19.6389   19.2961   22.7685 C   0  0  0  0  0  0  0  0  0  0  0  0
   19.5164   20.3880   22.7854 H   0  0  0  0  0  0  0  0  0  0  0  0
   18.6398   18.8610   22.9040 H   0  0  0  0  0  0  0  0  0  0  0  0
   20.2012   18.8613   21.3960 C   0  0  0  0  0  0  0  0  0  0  0  0
   21.1994   19.2978   21.2523 H   0  0  0  0  0  0  0  0  0  0  0  0
   20.3266   17.7698   21.3794 H   0  0  0  0  0  0  0  0  0  0  0  0
   19.2795   19.2914   20.2331 C   0  0  0  0  0  0  0  0  0  0  0  0
   19.1526   20.3830   20.2443 H   0  0  0  0  0  0  0  0  0  0  0  0
   18.2803   18.8548   20.3704 H   0  0  0  0  0  0  0  0  0  0  0  0
   19.8446   18.8559   18.8643 C   0  0  0  0  0  0  0  0  0  0  0  0
   20.8300   19.3047   18.6831 H   0  0  0  0  0  0  0  0  0  0  0  0
   19.1769   19.1699   18.0516 H   0  0  0  0  0  0  0  0  0  0  0  0
   19.9509   17.7645   18.8103 H   0  0  0  0  0  0  0  0  0  0  0  0
  1  2  1  0  0  0  0
  1  3  1  0  0  0  0
  1  4  1  0  0  0  0
  1  5  1  0  0  0  0
  5  6  1  0  0  0  0
  5  7  1  0  0  0  0
  5  8  1  0  0  0  0
  8  9  1  0  0  0  0
  8 10  1  0  0  0  0
  8 11  1  0  0  0  0
 11 12  1  0  0  0  0
 11 13  1  0  0  0  0
 11 14  1  0  0  0  0
 14 15  1  0  0  0  0
 14 16  1  0  0  0  0
 14 17  1  0  0  0  0
 17 18  1  0  0  0  0
 17 19  1  0  0  0  0
 17 20  1  0  0  0  0
 20 21  1  0  0  0  0
 20 22  1  0  0  0  0
 20 23  1  0  0  0  0
M  END
> <VM2 Rank>
3

> <Conf_Id>
691

> <Probability>
7.16

> <Sum Probability>
26.50

> <Delta G>
0.307

> <G>
38.223

> <E>
10.601

> <-TS>
27.623

> <U+W>
-8.178

> <U>
47.288

> <W>
-55.467

> <W(PB)>
-57.600

> <W(SA)>
2.133

> <Valence>
1.833

> <Coulomb>
44.908

> <VdW>
0.548

> <VdW6>
-5.142

> <VdW12>
5.690

> <Bond>
0.133

> <Angle>
0.431

> <Pdih>
1.269

> <Idih>
0.000

> <Tether>
0.000

$$$$
VeraChem MOL file


 23 22  0  0  0  0  0  0  0  0999 V2000     
   19.5097   18.2599   26.0548 N   0  3  0  0  0  0  0  0  0  0  0  0
   20.4067   17.7706   26.1372 H   0  0  0  0  0  0  0  0  0  0  0  0
   18.7901   17.6263   26.4193 H   0  0  0  0  0  0  0  0  0  0  0  0
   19.5461   19.0649   26.6885 H   0  0  0  0  0  0  0  0  0  0  0  0
   19.2220   18.6768   24.6269 C   0  0  0  0  0  0  0  0  0  0  0  0
   18.2433   19.1638   24.6081 H   0  0  0  0  0  0  0  0  0  0  0  0
   19.1675   17.7709   24.0177 H   0  0  0  0  0  0  0  0  0  0  0  0
   20.2860   19.6299   24.0505 C   0  0  0  0  0  0  0  0  0  0  0  0
   20.3621   20.5150   24.6961 H   0  0  0  0  0  0  0  0  0  0  0  0
   21.2692   19.1411   24.0703 H   0  0  0  0  0  0  0  0  0  0  0  0
   19.9615   20.0869   22.6086 C   0  0  0  0  0  0  0  0  0  0  0  0
   20.7077   20.8317   22.2989 H   0  0  0  0  0  0  0  0  0  0  0  0
   18.9889   20.5983   22.5965 H   0  0  0  0  0  0  0  0  0  0  0  0
   19.9520   18.9222   21.5893 C   0  0  0  0  0  0  0  0  0  0  0  0
   20.9140   18.3927   21.6277 H   0  0  0  0  0  0  0  0  0  0  0  0
   19.1764   18.1931   21.8593 H   0  0  0  0  0  0  0  0  0  0  0  0
   19.6977   19.4219   20.1497 C   0  0  0  0  0  0  0  0  0  0  0  0
   20.4736   20.1466   19.8654 H   0  0  0  0  0  0  0  0  0  0  0  0
   18.7366   19.9531   20.1057 H   0  0  0  0  0  0  0  0  0  0  0  0
   19.6871   18.2594   19.1342 C   0  0  0  0  0  0  0  0  0  0  0  0
   20.6484   17.7292   19.1310 H   0  0  0  0  0  0  0  0  0  0  0  0
   19.5056   18.6338   18.1184 H   0  0  0  0  0  0  0  0  0  0  0  0
   18.8976   17.5346   19.3720 H   0  0  0  0  0  0  0  0  0  0  0  0
  1  2  1  0  0  0  0
  1  3  1  0  0  0  0
  1  4  1  0  0  0  0
  1  5  1  0  0  0  0
  5  6  1  0  0  0  0
  5  7  1  0  0  0  0
  5  8  1  0  0  0  0
  8  9  1  0  0  0  0
  8 10  1  0  0  0  0
  8 11  1  0  0  0  0
 11 12  1  0  0  0  0
 11 13  1  0  0  0  0
 11 14  1  0  0  0  0
 14 15  1  0  0  0  0
 14 16  1  0  0  0  0
 14 17  1  0  0  0  0
 17 18  1  0  0  0  0
 17 19  1  0  0  0  0
 17 20  1  0  0  0  0
 20 21  1  0  0  0  0
 20 22  1  0  0  0  0
 20 23  1  0  0  0  0
M  END
> <VM2 Rank>
4

> <Conf_Id>
130

> <Probability>
5.51

> <Sum Probability>
32.02

> <Delta G>
0.463

> <G>
38.379

> <E>
10.761

> <-TS>
27.618

> <U+W>
-8.018

> <U>
47.375

> <W>
-55.393

> <W(PB)>
-57.544

> <W(SA)>
2.152

> <Valence>
2.032

> <Coulomb>
44.843

> <VdW>
0.500

> <VdW6>
-5.218

> <VdW12>
5.718

> <Bond>
0.135

> <Angle>
0.514

> <Pdih>
1.383

> <Idih>
0.000

> <Tether>
0.000

$$$$
VeraChem MOL file


 23 22  0  0  0  0  0  0  0  0999 V2000     
   20.2169   18.5541   26.0871 N   0  3  0  0  0  0  0  0  0  0  0  0
   21.1423   18.6049   26.5266 H   0  0  0  0  0  0  0  0  0  0  0  0
   19.9271   17.5712   26.1155 H   0  0  0  0  0  0  0  0  0  0  0  0
   19.5722   19.0759   26.6897 H   0  0  0  0  0  0  0  0  0  0  0  0
   20.2344   19.0980   24.6730 C   0  0  0  0  0  0  0  0  0  0  0  0
   20.9614   18.5171   24.0996 H   0  0  0  0  0  0  0  0  0  0  0  0
   20.5781   20.1351   24.7145 H   0  0  0  0  0  0  0  0  0  0  0  0
   18.8575   19.0356   23.9853 C   0  0  0  0  0  0  0  0  0  0  0  0
   18.5120   17.9940   23.9445 H   0  0  0  0  0  0  0  0  0  0  0  0
   18.1273   19.5852   24.5942 H   0  0  0  0  0  0  0  0  0  0  0  0
   18.8736   19.6343   22.5590 C   0  0  0  0  0  0  0  0  0  0  0  0
   19.1951   20.6841   22.6060 H   0  0  0  0  0  0  0  0  0  0  0  0
   17.8465   19.6414   22.1685 H   0  0  0  0  0  0  0  0  0  0  0  0
   19.7839   18.8523   21.5816 C   0  0  0  0  0  0  0  0  0  0  0  0
   20.8237   18.8785   21.9343 H   0  0  0  0  0  0  0  0  0  0  0  0
   19.4807   17.7964   21.5624 H   0  0  0  0  0  0  0  0  0  0  0  0
   19.7202   19.4312   20.1507 C   0  0  0  0  0  0  0  0  0  0  0  0
   20.0222   20.4880   20.1642 H   0  0  0  0  0  0  0  0  0  0  0  0
   18.6846   19.4024   19.7840 H   0  0  0  0  0  0  0  0  0  0  0  0
   20.6294   18.6515   19.1771 C   0  0  0  0  0  0  0  0  0  0  0  0
   20.5704   19.0768   18.1668 H   0  0  0  0  0  0  0  0  0  0  0  0
   20.3303   17.5969   19.1166 H   0  0  0  0  0  0  0  0  0  0  0  0
   21.6784   18.6914   19.4986 H   0  0  0  0  0  0  0  0  0  0  0  0
  1  2  1  0  0  0  0
  1  3  1  0  0  0  0
  1  4  1  0  0  0  0
  1  5  1  0  0  0  0
  5  6  1  0  0  0  0
  5  7  1  0  0  0  0
  5  8  1  0  0  0  0
  8  9  1  0  0  0  0
  8 10  1  0  0  0  0
  8 11  1  0  0  0  0
 11 12  1  0  0  0  0
 11 13  1  0  0  0  0
 11 14  1  0  0  0  0
 14 15  1  0  0  0  0
 14 16  1  0  0  0  0
 14 17  1  0  0  0  0
 17 18  1  0  0  0  0
 17 19  1  0  0  0  0
 17 20  1  0  0  0  0
 20 21  1  0  0  0  0
 20 22  1  0  0  0  0
 20 23  1  0  0  0  0
M  END
> <VM2 Rank>
5

> <Conf_Id>
654

> <Probability>
4.93

> <Sum Probability>
36.94

> <Delta G>
0.530

> <G>
38.446

> <E>
10.828

> <-TS>
27.618

> <U+W>
-7.951

> <U>
47.375

> <W>
-55.326

> <W(PB)>
-57.492

> <W(SA)>
2.166

> <Valence>
2.032

> <Coulomb>
44.843

> <VdW>
0.499

> <VdW6>
-5.218

> <VdW12>
5.718

> <Bond>
0.135

> <Angle>
0.514

> <Pdih>
1.383

> <Idih>
0.000

> <Tether>
0.000

$$$$
VeraChem MOL file


 23 22  0  0  0  0  0  0  0  0999 V2000     
   19.5474   18.7522   26.3217 N   0  3  0  0  0  0  0  0  0  0  0  0
   19.7317   17.7456   26.3829 H   0  0  0  0  0  0  0  0  0  0  0  0
   18.8412   18.9695   27.0331 H   0  0  0  0  0  0  0  0  0  0  0  0
   20.4084   19.2339   26.6000 H   0  0  0  0  0  0  0  0  0  0  0  0
   19.0936   19.1608   24.9349 C   0  0  0  0  0  0  0  0  0  0  0  0
   18.8877   20.2345   24.9499 H   0  0  0  0  0  0  0  0  0  0  0  0
   18.1603   18.6348   24.7166 H   0  0  0  0  0  0  0  0  0  0  0  0
   20.1323   18.8479   23.8432 C   0  0  0  0  0  0  0  0  0  0  0  0
   21.0728   19.3649   24.0758 H   0  0  0  0  0  0  0  0  0  0  0  0
   20.3479   17.7710   23.8423 H   0  0  0  0  0  0  0  0  0  0  0  0
   19.6322   19.2790   22.4466 C   0  0  0  0  0  0  0  0  0  0  0  0
   19.4159   20.3564   22.4518 H   0  0  0  0  0  0  0  0  0  0  0  0
   18.6865   18.7647   22.2299 H   0  0  0  0  0  0  0  0  0  0  0  0
   20.6695   18.9645   21.3418 C   0  0  0  0  0  0  0  0  0  0  0  0
   21.6298   19.4269   21.6089 H   0  0  0  0  0  0  0  0  0  0  0  0
   20.8494   17.8814   21.2995 H   0  0  0  0  0  0  0  0  0  0  0  0
   20.2524   19.4739   19.9408 C   0  0  0  0  0  0  0  0  0  0  0  0
   21.0845   19.3064   19.2427 H   0  0  0  0  0  0  0  0  0  0  0  0
   20.0925   20.5607   19.9728 H   0  0  0  0  0  0  0  0  0  0  0  0
   18.9887   18.7787   19.3850 C   0  0  0  0  0  0  0  0  0  0  0  0
   18.7904   19.1076   18.3567 H   0  0  0  0  0  0  0  0  0  0  0  0
   18.1009   19.0167   19.9838 H   0  0  0  0  0  0  0  0  0  0  0  0
   19.1121   17.6880   19.3703 H   0  0  0  0  0  0  0  0  0  0  0  0
  1  2  1  0  0  0  0
  1  3  1  0  0  0  0
  1  4  1  0  0  0  0
  1  5  1  0  0  0  0
  5  6  1  0  0  0  0
  5  7  1  0  0  0  0
  5  8  1  0  0  0  0
  8  9  1  0  0  0  0
  8 10  1  0  0  0  0
  8 11  1  0  0  0  0
 11 12  1  0  0  0  0
 11 13  1  0  0  0  0
 11 14  1  0  0  0  0
 14 15  1  0  0  0  0
 14 16  1  0  0  0  0
 14 17  1  0  0  0  0
 17 18  1  0  0  0  0
 17 19  1  0  0  0  0
 17 20  1  0  0  0  0
 20 21  1  0  0  0  0
 20 22  1  0  0  0  0
 20 23  1  0  0  0  0
M  END
> <VM2 Rank>
6

> <Conf_Id>
353

> <Probability>
4.33

> <Sum Probability>
41.27

> <Delta G>
0.606

> <G>
38.523

> <E>
10.893

> <-TS>
27.630

> <U+W>
-7.886

> <U>
47.264

> <W>
-55.151

> <W(PB)>
-57.313

> <W(SA)>
2.162

> <Valence>
2.234

> <Coulomb>
44.451

> <VdW>
0.580

> <VdW6>
-5.234

> <VdW12>
5.814

> <Bond>
0.148

> <Angle>
0.630

> <Pdih>
1.456

> <Idih>
0.000

> <Tether>
0.000

$$$$
VeraChem MOL file


 23 22  0  0  0  0  0  0  0  0999 V2000     
   19.8212   18.8660   26.3341 N   0  3  0  0  0  0  0  0  0  0  0  0
   20.3997   18.0234   26.4133 H   0  0  0  0  0  0  0  0  0  0  0  0
   18.8542   18.5873   26.5291 H   0  0  0  0  0  0  0  0  0  0  0  0
   20.1079   19.4964   27.0908 H   0  0  0  0  0  0  0  0  0  0  0  0
   19.9580   19.5203   24.9743 C   0  0  0  0  0  0  0  0  0  0  0  0
   21.0025   19.8171   24.8461 H   0  0  0  0  0  0  0  0  0  0  0  0
   19.3413   20.4232   24.9707 H   0  0  0  0  0  0  0  0  0  0  0  0
   19.5351   18.5995   23.8160 C   0  0  0  0  0  0  0  0  0  0  0  0
   20.1462   17.6871   23.8331 H   0  0  0  0  0  0  0  0  0  0  0  0
   18.4908   18.2909   23.9581 H   0  0  0  0  0  0  0  0  0  0  0  0
   19.6893   19.3028   22.4493 C   0  0  0  0  0  0  0  0  0  0  0  0
   20.7340   19.6164   22.3232 H   0  0  0  0  0  0  0  0  0  0  0  0
   19.0780   20.2159   22.4364 H   0  0  0  0  0  0  0  0  0  0  0  0
   19.2694   18.3823   21.2780 C   0  0  0  0  0  0  0  0  0  0  0  0
   19.9130   17.4920   21.2568 H   0  0  0  0  0  0  0  0  0  0  0  0
   18.2471   18.0201   21.4548 H   0  0  0  0  0  0  0  0  0  0  0  0
   19.3103   19.0822   19.8979 C   0  0  0  0  0  0  0  0  0  0  0  0
   18.6508   19.9613   19.9072 H   0  0  0  0  0  0  0  0  0  0  0  0
   18.8987   18.3975   19.1432 H   0  0  0  0  0  0  0  0  0  0  0  0
   20.7327   19.5039   19.4644 C   0  0  0  0  0  0  0  0  0  0  0  0
   21.1413   20.2808   20.1223 H   0  0  0  0  0  0  0  0  0  0  0  0
   20.7188   19.9097   18.4445 H   0  0  0  0  0  0  0  0  0  0  0  0
   21.4191   18.6473   19.4752 H   0  0  0  0  0  0  0  0  0  0  0  0
  1  2  1  0  0  0  0
  1  3  1  0  0  0  0
  1  4  1  0  0  0  0
  1  5  1  0  0  0  0
  5  6  1  0  0  0  0
  5  7  1  0  0  0  0
  5  8  1  0  0  0  0
  8  9  1  0  0  0  0
  8 10  1  0  0  0  0
  8 11  1  0  0  0  0
 11 12  1  0  0  0  0
 11 13  1  0  0  0  0
 11 14  1  0  0  0  0
 14 15  1  0  0  0  0
 14 16  1  0  0  0  0
 14 17  1  0  0  0  0
 17 18  1  0  0  0  0
 17 19  1  0  0  0  0
 17 20  1  0  0  0  0
 20 21  1  0  0  0  0
 20 22  1  0  0  0  0
 20 23  1  0  0  0  0
M  END
> <VM2 Rank>
7

> <Conf_Id>
310

> <Probability>
4.09

> <Sum Probability>
45.36

> <Delta G>
0.640

> <G>
38.557

> <E>
10.927

> <-TS>
27.630

> <U+W>
-7.852

> <U>
47.264

> <W>
-55.117

> <W(PB)>
-57.282

> <W(SA)>
2.165

> <Valence>
2.234

> <Coulomb>
44.451

> <VdW>
0.580

> <VdW6>
-5.234

> <VdW12>
5.814

> <Bond>
0.148

> <Angle>
0.630

> <Pdih>
1.456

> <Idih>
0.000

> <Tether>
0.000

$$$$
VeraChem MOL file


 23 22  0  0  0  0  0  0  0  0999 V2000     
   19.3993   18.2117   26.0666 N   0  3  0  0  0  0  0  0  0  0  0  0
   18.6477   17.5625   25.8129 H   0  0  0  0  0  0  0  0  0  0  0  0
   19.1879   18.5586   27.0085 H   0  0  0  0  0  0  0  0  0  0  0  0
   20.2615   17.6619   26.1384 H   0  0  0  0  0  0  0  0  0  0  0  0
   19.5314   19.3428   25.0671 C   0  0  0  0  0  0  0  0  0  0  0  0
   20.3260   20.0088   25.4144 H   0  0  0  0  0  0  0  0  0  0  0  0
   18.5917   19.9017   25.0635 H   0  0  0  0  0  0  0  0  0  0  0  0
   19.8496   18.8558   23.6422 C   0  0  0  0  0  0  0  0  0  0  0  0
   20.7857   18.2817   23.6538 H   0  0  0  0  0  0  0  0  0  0  0  0
   19.0554   18.1743   23.3125 H   0  0  0  0  0  0  0  0  0  0  0  0
   19.9779   20.0417   22.6573 C   0  0  0  0  0  0  0  0  0  0  0  0
   20.7194   20.7518   23.0492 H   0  0  0  0  0  0  0  0  0  0  0  0
   19.0252   20.5873   22.6082 H   0  0  0  0  0  0  0  0  0  0  0  0
   20.4085   19.6197   21.2308 C   0  0  0  0  0  0  0  0  0  0  0  0
   20.5872   20.5277   20.6385 H   0  0  0  0  0  0  0  0  0  0  0  0
   21.3694   19.0889   21.2779 H   0  0  0  0  0  0  0  0  0  0  0  0
   19.3631   18.7424   20.5019 C   0  0  0  0  0  0  0  0  0  0  0  0
   18.3886   19.2503   20.5001 H   0  0  0  0  0  0  0  0  0  0  0  0
   19.2265   17.7924   21.0355 H   0  0  0  0  0  0  0  0  0  0  0  0
   19.7862   18.4429   19.0480 C   0  0  0  0  0  0  0  0  0  0  0  0
   19.8934   19.3693   18.4687 H   0  0  0  0  0  0  0  0  0  0  0  0
   19.0358   17.8177   18.5468 H   0  0  0  0  0  0  0  0  0  0  0  0
   20.7445   17.9082   19.0182 H   0  0  0  0  0  0  0  0  0  0  0  0
  1  2  1  0  0  0  0
  1  3  1  0  0  0  0
  1  4  1  0  0  0  0
  1  5  1  0  0  0  0
  5  6  1  0  0  0  0
  5  7  1  0  0  0  0
  5  8  1  0  0  0  0
  8  9  1  0  0  0  0
  8 10  1  0  0  0  0
  8 11  1  0  0  0  0
 11 12  1  0  0  0  0
 11 13  1  0  0  0  0
 11 14  1  0  0  0  0
 14 15  1  0  0  0  0
 14 16  1  0  0  0  0
 14 17  1  0  0  0  0
 17 18  1  0  0  0  0
 17 19  1  0  0  0  0
 17 20  1  0  0  0  0
 20 21  1  0  0  0  0
 20 22  1  0  0  0  0
 20 23  1  0  0  0  0
M  END
> <VM2 Rank>
8

> <Conf_Id>
132

> <Probability>
3.53

> <Sum Probability>
48.90

> <Delta G>
0.728

> <G>
38.645

> <E>
11.025

> <-TS>
27.619

> <U+W>
-7.754

> <U>
47.562

> <W>
-55.316

> <W(PB)>
-57.472

> <W(SA)>
2.156

> <Valence>
2.273

> <Coulomb>
44.723

> <VdW>
0.566

> <VdW6>
-5.266

> <VdW12>
5.832

> <Bond>
0.151

> <Angle>
0.657

> <Pdih>
1.466

> <Idih>
0.000

> <Tether>
0.000

$$$$
