VeraChem MOL file


 29 28  0  0  0  0  0  0  0  0999 V2000     
   19.9950   18.9913   18.8122 C   0  0  0  0  0  0  0  0  0  0  0  0
   20.8995   19.6136   18.8050 H   0  0  0  0  0  0  0  0  0  0  0  0
   20.3037   17.9387   18.7677 H   0  0  0  0  0  0  0  0  0  0  0  0
   19.4251   19.2143   17.9009 H   0  0  0  0  0  0  0  0  0  0  0  0
   19.1426   19.2665   20.0690 C   0  0  0  0  0  0  0  0  0  0  0  0
   18.2298   18.6555   20.0314 H   0  0  0  0  0  0  0  0  0  0  0  0
   18.8210   20.3175   20.0684 H   0  0  0  0  0  0  0  0  0  0  0  0
   19.9220   18.9604   21.3669 C   0  0  0  0  0  0  0  0  0  0  0  0
   20.2433   17.9096   21.3620 H   0  0  0  0  0  0  0  0  0  0  0  0
   20.8346   19.5716   21.3990 H   0  0  0  0  0  0  0  0  0  0  0  0
   19.0717   19.2348   22.6277 C   0  0  0  0  0  0  0  0  0  0  0  0
   18.1592   18.6235   22.5948 H   0  0  0  0  0  0  0  0  0  0  0  0
   18.7506   20.2857   22.6319 H   0  0  0  0  0  0  0  0  0  0  0  0
   19.8518   18.9283   23.9260 C   0  0  0  0  0  0  0  0  0  0  0  0
   20.1729   17.8774   23.9214 H   0  0  0  0  0  0  0  0  0  0  0  0
   20.7643   19.5395   23.9585 H   0  0  0  0  0  0  0  0  0  0  0  0
   19.0013   19.2028   25.1867 C   0  0  0  0  0  0  0  0  0  0  0  0
   18.0885   18.5916   25.1547 H   0  0  0  0  0  0  0  0  0  0  0  0
   18.6800   20.2538   25.1918 H   0  0  0  0  0  0  0  0  0  0  0  0
   19.7802   18.8965   26.4847 C   0  0  0  0  0  0  0  0  0  0  0  0
   20.0986   17.8455   26.4858 H   0  0  0  0  0  0  0  0  0  0  0  0
   20.6908   19.5094   26.5230 H   0  0  0  0  0  0  0  0  0  0  0  0
   18.9245   19.1732   27.7332 C   0  0  0  0  0  0  0  0  0  0  0  0
   18.0245   18.5529   27.7076 H   0  0  0  0  0  0  0  0  0  0  0  0
   18.6190   20.2230   27.7450 H   0  0  0  0  0  0  0  0  0  0  0  0
   19.6549   18.8842   29.0286 N   0  3  0  0  0  0  0  0  0  0  0  0
   19.9464   17.9031   29.0920 H   0  0  0  0  0  0  0  0  0  0  0  0
   19.0674   19.0749   29.8479 H   0  0  0  0  0  0  0  0  0  0  0  0
   20.4996   19.4572   29.1268 H   0  0  0  0  0  0  0  0  0  0  0  0
  1  2  1  0  0  0  0
  1  3  1  0  0  0  0
  1  4  1  0  0  0  0
  1  5  1  0  0  0  0
  5  6  1  0  0  0  0
  5  7  1  0  0  0  0
  5  8  1  0  0  0  0
  8  9  1  0  0  0  0
  8 10  1  0  0  0  0
  8 11  1  0  0  0  0
 11 12  1  0  0  0  0
 11 13  1  0  0  0  0
 11 14  1  0  0  0  0
 14 15  1  0  0  0  0
 14 16  1  0  0  0  0
 14 17  1  0  0  0  0
 17 18  1  0  0  0  0
 17 19  1  0  0  0  0
 17 20  1  0  0  0  0
 20 21  1  0  0  0  0
 20 22  1  0  0  0  0
 20 23  1  0  0  0  0
 23 24  1  0  0  0  0
 23 25  1  0  0  0  0
 23 26  1  0  0  0  0
 26 27  1  0  0  0  0
 26 28  1  0  0  0  0
 26 29  1  0  0  0  0
M  END
> <VM2 Rank>
1

> <Conf_Id>
1411

> <Probability>
5.37

> <Sum Probability>
5.37

> <Delta G>
0.000

> <G>
58.148

> <E>
20.963

> <-TS>
37.185

> <U+W>
-3.181

> <U>
47.674

> <W>
-50.848

> <W(PB)>
-53.430

> <W(SA)>
2.581

> <Valence>
2.587

> <Coulomb>
44.357

> <VdW>
0.730

> <VdW6>
-6.901

> <VdW12>
7.631

> <Bond>
0.145

> <Angle>
0.402

> <Pdih>
2.040

> <Idih>
0.000

> <Tether>
0.000

$$$$
VeraChem MOL file


 29 28  0  0  0  0  0  0  0  0999 V2000     
   19.8619   19.1639   18.8955 C   0  0  0  0  0  0  0  0  0  0  0  0
   20.9428   19.3558   18.8888 H   0  0  0  0  0  0  0  0  0  0  0  0
   19.7040   18.0907   18.7269 H   0  0  0  0  0  0  0  0  0  0  0  0
   19.4179   19.7067   18.0509 H   0  0  0  0  0  0  0  0  0  0  0  0
   19.2268   19.6153   20.2277 C   0  0  0  0  0  0  0  0  0  0  0  0
   18.1420   19.4423   20.1915 H   0  0  0  0  0  0  0  0  0  0  0  0
   19.3713   20.6976   20.3523 H   0  0  0  0  0  0  0  0  0  0  0  0
   19.8345   18.8657   21.4338 C   0  0  0  0  0  0  0  0  0  0  0  0
   19.6894   17.7843   21.3038 H   0  0  0  0  0  0  0  0  0  0  0  0
   20.9190   19.0396   21.4645 H   0  0  0  0  0  0  0  0  0  0  0  0
   19.2011   19.3152   22.7698 C   0  0  0  0  0  0  0  0  0  0  0  0
   18.1165   19.1413   22.7383 H   0  0  0  0  0  0  0  0  0  0  0  0
   19.3463   20.3967   22.8989 H   0  0  0  0  0  0  0  0  0  0  0  0
   19.8093   18.5648   23.9761 C   0  0  0  0  0  0  0  0  0  0  0  0
   19.6644   17.4834   23.8459 H   0  0  0  0  0  0  0  0  0  0  0  0
   20.8938   18.7390   24.0076 H   0  0  0  0  0  0  0  0  0  0  0  0
   19.1756   19.0139   25.3121 C   0  0  0  0  0  0  0  0  0  0  0  0
   18.0914   18.8369   25.2817 H   0  0  0  0  0  0  0  0  0  0  0  0
   19.3190   20.0958   25.4346 H   0  0  0  0  0  0  0  0  0  0  0  0
   19.7864   18.2623   26.5184 C   0  0  0  0  0  0  0  0  0  0  0  0
   19.6713   17.1805   26.3689 H   0  0  0  0  0  0  0  0  0  0  0  0
   20.8655   18.4577   26.5765 H   0  0  0  0  0  0  0  0  0  0  0  0
   19.1219   18.6432   27.8553 C   0  0  0  0  0  0  0  0  0  0  0  0
   19.5347   18.0227   28.6554 H   0  0  0  0  0  0  0  0  0  0  0  0
   18.0463   18.4557   27.7985 H   0  0  0  0  0  0  0  0  0  0  0  0
   19.3267   20.0935   28.2464 N   0  3  0  0  0  0  0  0  0  0  0  0
   20.3210   20.3261   28.3384 H   0  0  0  0  0  0  0  0  0  0  0  0
   18.8831   20.3117   29.1455 H   0  0  0  0  0  0  0  0  0  0  0  0
   18.9285   20.7334   27.5519 H   0  0  0  0  0  0  0  0  0  0  0  0
  1  2  1  0  0  0  0
  1  3  1  0  0  0  0
  1  4  1  0  0  0  0
  1  5  1  0  0  0  0
  5  6  1  0  0  0  0
  5  7  1  0  0  0  0
  5  8  1  0  0  0  0
  8  9  1  0  0  0  0
  8 10  1  0  0  0  0
  8 11  1  0  0  0  0
 11 12  1  0  0  0  0
 11 13  1  0  0  0  0
 11 14  1  0  0  0  0
 14 15  1  0  0  0  0
 14 16  1  0  0  0  0
 14 17  1  0  0  0  0
 17 18  1  0  0  0  0
 17 19  1  0  0  0  0
 17 20  1  0  0  0  0
 20 21  1  0  0  0  0
 20 22  1  0  0  0  0
 20 23  1  0  0  0  0
 23 24  1  0  0  0  0
 23 25  1  0  0  0  0
 23 26  1  0  0  0  0
 26 27  1  0  0  0  0
 26 28  1  0  0  0  0
 26 29  1  0  0  0  0
M  END
> <VM2 Rank>
2

> <Conf_Id>
1570

> <Probability>
3.61

> <Sum Probability>
8.98

> <Delta G>
0.237

> <G>
58.385

> <E>
21.097

> <-TS>
37.288

> <U+W>
-3.048

> <U>
48.292

> <W>
-51.340

> <W(PB)>
-53.879

> <W(SA)>
2.539

> <Valence>
2.685

> <Coulomb>
44.768

> <VdW>
0.839

> <VdW6>
-7.428

> <VdW12>
8.268

> <Bond>
0.165

> <Angle>
0.440

> <Pdih>
2.080

> <Idih>
0.000

> <Tether>
0.000

$$$$
VeraChem MOL file


 29 28  0  0  0  0  0  0  0  0999 V2000     
   19.7817   18.9386   18.8904 C   0  0  0  0  0  0  0  0  0  0  0  0
   19.1067   18.8319   18.0314 H   0  0  0  0  0  0  0  0  0  0  0  0
   20.3391   19.8763   18.7667 H   0  0  0  0  0  0  0  0  0  0  0  0
   20.4989   18.1079   18.8609 H   0  0  0  0  0  0  0  0  0  0  0  0
   18.9855   18.9371   20.2125 C   0  0  0  0  0  0  0  0  0  0  0  0
   18.4126   18.0025   20.2921 H   0  0  0  0  0  0  0  0  0  0  0  0
   18.2541   19.7573   20.1986 H   0  0  0  0  0  0  0  0  0  0  0  0
   19.9129   19.0863   21.4387 C   0  0  0  0  0  0  0  0  0  0  0  0
   20.6437   18.2657   21.4472 H   0  0  0  0  0  0  0  0  0  0  0  0
   20.4850   20.0206   21.3538 H   0  0  0  0  0  0  0  0  0  0  0  0
   19.1192   19.0851   22.7647 C   0  0  0  0  0  0  0  0  0  0  0  0
   18.5473   18.1506   22.8487 H   0  0  0  0  0  0  0  0  0  0  0  0
   18.3884   19.9056   22.7553 H   0  0  0  0  0  0  0  0  0  0  0  0
   20.0475   19.2345   23.9911 C   0  0  0  0  0  0  0  0  0  0  0  0
   20.7781   18.4137   24.0003 H   0  0  0  0  0  0  0  0  0  0  0  0
   20.6197   20.1687   23.9059 H   0  0  0  0  0  0  0  0  0  0  0  0
   19.2538   19.2337   25.3170 C   0  0  0  0  0  0  0  0  0  0  0  0
   18.6804   18.3004   25.3946 H   0  0  0  0  0  0  0  0  0  0  0  0
   18.5252   20.0564   25.3089 H   0  0  0  0  0  0  0  0  0  0  0  0
   20.1849   19.3826   26.5434 C   0  0  0  0  0  0  0  0  0  0  0  0
   20.8976   18.5478   26.5785 H   0  0  0  0  0  0  0  0  0  0  0  0
   20.7806   20.2992   26.4385 H   0  0  0  0  0  0  0  0  0  0  0  0
   19.4104   19.4541   27.8734 C   0  0  0  0  0  0  0  0  0  0  0  0
   18.6954   20.2806   27.8392 H   0  0  0  0  0  0  0  0  0  0  0  0
   20.1109   19.6425   28.6915 H   0  0  0  0  0  0  0  0  0  0  0  0
   18.6481   18.1860   28.2039 N   0  3  0  0  0  0  0  0  0  0  0  0
   17.9452   17.9693   27.4903 H   0  0  0  0  0  0  0  0  0  0  0  0
   18.1538   18.2615   29.0998 H   0  0  0  0  0  0  0  0  0  0  0  0
   19.2711   17.3746   28.2725 H   0  0  0  0  0  0  0  0  0  0  0  0
  1  2  1  0  0  0  0
  1  3  1  0  0  0  0
  1  4  1  0  0  0  0
  1  5  1  0  0  0  0
  5  6  1  0  0  0  0
  5  7  1  0  0  0  0
  5  8  1  0  0  0  0
  8  9  1  0  0  0  0
  8 10  1  0  0  0  0
  8 11  1  0  0  0  0
 11 12  1  0  0  0  0
 11 13  1  0  0  0  0
 11 14  1  0  0  0  0
 14 15  1  0  0  0  0
 14 16  1  0  0  0  0
 14 17  1  0  0  0  0
 17 18  1  0  0  0  0
 17 19  1  0  0  0  0
 17 20  1  0  0  0  0
 20 21  1  0  0  0  0
 20 22  1  0  0  0  0
 20 23  1  0  0  0  0
 23 24  1  0  0  0  0
 23 25  1  0  0  0  0
 23 26  1  0  0  0  0
 26 27  1  0  0  0  0
 26 28  1  0  0  0  0
 26 29  1  0  0  0  0
M  END
> <VM2 Rank>
3

> <Conf_Id>
2521

> <Probability>
3.41

> <Sum Probability>
12.39

> <Delta G>
0.271

> <G>
58.419

> <E>
21.131

> <-TS>
37.288

> <U+W>
-3.014

> <U>
48.292

> <W>
-51.306

> <W(PB)>
-53.856

> <W(SA)>
2.551

> <Valence>
2.685

> <Coulomb>
44.768

> <VdW>
0.839

> <VdW6>
-7.428

> <VdW12>
8.268

> <Bond>
0.165

> <Angle>
0.440

> <Pdih>
2.080

> <Idih>
0.000

> <Tether>
0.000

$$$$
VeraChem MOL file


 29 28  0  0  0  0  0  0  0  0999 V2000     
   20.2025   18.4714   19.1139 C   0  0  0  0  0  0  0  0  0  0  0  0
   20.3376   17.3931   19.2691 H   0  0  0  0  0  0  0  0  0  0  0  0
   19.7628   18.6163   18.1186 H   0  0  0  0  0  0  0  0  0  0  0  0
   21.1933   18.9442   19.1168 H   0  0  0  0  0  0  0  0  0  0  0  0
   19.2949   19.0792   20.2042 C   0  0  0  0  0  0  0  0  0  0  0  0
   18.3019   18.6109   20.1547 H   0  0  0  0  0  0  0  0  0  0  0  0
   19.1509   20.1501   20.0035 H   0  0  0  0  0  0  0  0  0  0  0  0
   19.8914   18.8889   21.6163 C   0  0  0  0  0  0  0  0  0  0  0  0
   20.0358   17.8172   21.8114 H   0  0  0  0  0  0  0  0  0  0  0  0
   20.8847   19.3567   21.6603 H   0  0  0  0  0  0  0  0  0  0  0  0
   18.9853   19.4961   22.7109 C   0  0  0  0  0  0  0  0  0  0  0  0
   17.9922   19.0278   22.6663 H   0  0  0  0  0  0  0  0  0  0  0  0
   18.8409   20.5675   22.5143 H   0  0  0  0  0  0  0  0  0  0  0  0
   19.5825   19.3058   24.1234 C   0  0  0  0  0  0  0  0  0  0  0  0
   19.7299   18.2338   24.3109 H   0  0  0  0  0  0  0  0  0  0  0  0
   20.5742   19.7767   24.1680 H   0  0  0  0  0  0  0  0  0  0  0  0
   18.6725   19.9134   25.2176 C   0  0  0  0  0  0  0  0  0  0  0  0
   17.6899   19.4216   25.1981 H   0  0  0  0  0  0  0  0  0  0  0  0
   18.4938   20.9737   24.9910 H   0  0  0  0  0  0  0  0  0  0  0  0
   19.2754   19.8047   26.6378 C   0  0  0  0  0  0  0  0  0  0  0  0
   20.2464   20.3169   26.6667 H   0  0  0  0  0  0  0  0  0  0  0  0
   18.6205   20.3319   27.3442 H   0  0  0  0  0  0  0  0  0  0  0  0
   19.4454   18.3460   27.1018 C   0  0  0  0  0  0  0  0  0  0  0  0
   20.1311   17.8215   26.4314 H   0  0  0  0  0  0  0  0  0  0  0  0
   18.4786   17.8361   27.0743 H   0  0  0  0  0  0  0  0  0  0  0  0
   19.9942   18.2325   28.5092 N   0  3  0  0  0  0  0  0  0  0  0  0
   20.9170   18.6712   28.5957 H   0  0  0  0  0  0  0  0  0  0  0  0
   20.0998   17.2541   28.7993 H   0  0  0  0  0  0  0  0  0  0  0  0
   19.3801   18.6830   29.1959 H   0  0  0  0  0  0  0  0  0  0  0  0
  1  2  1  0  0  0  0
  1  3  1  0  0  0  0
  1  4  1  0  0  0  0
  1  5  1  0  0  0  0
  5  6  1  0  0  0  0
  5  7  1  0  0  0  0
  5  8  1  0  0  0  0
  8  9  1  0  0  0  0
  8 10  1  0  0  0  0
  8 11  1  0  0  0  0
 11 12  1  0  0  0  0
 11 13  1  0  0  0  0
 11 14  1  0  0  0  0
 14 15  1  0  0  0  0
 14 16  1  0  0  0  0
 14 17  1  0  0  0  0
 17 18  1  0  0  0  0
 17 19  1  0  0  0  0
 17 20  1  0  0  0  0
 20 21  1  0  0  0  0
 20 22  1  0  0  0  0
 20 23  1  0  0  0  0
 23 24  1  0  0  0  0
 23 25  1  0  0  0  0
 23 26  1  0  0  0  0
 26 27  1  0  0  0  0
 26 28  1  0  0  0  0
 26 29  1  0  0  0  0
M  END
> <VM2 Rank>
4

> <Conf_Id>
228

> <Probability>
2.30

> <Sum Probability>
14.70

> <Delta G>
0.505

> <G>
58.653

> <E>
21.369

> <-TS>
37.284

> <U+W>
-2.775

> <U>
48.481

> <W>
-51.256

> <W(PB)>
-53.824

> <W(SA)>
2.568

> <Valence>
2.887

> <Coulomb>
44.809

> <VdW>
0.785

> <VdW6>
-7.506

> <VdW12>
8.292

> <Bond>
0.167

> <Angle>
0.525

> <Pdih>
2.195

> <Idih>
0.000

> <Tether>
0.000

$$$$
VeraChem MOL file


 29 28  0  0  0  0  0  0  0  0999 V2000     
   20.4799   19.2506   19.1312 C   0  0  0  0  0  0  0  0  0  0  0  0
   21.2636   19.9940   19.3270 H   0  0  0  0  0  0  0  0  0  0  0  0
   20.9493   18.2586   19.1015 H   0  0  0  0  0  0  0  0  0  0  0  0
   20.0616   19.4555   18.1372 H   0  0  0  0  0  0  0  0  0  0  0  0
   19.3772   19.3102   20.2093 C   0  0  0  0  0  0  0  0  0  0  0  0
   18.5920   18.5799   19.9685 H   0  0  0  0  0  0  0  0  0  0  0  0
   18.9039   20.3020   20.1923 H   0  0  0  0  0  0  0  0  0  0  0  0
   19.9399   19.0251   21.6193 C   0  0  0  0  0  0  0  0  0  0  0  0
   20.4139   18.0338   21.6309 H   0  0  0  0  0  0  0  0  0  0  0  0
   20.7259   19.7560   21.8546 H   0  0  0  0  0  0  0  0  0  0  0  0
   18.8385   19.0840   22.7017 C   0  0  0  0  0  0  0  0  0  0  0  0
   18.0527   18.3533   22.4649 H   0  0  0  0  0  0  0  0  0  0  0  0
   18.3651   20.0755   22.6896 H   0  0  0  0  0  0  0  0  0  0  0  0
   19.4017   18.7983   24.1121 C   0  0  0  0  0  0  0  0  0  0  0  0
   19.8725   17.8055   24.1241 H   0  0  0  0  0  0  0  0  0  0  0  0
   20.1904   19.5278   24.3397 H   0  0  0  0  0  0  0  0  0  0  0  0
   18.2971   18.8593   25.1940 C   0  0  0  0  0  0  0  0  0  0  0  0
   17.4920   18.1603   24.9281 H   0  0  0  0  0  0  0  0  0  0  0  0
   17.8465   19.8615   25.2080 H   0  0  0  0  0  0  0  0  0  0  0  0
   18.8130   18.5062   26.6088 C   0  0  0  0  0  0  0  0  0  0  0  0
   17.9623   18.4840   27.3029 H   0  0  0  0  0  0  0  0  0  0  0  0
   19.2413   17.4950   26.6037 H   0  0  0  0  0  0  0  0  0  0  0  0
   19.8598   19.5095   27.1278 C   0  0  0  0  0  0  0  0  0  0  0  0
   19.4333   20.5162   27.1341 H   0  0  0  0  0  0  0  0  0  0  0  0
   20.7322   19.5086   26.4692 H   0  0  0  0  0  0  0  0  0  0  0  0
   20.3368   19.1949   28.5308 N   0  3  0  0  0  0  0  0  0  0  0  0
   21.0329   19.8740   28.8579 H   0  0  0  0  0  0  0  0  0  0  0  0
   20.7734   18.2687   28.5870 H   0  0  0  0  0  0  0  0  0  0  0  0
   19.5666   19.2071   29.2076 H   0  0  0  0  0  0  0  0  0  0  0  0
  1  2  1  0  0  0  0
  1  3  1  0  0  0  0
  1  4  1  0  0  0  0
  1  5  1  0  0  0  0
  5  6  1  0  0  0  0
  5  7  1  0  0  0  0
  5  8  1  0  0  0  0
  8  9  1  0  0  0  0
  8 10  1  0  0  0  0
  8 11  1  0  0  0  0
 11 12  1  0  0  0  0
 11 13  1  0  0  0  0
 11 14  1  0  0  0  0
 14 15  1  0  0  0  0
 14 16  1  0  0  0  0
 14 17  1  0  0  0  0
 17 18  1  0  0  0  0
 17 19  1  0  0  0  0
 17 20  1  0  0  0  0
 20 21  1  0  0  0  0
 20 22  1  0  0  0  0
 20 23  1  0  0  0  0
 23 24  1  0  0  0  0
 23 25  1  0  0  0  0
 23 26  1  0  0  0  0
 26 27  1  0  0  0  0
 26 28  1  0  0  0  0
 26 29  1  0  0  0  0
M  END
> <VM2 Rank>
5

> <Conf_Id>
1293

> <Probability>
2.27

> <Sum Probability>
16.97

> <Delta G>
0.513

> <G>
58.661

> <E>
21.378

> <-TS>
37.284

> <U+W>
-2.767

> <U>
48.481

> <W>
-51.248

> <W(PB)>
-53.780

> <W(SA)>
2.532

> <Valence>
2.887

> <Coulomb>
44.808

> <VdW>
0.785

> <VdW6>
-7.506

> <VdW12>
8.291

> <Bond>
0.167

> <Angle>
0.525

> <Pdih>
2.195

> <Idih>
0.000

> <Tether>
0.000

$$$$
VeraChem MOL file


 29 28  0  0  0  0  0  0  0  0999 V2000     
   19.6450   20.1991   19.5767 C   0  0  0  0  0  0  0  0  0  0  0  0
   20.7239   20.3977   19.6175 H   0  0  0  0  0  0  0  0  0  0  0  0
   19.3014   20.4192   18.5576 H   0  0  0  0  0  0  0  0  0  0  0  0
   19.1401   20.8997   20.2532 H   0  0  0  0  0  0  0  0  0  0  0  0
   19.3360   18.7306   19.9461 C   0  0  0  0  0  0  0  0  0  0  0  0
   19.7601   18.0744   19.1733 H   0  0  0  0  0  0  0  0  0  0  0  0
   18.2496   18.5655   19.9274 H   0  0  0  0  0  0  0  0  0  0  0  0
   19.9057   18.3096   21.3222 C   0  0  0  0  0  0  0  0  0  0  0  0
   19.7391   17.2314   21.4533 H   0  0  0  0  0  0  0  0  0  0  0  0
   20.9945   18.4573   21.3291 H   0  0  0  0  0  0  0  0  0  0  0  0
   19.2685   19.0675   22.5114 C   0  0  0  0  0  0  0  0  0  0  0  0
   18.1758   18.9605   22.4712 H   0  0  0  0  0  0  0  0  0  0  0  0
   19.4877   20.1403   22.4313 H   0  0  0  0  0  0  0  0  0  0  0  0
   19.7888   18.5447   23.8694 C   0  0  0  0  0  0  0  0  0  0  0  0
   19.5675   17.4722   23.9592 H   0  0  0  0  0  0  0  0  0  0  0  0
   20.8822   18.6483   23.9072 H   0  0  0  0  0  0  0  0  0  0  0  0
   19.1568   19.3032   25.0582 C   0  0  0  0  0  0  0  0  0  0  0  0
   18.0633   19.2002   25.0204 H   0  0  0  0  0  0  0  0  0  0  0  0
   19.3783   20.3759   24.9696 H   0  0  0  0  0  0  0  0  0  0  0  0
   19.6762   18.7811   26.4158 C   0  0  0  0  0  0  0  0  0  0  0  0
   19.4518   17.7102   26.5107 H   0  0  0  0  0  0  0  0  0  0  0  0
   20.7684   18.8870   26.4595 H   0  0  0  0  0  0  0  0  0  0  0  0
   19.0409   19.5431   27.5921 C   0  0  0  0  0  0  0  0  0  0  0  0
   17.9541   19.4267   27.5623 H   0  0  0  0  0  0  0  0  0  0  0  0
   19.2755   20.6079   27.5108 H   0  0  0  0  0  0  0  0  0  0  0  0
   19.5261   19.0591   28.9432 N   0  3  0  0  0  0  0  0  0  0  0  0
   20.5407   19.1670   29.0457 H   0  0  0  0  0  0  0  0  0  0  0  0
   19.3110   18.0678   29.0936 H   0  0  0  0  0  0  0  0  0  0  0  0
   19.0910   19.5795   29.7130 H   0  0  0  0  0  0  0  0  0  0  0  0
  1  2  1  0  0  0  0
  1  3  1  0  0  0  0
  1  4  1  0  0  0  0
  1  5  1  0  0  0  0
  5  6  1  0  0  0  0
  5  7  1  0  0  0  0
  5  8  1  0  0  0  0
  8  9  1  0  0  0  0
  8 10  1  0  0  0  0
  8 11  1  0  0  0  0
 11 12  1  0  0  0  0
 11 13  1  0  0  0  0
 11 14  1  0  0  0  0
 14 15  1  0  0  0  0
 14 16  1  0  0  0  0
 14 17  1  0  0  0  0
 17 18  1  0  0  0  0
 17 19  1  0  0  0  0
 17 20  1  0  0  0  0
 20 21  1  0  0  0  0
 20 22  1  0  0  0  0
 20 23  1  0  0  0  0
 23 24  1  0  0  0  0
 23 25  1  0  0  0  0
 23 26  1  0  0  0  0
 26 27  1  0  0  0  0
 26 28  1  0  0  0  0
 26 29  1  0  0  0  0
M  END
> <VM2 Rank>
6

> <Conf_Id>
1223

> <Probability>
1.83

> <Sum Probability>
18.80

> <Delta G>
0.642

> <G>
58.790

> <E>
21.495

> <-TS>
37.295

> <U+W>
-2.650

> <U>
48.301

> <W>
-50.950

> <W(PB)>
-53.515

> <W(SA)>
2.565

> <Valence>
3.090

> <Coulomb>
44.344

> <VdW>
0.866

> <VdW6>
-7.521

> <VdW12>
8.387

> <Bond>
0.180

> <Angle>
0.641

> <Pdih>
2.270

> <Idih>
0.000

> <Tether>
0.000

$$$$
VeraChem MOL file


 29 28  0  0  0  0  0  0  0  0999 V2000     
   18.9501   18.2473   19.5329 C   0  0  0  0  0  0  0  0  0  0  0  0
   18.1067   17.9967   20.1882 H   0  0  0  0  0  0  0  0  0  0  0  0
   18.5591   18.3345   18.5109 H   0  0  0  0  0  0  0  0  0  0  0  0
   19.6605   17.4105   19.5504 H   0  0  0  0  0  0  0  0  0  0  0  0
   19.6328   19.5648   19.9648 C   0  0  0  0  0  0  0  0  0  0  0  0
   18.8952   20.3795   19.9682 H   0  0  0  0  0  0  0  0  0  0  0  0
   20.3869   19.8358   19.2127 H   0  0  0  0  0  0  0  0  0  0  0  0
   20.3210   19.4762   21.3483 C   0  0  0  0  0  0  0  0  0  0  0  0
   21.0716   18.6739   21.3338 H   0  0  0  0  0  0  0  0  0  0  0  0
   20.8709   20.4109   21.5245 H   0  0  0  0  0  0  0  0  0  0  0  0
   19.3316   19.2444   22.5153 C   0  0  0  0  0  0  0  0  0  0  0  0
   18.8252   18.2784   22.3896 H   0  0  0  0  0  0  0  0  0  0  0  0
   18.5526   20.0190   22.4950 H   0  0  0  0  0  0  0  0  0  0  0  0
   20.0460   19.2666   23.8855 C   0  0  0  0  0  0  0  0  0  0  0  0
   20.8276   18.4945   23.9037 H   0  0  0  0  0  0  0  0  0  0  0  0
   20.5506   20.2333   24.0209 H   0  0  0  0  0  0  0  0  0  0  0  0
   19.0602   19.0314   25.0522 C   0  0  0  0  0  0  0  0  0  0  0  0
   18.5558   18.0643   24.9180 H   0  0  0  0  0  0  0  0  0  0  0  0
   18.2780   19.8032   25.0338 H   0  0  0  0  0  0  0  0  0  0  0  0
   19.7734   19.0541   26.4219 C   0  0  0  0  0  0  0  0  0  0  0  0
   20.5526   18.2806   26.4461 H   0  0  0  0  0  0  0  0  0  0  0  0
   20.2745   20.0212   26.5622 H   0  0  0  0  0  0  0  0  0  0  0  0
   18.7831   18.8190   27.5759 C   0  0  0  0  0  0  0  0  0  0  0  0
   18.2938   17.8494   27.4495 H   0  0  0  0  0  0  0  0  0  0  0  0
   18.0145   19.5965   27.5658 H   0  0  0  0  0  0  0  0  0  0  0  0
   19.4458   18.8342   28.9382 N   0  3  0  0  0  0  0  0  0  0  0  0
   18.7689   18.6757   29.6928 H   0  0  0  0  0  0  0  0  0  0  0  0
   19.9028   19.7318   29.1305 H   0  0  0  0  0  0  0  0  0  0  0  0
   20.1629   18.1060   29.0223 H   0  0  0  0  0  0  0  0  0  0  0  0
  1  2  1  0  0  0  0
  1  3  1  0  0  0  0
  1  4  1  0  0  0  0
  1  5  1  0  0  0  0
  5  6  1  0  0  0  0
  5  7  1  0  0  0  0
  5  8  1  0  0  0  0
  8  9  1  0  0  0  0
  8 10  1  0  0  0  0
  8 11  1  0  0  0  0
 11 12  1  0  0  0  0
 11 13  1  0  0  0  0
 11 14  1  0  0  0  0
 14 15  1  0  0  0  0
 14 16  1  0  0  0  0
 14 17  1  0  0  0  0
 17 18  1  0  0  0  0
 17 19  1  0  0  0  0
 17 20  1  0  0  0  0
 20 21  1  0  0  0  0
 20 22  1  0  0  0  0
 20 23  1  0  0  0  0
 23 24  1  0  0  0  0
 23 25  1  0  0  0  0
 23 26  1  0  0  0  0
 26 27  1  0  0  0  0
 26 28  1  0  0  0  0
 26 29  1  0  0  0  0
M  END
> <VM2 Rank>
7

> <Conf_Id>
1623

> <Probability>
1.83

> <Sum Probability>
20.62

> <Delta G>
0.643

> <G>
58.791

> <E>
21.496

> <-TS>
37.295

> <U+W>
-2.648

> <U>
48.301

> <W>
-50.949

> <W(PB)>
-53.521

> <W(SA)>
2.572

> <Valence>
3.090

> <Coulomb>
44.344

> <VdW>
0.866

> <VdW6>
-7.521

> <VdW12>
8.387

> <Bond>
0.180

> <Angle>
0.640

> <Pdih>
2.270

> <Idih>
0.000

> <Tether>
0.000

$$$$
VeraChem MOL file


 29 28  0  0  0  0  0  0  0  0999 V2000     
   20.2307   18.4037   19.2511 C   0  0  0  0  0  0  0  0  0  0  0  0
   21.2153   18.8887   19.2283 H   0  0  0  0  0  0  0  0  0  0  0  0
   20.3525   17.3757   18.8859 H   0  0  0  0  0  0  0  0  0  0  0  0
   19.5719   18.9340   18.5509 H   0  0  0  0  0  0  0  0  0  0  0  0
   19.6433   18.4090   20.6783 C   0  0  0  0  0  0  0  0  0  0  0  0
   20.3077   17.8360   21.3386 H   0  0  0  0  0  0  0  0  0  0  0  0
   18.6734   17.8923   20.6749 H   0  0  0  0  0  0  0  0  0  0  0  0
   19.4664   19.8485   21.2163 C   0  0  0  0  0  0  0  0  0  0  0  0
   20.4442   20.3468   21.2696 H   0  0  0  0  0  0  0  0  0  0  0  0
   18.8653   20.4255   20.5001 H   0  0  0  0  0  0  0  0  0  0  0  0
   18.7750   19.9127   22.6003 C   0  0  0  0  0  0  0  0  0  0  0  0
   17.7909   19.4275   22.5424 H   0  0  0  0  0  0  0  0  0  0  0  0
   18.5851   20.9670   22.8449 H   0  0  0  0  0  0  0  0  0  0  0  0
   19.6068   19.2736   23.7381 C   0  0  0  0  0  0  0  0  0  0  0  0
   19.7410   18.2009   23.5472 H   0  0  0  0  0  0  0  0  0  0  0  0
   20.6091   19.7232   23.7568 H   0  0  0  0  0  0  0  0  0  0  0  0
   18.9316   19.4606   25.1156 C   0  0  0  0  0  0  0  0  0  0  0  0
   17.9274   19.0147   25.0960 H   0  0  0  0  0  0  0  0  0  0  0  0
   18.7996   20.5326   25.3184 H   0  0  0  0  0  0  0  0  0  0  0  0
   19.7571   18.8202   26.2531 C   0  0  0  0  0  0  0  0  0  0  0  0
   19.8866   17.7473   26.0576 H   0  0  0  0  0  0  0  0  0  0  0  0
   20.7601   19.2667   26.2788 H   0  0  0  0  0  0  0  0  0  0  0  0
   19.0763   19.0126   27.6195 C   0  0  0  0  0  0  0  0  0  0  0  0
   18.0834   18.5550   27.6039 H   0  0  0  0  0  0  0  0  0  0  0  0
   18.9603   20.0800   27.8262 H   0  0  0  0  0  0  0  0  0  0  0  0
   19.8568   18.3971   28.7628 N   0  3  0  0  0  0  0  0  0  0  0  0
   19.3862   18.5363   29.6638 H   0  0  0  0  0  0  0  0  0  0  0  0
   20.7937   18.8050   28.8489 H   0  0  0  0  0  0  0  0  0  0  0  0
   19.9776   17.3859   28.6420 H   0  0  0  0  0  0  0  0  0  0  0  0
  1  2  1  0  0  0  0
  1  3  1  0  0  0  0
  1  4  1  0  0  0  0
  1  5  1  0  0  0  0
  5  6  1  0  0  0  0
  5  7  1  0  0  0  0
  5  8  1  0  0  0  0
  8  9  1  0  0  0  0
  8 10  1  0  0  0  0
  8 11  1  0  0  0  0
 11 12  1  0  0  0  0
 11 13  1  0  0  0  0
 11 14  1  0  0  0  0
 14 15  1  0  0  0  0
 14 16  1  0  0  0  0
 14 17  1  0  0  0  0
 17 18  1  0  0  0  0
 17 19  1  0  0  0  0
 17 20  1  0  0  0  0
 20 21  1  0  0  0  0
 20 22  1  0  0  0  0
 20 23  1  0  0  0  0
 23 24  1  0  0  0  0
 23 25  1  0  0  0  0
 23 26  1  0  0  0  0
 26 27  1  0  0  0  0
 26 28  1  0  0  0  0
 26 29  1  0  0  0  0
M  END
> <VM2 Rank>
8

> <Conf_Id>
1544

> <Probability>
1.74

> <Sum Probability>
22.36

> <Delta G>
0.672

> <G>
58.820

> <E>
21.536

> <-TS>
37.284

> <U+W>
-2.609

> <U>
48.495

> <W>
-51.103

> <W(PB)>
-53.638

> <W(SA)>
2.534

> <Valence>
3.129

> <Coulomb>
44.512

> <VdW>
0.854

> <VdW6>
-7.566

> <VdW12>
8.420

> <Bond>
0.184

> <Angle>
0.664

> <Pdih>
2.281

> <Idih>
0.000

> <Tether>
0.000

$$$$
