VeraChem MOL file


 22 22  0  0  0  0  0  0  0  0999 V2000     
   19.7077   19.0202   20.9158 C   0  0  0  0  0  0  0  0  0  0  0  0
   19.9892   18.8865   19.8623 H   0  0  0  0  0  0  0  0  0  0  0  0
   18.7523   18.4924   21.0393 H   0  0  0  0  0  0  0  0  0  0  0  0
   19.4965   20.5301   21.1695 C   0  0  0  0  0  0  0  0  0  0  0  0
   20.3891   21.0826   20.8457 H   0  0  0  0  0  0  0  0  0  0  0  0
   18.6796   20.8754   20.5213 H   0  0  0  0  0  0  0  0  0  0  0  0
   19.1585   20.9072   22.6312 C   0  0  0  0  0  0  0  0  0  0  0  0
   18.3049   20.3213   22.9970 H   0  0  0  0  0  0  0  0  0  0  0  0
   18.8334   21.9565   22.6388 H   0  0  0  0  0  0  0  0  0  0  0  0
   20.3739   20.7752   23.5818 C   0  0  0  0  0  0  0  0  0  0  0  0
   21.2860   21.0756   23.0502 H   0  0  0  0  0  0  0  0  0  0  0  0
   20.2667   21.5001   24.3999 H   0  0  0  0  0  0  0  0  0  0  0  0
   20.5910   19.3752   24.2016 C   0  0  0  0  0  0  0  0  0  0  0  0
   21.6379   19.3256   24.5339 H   0  0  0  0  0  0  0  0  0  0  0  0
   20.3291   18.1692   23.2697 C   0  0  0  0  0  0  0  0  0  0  0  0
   20.8571   17.3060   23.6955 H   0  0  0  0  0  0  0  0  0  0  0  0
   19.2643   17.9021   23.2874 H   0  0  0  0  0  0  0  0  0  0  0  0
   20.7852   18.3510   21.8018 C   0  0  0  0  0  0  0  0  0  0  0  0
   21.7331   18.9038   21.7508 H   0  0  0  0  0  0  0  0  0  0  0  0
   20.9901   17.3559   21.3841 H   0  0  0  0  0  0  0  0  0  0  0  0
   19.7440   19.2498   25.3356 O   0  0  0  0  0  0  0  0  0  0  0  0
   18.8338   19.3997   25.0082 H   0  0  0  0  0  0  0  0  0  0  0  0
  1  2  1  0  0  0  0
  1  3  1  0  0  0  0
  1  4  1  0  0  0  0
  4  5  1  0  0  0  0
  4  6  1  0  0  0  0
  4  7  1  0  0  0  0
  7  8  1  0  0  0  0
  7  9  1  0  0  0  0
  7 10  1  0  0  0  0
 10 11  1  0  0  0  0
 10 12  1  0  0  0  0
 10 13  1  0  0  0  0
 13 14  1  0  0  0  0
 13 15  1  0  0  0  0
 15 16  1  0  0  0  0
 15 17  1  0  0  0  0
  1 18  1  0  0  0  0
 15 18  1  0  0  0  0
 18 19  1  0  0  0  0
 18 20  1  0  0  0  0
 13 21  1  0  0  0  0
 21 22  1  0  0  0  0
M  END
> <VM2 Rank>
1

> <Conf_Id>
787

> <Probability>
8.29

> <Sum Probability>
8.29

> <Delta G>
0.000

> <G>
47.387

> <E>
20.718

> <-TS>
26.669

> <U+W>
2.833

> <U>
4.530

> <W>
-1.697

> <W(PB)>
-3.699

> <W(SA)>
2.002

> <Valence>
12.224

> <Coulomb>
-9.755

> <VdW>
2.062

> <VdW6>
-9.196

> <VdW12>
11.257

> <Bond>
0.216

> <Angle>
2.754

> <Pdih>
9.253

> <Idih>
0.000

> <Tether>
0.000

$$$$
