@<TRIPOS>MOLECULE
guest-s12_vm2.mol2 : vm2 ligand conformer 1
          26          25           1
SMALL
USER_CHARGES
 
@<TRIPOS>ATOM
       1    N1      19.983750   18.623827   26.486091 N.4        1 MOL1        -0.4857
       2    H1      20.862900   18.085547   26.533251 H          1 MOL1         0.3650
       3    H2      19.230452   17.918631   26.475298 H          1 MOL1         0.3650
       4    C1      19.944267   19.450694   25.216613 C.3        1 MOL1         0.0209
       5    H3      20.759798   20.176760   25.263926 H          1 MOL1         0.0967
       6    H4      18.997595   19.996664   25.201439 H          1 MOL1         0.0967
       7    C2      20.075938   18.606555   23.935929 C.3        1 MOL1        -0.1378
       8    H5      21.020567   18.047077   23.963016 H          1 MOL1         0.0993
       9    H6      19.264267   17.867619   23.900751 H          1 MOL1         0.0993
      10    C3      20.030561   19.490031   22.669492 C.3        1 MOL1        -0.1338
      11    H7      20.840763   20.231434   22.711049 H          1 MOL1         0.0993
      12    H8      19.086525   20.052353   22.648976 H          1 MOL1         0.0993
      13    C4      20.161762   18.652832   21.376717 C.3        1 MOL1        -0.1338
      14    H9      21.105697   18.090598   21.396984 H          1 MOL1         0.0993
      15    H10     19.351667   17.911528   21.334944 H          1 MOL1         0.0993
      16    C5      20.116309   19.536724   20.110273 C.3        1 MOL1        -0.1313
      17    H11     20.926442   20.278613   20.146058 H          1 MOL1         0.0993
      18    H12     19.172592   20.099489   20.083993 H          1 MOL1         0.0993
      19    C6      20.247639   18.697363   18.821429 C.3        1 MOL1        -0.2328
      20    H13     20.213225   19.342117   17.933658 H          1 MOL1         0.1004
      21    H14     19.430846   17.968390   18.739893 H          1 MOL1         0.1004
      22    H15     21.198435   18.148882   18.802456 H          1 MOL1         0.1004
      23    C7      19.847774   19.531973   27.700456 C.3        1 MOL1        -0.0781
      24    H16     18.896278   20.065430   27.645270 H          1 MOL1         0.0978
      25    H17     19.877768   18.924096   28.607504 H          1 MOL1         0.0978
      26    H18     20.673228   20.247189   27.708319 H          1 MOL1         0.0978
@<TRIPOS>BOND
    1     1     2    1
    2     1     3    1
    3     1     4    1
    4     4     5    1
    5     4     6    1
    6     4     7    1
    7     7     8    1
    8     7     9    1
    9     7    10    1
   10    10    11    1
   11    10    12    1
   12    10    13    1
   13    13    14    1
   14    13    15    1
   15    13    16    1
   16    16    17    1
   17    16    18    1
   18    16    19    1
   19    19    20    1
   20    19    21    1
   21    19    22    1
   22     1    23    1
   23    23    24    1
   24    23    25    1
   25    23    26    1
@<TRIPOS>SUBSTRUCTURE
       1 MOL1            1 RESIDUE      1      MOL     
@<SCITEGIC>MOL_PROPERTY
VM2 Rank
SciTegic.value.IntegerValue
1

@<SCITEGIC>MOL_PROPERTY
Conf_Id
SciTegic.value.IntegerValue
11

@<SCITEGIC>MOL_PROPERTY
Probability
SciTegic.value.DoubleValue
6.71

@<SCITEGIC>MOL_PROPERTY
Sum Probability
SciTegic.value.DoubleValue
6.71

@<SCITEGIC>MOL_PROPERTY
Delta G
SciTegic.value.DoubleValue
0.000

@<SCITEGIC>MOL_PROPERTY
G
SciTegic.value.DoubleValue
75.467

@<SCITEGIC>MOL_PROPERTY
E
SciTegic.value.DoubleValue
43.304

@<SCITEGIC>MOL_PROPERTY
-TS
SciTegic.value.DoubleValue
32.163

@<SCITEGIC>MOL_PROPERTY
U+W
SciTegic.value.DoubleValue
21.842

@<SCITEGIC>MOL_PROPERTY
U
SciTegic.value.DoubleValue
70.357

@<SCITEGIC>MOL_PROPERTY
W
SciTegic.value.DoubleValue
-48.512

@<SCITEGIC>MOL_PROPERTY
W(PB)
SciTegic.value.DoubleValue
-50.853

@<SCITEGIC>MOL_PROPERTY
W(SA)
SciTegic.value.DoubleValue
2.341

@<SCITEGIC>MOL_PROPERTY
Valence
SciTegic.value.DoubleValue
1.714

@<SCITEGIC>MOL_PROPERTY
Coulomb
SciTegic.value.DoubleValue
68.480

@<SCITEGIC>MOL_PROPERTY
VdW
SciTegic.value.DoubleValue
0.163

@<SCITEGIC>MOL_PROPERTY
VdW6
SciTegic.value.DoubleValue
-5.268

@<SCITEGIC>MOL_PROPERTY
VdW12
SciTegic.value.DoubleValue
5.431

@<SCITEGIC>MOL_PROPERTY
Bond
SciTegic.value.DoubleValue
0.126

@<SCITEGIC>MOL_PROPERTY
Angle
SciTegic.value.DoubleValue
0.350

@<SCITEGIC>MOL_PROPERTY
Pdih
SciTegic.value.DoubleValue
1.238

@<SCITEGIC>MOL_PROPERTY
Idih
SciTegic.value.DoubleValue
0.000

@<SCITEGIC>MOL_PROPERTY
Tether
SciTegic.value.DoubleValue
0.000

