VeraChem MOL file


 29 28  0  0  0  0  0  0  0  0999 V2000     
   19.9950   18.9913   18.8122 C   0  0  0  0  0  0  0  0  0  0  0  0
   20.8995   19.6136   18.8050 H   0  0  0  0  0  0  0  0  0  0  0  0
   20.3037   17.9387   18.7677 H   0  0  0  0  0  0  0  0  0  0  0  0
   19.4251   19.2143   17.9009 H   0  0  0  0  0  0  0  0  0  0  0  0
   19.1426   19.2665   20.0690 C   0  0  0  0  0  0  0  0  0  0  0  0
   18.2298   18.6555   20.0314 H   0  0  0  0  0  0  0  0  0  0  0  0
   18.8210   20.3175   20.0684 H   0  0  0  0  0  0  0  0  0  0  0  0
   19.9220   18.9604   21.3669 C   0  0  0  0  0  0  0  0  0  0  0  0
   20.2433   17.9096   21.3620 H   0  0  0  0  0  0  0  0  0  0  0  0
   20.8346   19.5716   21.3990 H   0  0  0  0  0  0  0  0  0  0  0  0
   19.0717   19.2348   22.6277 C   0  0  0  0  0  0  0  0  0  0  0  0
   18.1592   18.6235   22.5948 H   0  0  0  0  0  0  0  0  0  0  0  0
   18.7506   20.2857   22.6319 H   0  0  0  0  0  0  0  0  0  0  0  0
   19.8518   18.9283   23.9260 C   0  0  0  0  0  0  0  0  0  0  0  0
   20.1729   17.8774   23.9214 H   0  0  0  0  0  0  0  0  0  0  0  0
   20.7643   19.5395   23.9585 H   0  0  0  0  0  0  0  0  0  0  0  0
   19.0013   19.2028   25.1867 C   0  0  0  0  0  0  0  0  0  0  0  0
   18.0885   18.5916   25.1547 H   0  0  0  0  0  0  0  0  0  0  0  0
   18.6800   20.2538   25.1918 H   0  0  0  0  0  0  0  0  0  0  0  0
   19.7802   18.8965   26.4847 C   0  0  0  0  0  0  0  0  0  0  0  0
   20.0986   17.8455   26.4858 H   0  0  0  0  0  0  0  0  0  0  0  0
   20.6908   19.5094   26.5230 H   0  0  0  0  0  0  0  0  0  0  0  0
   18.9245   19.1732   27.7332 C   0  0  0  0  0  0  0  0  0  0  0  0
   18.0245   18.5529   27.7076 H   0  0  0  0  0  0  0  0  0  0  0  0
   18.6190   20.2230   27.7450 H   0  0  0  0  0  0  0  0  0  0  0  0
   19.6549   18.8842   29.0286 N   0  3  0  0  0  0  0  0  0  0  0  0
   19.9464   17.9031   29.0920 H   0  0  0  0  0  0  0  0  0  0  0  0
   19.0674   19.0749   29.8479 H   0  0  0  0  0  0  0  0  0  0  0  0
   20.4996   19.4572   29.1268 H   0  0  0  0  0  0  0  0  0  0  0  0
  1  2  1  0  0  0  0
  1  3  1  0  0  0  0
  1  4  1  0  0  0  0
  1  5  1  0  0  0  0
  5  6  1  0  0  0  0
  5  7  1  0  0  0  0
  5  8  1  0  0  0  0
  8  9  1  0  0  0  0
  8 10  1  0  0  0  0
  8 11  1  0  0  0  0
 11 12  1  0  0  0  0
 11 13  1  0  0  0  0
 11 14  1  0  0  0  0
 14 15  1  0  0  0  0
 14 16  1  0  0  0  0
 14 17  1  0  0  0  0
 17 18  1  0  0  0  0
 17 19  1  0  0  0  0
 17 20  1  0  0  0  0
 20 21  1  0  0  0  0
 20 22  1  0  0  0  0
 20 23  1  0  0  0  0
 23 24  1  0  0  0  0
 23 25  1  0  0  0  0
 23 26  1  0  0  0  0
 26 27  1  0  0  0  0
 26 28  1  0  0  0  0
 26 29  1  0  0  0  0
M  END
> <VM2 Rank>
1

> <Conf_Id>
1411

> <Probability>
5.37

> <Sum Probability>
5.37

> <Delta G>
0.000

> <G>
58.148

> <E>
20.963

> <-TS>
37.185

> <U+W>
-3.181

> <U>
47.674

> <W>
-50.848

> <W(PB)>
-53.430

> <W(SA)>
2.581

> <Valence>
2.587

> <Coulomb>
44.357

> <VdW>
0.730

> <VdW6>
-6.901

> <VdW12>
7.631

> <Bond>
0.145

> <Angle>
0.402

> <Pdih>
2.040

> <Idih>
0.000

> <Tether>
0.000

$$$$
