VeraChem MOL file


 22 22  0  0  0  0  0  0  0  0999 V2000     
   19.7077   19.0202   20.9158 C   0  0  0  0  0  0  0  0  0  0  0  0
   19.9892   18.8865   19.8623 H   0  0  0  0  0  0  0  0  0  0  0  0
   18.7523   18.4924   21.0393 H   0  0  0  0  0  0  0  0  0  0  0  0
   19.4965   20.5301   21.1695 C   0  0  0  0  0  0  0  0  0  0  0  0
   20.3891   21.0826   20.8457 H   0  0  0  0  0  0  0  0  0  0  0  0
   18.6796   20.8754   20.5213 H   0  0  0  0  0  0  0  0  0  0  0  0
   19.1585   20.9072   22.6312 C   0  0  0  0  0  0  0  0  0  0  0  0
   18.3049   20.3213   22.9970 H   0  0  0  0  0  0  0  0  0  0  0  0
   18.8334   21.9565   22.6388 H   0  0  0  0  0  0  0  0  0  0  0  0
   20.3739   20.7752   23.5818 C   0  0  0  0  0  0  0  0  0  0  0  0
   21.2860   21.0756   23.0502 H   0  0  0  0  0  0  0  0  0  0  0  0
   20.2667   21.5001   24.3999 H   0  0  0  0  0  0  0  0  0  0  0  0
   20.5910   19.3752   24.2016 C   0  0  0  0  0  0  0  0  0  0  0  0
   21.6379   19.3256   24.5339 H   0  0  0  0  0  0  0  0  0  0  0  0
   20.3291   18.1692   23.2697 C   0  0  0  0  0  0  0  0  0  0  0  0
   20.8571   17.3060   23.6955 H   0  0  0  0  0  0  0  0  0  0  0  0
   19.2643   17.9021   23.2874 H   0  0  0  0  0  0  0  0  0  0  0  0
   20.7852   18.3510   21.8018 C   0  0  0  0  0  0  0  0  0  0  0  0
   21.7331   18.9038   21.7508 H   0  0  0  0  0  0  0  0  0  0  0  0
   20.9901   17.3559   21.3841 H   0  0  0  0  0  0  0  0  0  0  0  0
   19.7440   19.2498   25.3356 O   0  0  0  0  0  0  0  0  0  0  0  0
   18.8338   19.3997   25.0082 H   0  0  0  0  0  0  0  0  0  0  0  0
  1  2  1  0  0  0  0
  1  3  1  0  0  0  0
  1  4  1  0  0  0  0
  4  5  1  0  0  0  0
  4  6  1  0  0  0  0
  4  7  1  0  0  0  0
  7  8  1  0  0  0  0
  7  9  1  0  0  0  0
  7 10  1  0  0  0  0
 10 11  1  0  0  0  0
 10 12  1  0  0  0  0
 10 13  1  0  0  0  0
 13 14  1  0  0  0  0
 13 15  1  0  0  0  0
 15 16  1  0  0  0  0
 15 17  1  0  0  0  0
  1 18  1  0  0  0  0
 15 18  1  0  0  0  0
 18 19  1  0  0  0  0
 18 20  1  0  0  0  0
 13 21  1  0  0  0  0
 21 22  1  0  0  0  0
M  END
> <VM2 Rank>
1

> <Conf_Id>
787

> <Probability>
8.29

> <Sum Probability>
8.29

> <Delta G>
0.000

> <G>
47.387

> <E>
20.718

> <-TS>
26.669

> <U+W>
2.833

> <U>
4.530

> <W>
-1.697

> <W(PB)>
-3.699

> <W(SA)>
2.002

> <Valence>
12.224

> <Coulomb>
-9.755

> <VdW>
2.062

> <VdW6>
-9.196

> <VdW12>
11.257

> <Bond>
0.216

> <Angle>
2.754

> <Pdih>
9.253

> <Idih>
0.000

> <Tether>
0.000

$$$$
VeraChem MOL file


 22 22  0  0  0  0  0  0  0  0999 V2000     
   20.0139   19.2238   21.0653 C   0  0  0  0  0  0  0  0  0  0  0  0
   20.9515   19.7547   20.8519 H   0  0  0  0  0  0  0  0  0  0  0  0
   19.6603   18.8355   20.1003 H   0  0  0  0  0  0  0  0  0  0  0  0
   18.9400   20.1953   21.6061 C   0  0  0  0  0  0  0  0  0  0  0  0
   18.5022   20.7405   20.7585 H   0  0  0  0  0  0  0  0  0  0  0  0
   18.1090   19.6182   22.0321 H   0  0  0  0  0  0  0  0  0  0  0  0
   19.4385   21.2426   22.6339 C   0  0  0  0  0  0  0  0  0  0  0  0
   18.5885   21.5475   23.2598 H   0  0  0  0  0  0  0  0  0  0  0  0
   19.7386   22.1483   22.0893 H   0  0  0  0  0  0  0  0  0  0  0  0
   20.6241   20.8330   23.5492 C   0  0  0  0  0  0  0  0  0  0  0  0
   21.5611   20.9228   22.9845 H   0  0  0  0  0  0  0  0  0  0  0  0
   20.7017   21.5742   24.3551 H   0  0  0  0  0  0  0  0  0  0  0  0
   20.5649   19.4284   24.1924 C   0  0  0  0  0  0  0  0  0  0  0  0
   21.2192   19.4454   25.0758 H   0  0  0  0  0  0  0  0  0  0  0  0
   21.1013   18.3184   23.2605 C   0  0  0  0  0  0  0  0  0  0  0  0
   22.1230   18.5790   22.9552 H   0  0  0  0  0  0  0  0  0  0  0  0
   21.1947   17.3950   23.8468 H   0  0  0  0  0  0  0  0  0  0  0  0
   20.2621   18.0124   21.9952 C   0  0  0  0  0  0  0  0  0  0  0  0
   20.7898   17.2390   21.4207 H   0  0  0  0  0  0  0  0  0  0  0  0
   19.3029   17.5620   22.2845 H   0  0  0  0  0  0  0  0  0  0  0  0
   19.2413   19.1241   24.6044 O   0  0  0  0  0  0  0  0  0  0  0  0
   18.7113   19.2100   23.7871 H   0  0  0  0  0  0  0  0  0  0  0  0
  1  2  1  0  0  0  0
  1  3  1  0  0  0  0
  1  4  1  0  0  0  0
  4  5  1  0  0  0  0
  4  6  1  0  0  0  0
  4  7  1  0  0  0  0
  7  8  1  0  0  0  0
  7  9  1  0  0  0  0
  7 10  1  0  0  0  0
 10 11  1  0  0  0  0
 10 12  1  0  0  0  0
 10 13  1  0  0  0  0
 13 14  1  0  0  0  0
 13 15  1  0  0  0  0
 15 16  1  0  0  0  0
 15 17  1  0  0  0  0
  1 18  1  0  0  0  0
 15 18  1  0  0  0  0
 18 19  1  0  0  0  0
 18 20  1  0  0  0  0
 13 21  1  0  0  0  0
 21 22  1  0  0  0  0
M  END
> <VM2 Rank>
2

> <Conf_Id>
428

> <Probability>
7.21

> <Sum Probability>
15.50

> <Delta G>
0.083

> <G>
47.470

> <E>
20.456

> <-TS>
27.013

> <U+W>
2.572

> <U>
3.922

> <W>
-1.350

> <W(PB)>
-3.345

> <W(SA)>
1.995

> <Valence>
12.571

> <Coulomb>
-10.581

> <VdW>
1.932

> <VdW6>
-10.483

> <VdW12>
12.414

> <Bond>
0.268

> <Angle>
3.728

> <Pdih>
8.575

> <Idih>
0.000

> <Tether>
0.000

$$$$
VeraChem MOL file


 22 22  0  0  0  0  0  0  0  0999 V2000     
   19.3004   18.9078   21.3658 C   0  0  0  0  0  0  0  0  0  0  0  0
   19.1178   18.5423   20.3458 H   0  0  0  0  0  0  0  0  0  0  0  0
   18.3413   18.7879   21.8863 H   0  0  0  0  0  0  0  0  0  0  0  0
   19.6599   20.4095   21.2942 C   0  0  0  0  0  0  0  0  0  0  0  0
   20.7086   20.5482   20.9982 H   0  0  0  0  0  0  0  0  0  0  0  0
   19.0578   20.8613   20.4940 H   0  0  0  0  0  0  0  0  0  0  0  0
   19.3479   21.1729   22.6033 C   0  0  0  0  0  0  0  0  0  0  0  0
   18.3302   20.9340   22.9405 H   0  0  0  0  0  0  0  0  0  0  0  0
   19.3403   22.2488   22.3816 H   0  0  0  0  0  0  0  0  0  0  0  0
   20.3531   20.9338   23.7571 C   0  0  0  0  0  0  0  0  0  0  0  0
   21.3251   21.3597   23.4760 H   0  0  0  0  0  0  0  0  0  0  0  0
   20.0207   21.5081   24.6317 H   0  0  0  0  0  0  0  0  0  0  0  0
   20.5637   19.4670   24.1958 C   0  0  0  0  0  0  0  0  0  0  0  0
   21.2229   19.4898   25.0754 H   0  0  0  0  0  0  0  0  0  0  0  0
   21.2669   18.6125   23.1163 C   0  0  0  0  0  0  0  0  0  0  0  0
   22.0517   19.2173   22.6439 H   0  0  0  0  0  0  0  0  0  0  0  0
   21.7982   17.7951   23.6208 H   0  0  0  0  0  0  0  0  0  0  0  0
   20.3706   17.9911   22.0109 C   0  0  0  0  0  0  0  0  0  0  0  0
   21.0335   17.6194   21.2176 H   0  0  0  0  0  0  0  0  0  0  0  0
   19.8688   17.0999   22.4124 H   0  0  0  0  0  0  0  0  0  0  0  0
   19.3234   18.8835   24.5638 O   0  0  0  0  0  0  0  0  0  0  0  0
   18.8299   18.8213   23.7219 H   0  0  0  0  0  0  0  0  0  0  0  0
  1  2  1  0  0  0  0
  1  3  1  0  0  0  0
  1  4  1  0  0  0  0
  4  5  1  0  0  0  0
  4  6  1  0  0  0  0
  4  7  1  0  0  0  0
  7  8  1  0  0  0  0
  7  9  1  0  0  0  0
  7 10  1  0  0  0  0
 10 11  1  0  0  0  0
 10 12  1  0  0  0  0
 10 13  1  0  0  0  0
 13 14  1  0  0  0  0
 13 15  1  0  0  0  0
 15 16  1  0  0  0  0
 15 17  1  0  0  0  0
  1 18  1  0  0  0  0
 15 18  1  0  0  0  0
 18 19  1  0  0  0  0
 18 20  1  0  0  0  0
 13 21  1  0  0  0  0
 21 22  1  0  0  0  0
M  END
> <VM2 Rank>
3

> <Conf_Id>
451

> <Probability>
6.88

> <Sum Probability>
22.38

> <Delta G>
0.111

> <G>
47.498

> <E>
20.485

> <-TS>
27.013

> <U+W>
2.600

> <U>
3.922

> <W>
-1.322

> <W(PB)>
-3.302

> <W(SA)>
1.980

> <Valence>
12.571

> <Coulomb>
-10.581

> <VdW>
1.932

> <VdW6>
-10.483

> <VdW12>
12.414

> <Bond>
0.268

> <Angle>
3.728

> <Pdih>
8.575

> <Idih>
0.000

> <Tether>
0.000

$$$$
VeraChem MOL file


 22 22  0  0  0  0  0  0  0  0999 V2000     
   19.9267   19.0985   20.8393 C   0  0  0  0  0  0  0  0  0  0  0  0
   20.4382   18.9717   19.8753 H   0  0  0  0  0  0  0  0  0  0  0  0
   18.8786   18.8228   20.6596 H   0  0  0  0  0  0  0  0  0  0  0  0
   20.0027   20.5899   21.2456 C   0  0  0  0  0  0  0  0  0  0  0  0
   21.0340   20.8784   21.4900 H   0  0  0  0  0  0  0  0  0  0  0  0
   19.7193   21.1890   20.3693 H   0  0  0  0  0  0  0  0  0  0  0  0
   19.0393   20.9481   22.4012 C   0  0  0  0  0  0  0  0  0  0  0  0
   18.1081   20.3759   22.2912 H   0  0  0  0  0  0  0  0  0  0  0  0
   18.7484   22.0034   22.3086 H   0  0  0  0  0  0  0  0  0  0  0  0
   19.6150   20.7332   23.8231 C   0  0  0  0  0  0  0  0  0  0  0  0
   20.2131   21.6129   24.0942 H   0  0  0  0  0  0  0  0  0  0  0  0
   18.7748   20.7083   24.5301 H   0  0  0  0  0  0  0  0  0  0  0  0
   20.4976   19.4805   24.0298 C   0  0  0  0  0  0  0  0  0  0  0  0
   21.5126   19.7069   23.6730 H   0  0  0  0  0  0  0  0  0  0  0  0
   20.0024   18.2156   23.2942 C   0  0  0  0  0  0  0  0  0  0  0  0
   20.3477   17.3325   23.8483 H   0  0  0  0  0  0  0  0  0  0  0  0
   18.9058   18.1711   23.2992 H   0  0  0  0  0  0  0  0  0  0  0  0
   20.5498   18.1081   21.8498 C   0  0  0  0  0  0  0  0  0  0  0  0
   21.6407   18.2374   21.8623 H   0  0  0  0  0  0  0  0  0  0  0  0
   20.3733   17.0878   21.4831 H   0  0  0  0  0  0  0  0  0  0  0  0
   20.5523   19.2040   25.4241 O   0  0  0  0  0  0  0  0  0  0  0  0
   20.9149   20.0053   25.8568 H   0  0  0  0  0  0  0  0  0  0  0  0
  1  2  1  0  0  0  0
  1  3  1  0  0  0  0
  1  4  1  0  0  0  0
  4  5  1  0  0  0  0
  4  6  1  0  0  0  0
  4  7  1  0  0  0  0
  7  8  1  0  0  0  0
  7  9  1  0  0  0  0
  7 10  1  0  0  0  0
 10 11  1  0  0  0  0
 10 12  1  0  0  0  0
 10 13  1  0  0  0  0
 13 14  1  0  0  0  0
 13 15  1  0  0  0  0
 15 16  1  0  0  0  0
 15 17  1  0  0  0  0
  1 18  1  0  0  0  0
 15 18  1  0  0  0  0
 18 19  1  0  0  0  0
 18 20  1  0  0  0  0
 13 21  1  0  0  0  0
 21 22  1  0  0  0  0
M  END
> <VM2 Rank>
4

> <Conf_Id>
501

> <Probability>
5.53

> <Sum Probability>
27.91

> <Delta G>
0.241

> <G>
47.628

> <E>
20.970

> <-TS>
26.657

> <U+W>
3.085

> <U>
5.433

> <W>
-2.348

> <W(PB)>
-4.357

> <W(SA)>
2.010

> <Valence>
11.903

> <Coulomb>
-8.719

> <VdW>
2.250

> <VdW6>
-8.926

> <VdW12>
11.175

> <Bond>
0.223

> <Angle>
2.471

> <Pdih>
9.209

> <Idih>
0.000

> <Tether>
0.000

$$$$
VeraChem MOL file


 22 22  0  0  0  0  0  0  0  0999 V2000     
   20.4697   19.2899   21.0088 C   0  0  0  0  0  0  0  0  0  0  0  0
   21.4940   19.5818   21.2774 H   0  0  0  0  0  0  0  0  0  0  0  0
   20.5107   18.9692   19.9589 H   0  0  0  0  0  0  0  0  0  0  0  0
   19.5092   20.5005   21.0929 C   0  0  0  0  0  0  0  0  0  0  0  0
   19.7666   21.2079   20.2927 H   0  0  0  0  0  0  0  0  0  0  0  0
   18.4842   20.1679   20.8789 H   0  0  0  0  0  0  0  0  0  0  0  0
   19.5286   21.2645   22.4367 C   0  0  0  0  0  0  0  0  0  0  0  0
   18.7628   22.0510   22.3951 H   0  0  0  0  0  0  0  0  0  0  0  0
   20.4889   21.7869   22.5458 H   0  0  0  0  0  0  0  0  0  0  0  0
   19.2727   20.3917   23.6898 C   0  0  0  0  0  0  0  0  0  0  0  0
   19.0894   21.0679   24.5356 H   0  0  0  0  0  0  0  0  0  0  0  0
   18.3584   19.7966   23.5696 H   0  0  0  0  0  0  0  0  0  0  0  0
   20.4706   19.4814   24.0405 C   0  0  0  0  0  0  0  0  0  0  0  0
   21.3935   20.0101   23.7619 H   0  0  0  0  0  0  0  0  0  0  0  0
   20.4625   18.1055   23.3351 C   0  0  0  0  0  0  0  0  0  0  0  0
   21.4802   17.6972   23.3853 H   0  0  0  0  0  0  0  0  0  0  0  0
   19.8283   17.4093   23.9005 H   0  0  0  0  0  0  0  0  0  0  0  0
   19.9966   18.0870   21.8579 C   0  0  0  0  0  0  0  0  0  0  0  0
   20.3638   17.1594   21.3977 H   0  0  0  0  0  0  0  0  0  0  0  0
   18.9008   18.0205   21.8187 H   0  0  0  0  0  0  0  0  0  0  0  0
   20.4761   19.2576   25.4452 O   0  0  0  0  0  0  0  0  0  0  0  0
   21.2716   18.7200   25.6423 H   0  0  0  0  0  0  0  0  0  0  0  0
  1  2  1  0  0  0  0
  1  3  1  0  0  0  0
  1  4  1  0  0  0  0
  4  5  1  0  0  0  0
  4  6  1  0  0  0  0
  4  7  1  0  0  0  0
  7  8  1  0  0  0  0
  7  9  1  0  0  0  0
  7 10  1  0  0  0  0
 10 11  1  0  0  0  0
 10 12  1  0  0  0  0
 10 13  1  0  0  0  0
 13 14  1  0  0  0  0
 13 15  1  0  0  0  0
 15 16  1  0  0  0  0
 15 17  1  0  0  0  0
  1 18  1  0  0  0  0
 15 18  1  0  0  0  0
 18 19  1  0  0  0  0
 18 20  1  0  0  0  0
 13 21  1  0  0  0  0
 21 22  1  0  0  0  0
M  END
> <VM2 Rank>
5

> <Conf_Id>
94

> <Probability>
5.30

> <Sum Probability>
33.21

> <Delta G>
0.267

> <G>
47.654

> <E>
20.996

> <-TS>
26.657

> <U+W>
3.111

> <U>
5.433

> <W>
-2.322

> <W(PB)>
-4.348

> <W(SA)>
2.026

> <Valence>
11.903

> <Coulomb>
-8.719

> <VdW>
2.250

> <VdW6>
-8.926

> <VdW12>
11.175

> <Bond>
0.223

> <Angle>
2.471

> <Pdih>
9.209

> <Idih>
0.000

> <Tether>
0.000

$$$$
VeraChem MOL file


 22 22  0  0  0  0  0  0  0  0999 V2000     
   19.9282   19.0991   20.8399 C   0  0  0  0  0  0  0  0  0  0  0  0
   20.4404   18.9726   19.8764 H   0  0  0  0  0  0  0  0  0  0  0  0
   18.8801   18.8239   20.6591 H   0  0  0  0  0  0  0  0  0  0  0  0
   20.0042   20.5906   21.2466 C   0  0  0  0  0  0  0  0  0  0  0  0
   21.0352   20.8785   21.4929 H   0  0  0  0  0  0  0  0  0  0  0  0
   19.7227   21.1898   20.3699 H   0  0  0  0  0  0  0  0  0  0  0  0
   19.0391   20.9497   22.4006 C   0  0  0  0  0  0  0  0  0  0  0  0
   18.1064   20.3805   22.2871 H   0  0  0  0  0  0  0  0  0  0  0  0
   18.7516   22.0060   22.3096 H   0  0  0  0  0  0  0  0  0  0  0  0
   19.6103   20.7299   23.8237 C   0  0  0  0  0  0  0  0  0  0  0  0
   20.2063   21.6081   24.1037 H   0  0  0  0  0  0  0  0  0  0  0  0
   18.7699   20.6992   24.5300 H   0  0  0  0  0  0  0  0  0  0  0  0
   20.4965   19.4801   24.0287 C   0  0  0  0  0  0  0  0  0  0  0  0
   21.5091   19.7126   23.6690 H   0  0  0  0  0  0  0  0  0  0  0  0
   20.0008   18.2144   23.2939 C   0  0  0  0  0  0  0  0  0  0  0  0
   20.3397   17.3269   23.8444 H   0  0  0  0  0  0  0  0  0  0  0  0
   18.9038   18.1740   23.2949 H   0  0  0  0  0  0  0  0  0  0  0  0
   20.5500   18.1077   21.8503 C   0  0  0  0  0  0  0  0  0  0  0  0
   21.6410   18.2364   21.8634 H   0  0  0  0  0  0  0  0  0  0  0  0
   20.3731   17.0878   21.4823 H   0  0  0  0  0  0  0  0  0  0  0  0
   20.5569   19.2065   25.4232 O   0  0  0  0  0  0  0  0  0  0  0  0
   21.1821   18.4605   25.5377 H   0  0  0  0  0  0  0  0  0  0  0  0
  1  2  1  0  0  0  0
  1  3  1  0  0  0  0
  1  4  1  0  0  0  0
  4  5  1  0  0  0  0
  4  6  1  0  0  0  0
  4  7  1  0  0  0  0
  7  8  1  0  0  0  0
  7  9  1  0  0  0  0
  7 10  1  0  0  0  0
 10 11  1  0  0  0  0
 10 12  1  0  0  0  0
 10 13  1  0  0  0  0
 13 14  1  0  0  0  0
 13 15  1  0  0  0  0
 15 16  1  0  0  0  0
 15 17  1  0  0  0  0
  1 18  1  0  0  0  0
 15 18  1  0  0  0  0
 18 19  1  0  0  0  0
 18 20  1  0  0  0  0
 13 21  1  0  0  0  0
 21 22  1  0  0  0  0
M  END
> <VM2 Rank>
6

> <Conf_Id>
810

> <Probability>
5.22

> <Sum Probability>
38.43

> <Delta G>
0.276

> <G>
47.662

> <E>
20.999

> <-TS>
26.663

> <U+W>
3.114

> <U>
5.411

> <W>
-2.297

> <W(PB)>
-4.300

> <W(SA)>
2.003

> <Valence>
11.909

> <Coulomb>
-8.733

> <VdW>
2.236

> <VdW6>
-8.936

> <VdW12>
11.172

> <Bond>
0.223

> <Angle>
2.457

> <Pdih>
9.228

> <Idih>
0.000

> <Tether>
0.000

$$$$
VeraChem MOL file


 22 22  0  0  0  0  0  0  0  0999 V2000     
   20.4719   19.2905   21.0098 C   0  0  0  0  0  0  0  0  0  0  0  0
   21.4956   19.5826   21.2804 H   0  0  0  0  0  0  0  0  0  0  0  0
   20.5149   18.9710   19.9596 H   0  0  0  0  0  0  0  0  0  0  0  0
   19.5105   20.5006   21.0935 C   0  0  0  0  0  0  0  0  0  0  0  0
   19.7683   21.2083   20.2938 H   0  0  0  0  0  0  0  0  0  0  0  0
   18.4860   20.1673   20.8781 H   0  0  0  0  0  0  0  0  0  0  0  0
   19.5276   21.2646   22.4375 C   0  0  0  0  0  0  0  0  0  0  0  0
   18.7612   22.0504   22.3945 H   0  0  0  0  0  0  0  0  0  0  0  0
   20.4873   21.7878   22.5475 H   0  0  0  0  0  0  0  0  0  0  0  0
   19.2700   20.3911   23.6897 C   0  0  0  0  0  0  0  0  0  0  0  0
   19.0781   21.0679   24.5327 H   0  0  0  0  0  0  0  0  0  0  0  0
   18.3579   19.7935   23.5640 H   0  0  0  0  0  0  0  0  0  0  0  0
   20.4692   19.4816   24.0395 C   0  0  0  0  0  0  0  0  0  0  0  0
   21.3931   20.0060   23.7563 H   0  0  0  0  0  0  0  0  0  0  0  0
   20.4577   18.1053   23.3360 C   0  0  0  0  0  0  0  0  0  0  0  0
   21.4740   17.6947   23.3949 H   0  0  0  0  0  0  0  0  0  0  0  0
   19.8204   17.4130   23.9024 H   0  0  0  0  0  0  0  0  0  0  0  0
   19.9984   18.0860   21.8566 C   0  0  0  0  0  0  0  0  0  0  0  0
   20.3699   17.1594   21.3979 H   0  0  0  0  0  0  0  0  0  0  0  0
   18.9030   18.0169   21.8128 H   0  0  0  0  0  0  0  0  0  0  0  0
   20.4807   19.2584   25.4443 O   0  0  0  0  0  0  0  0  0  0  0  0
   20.5647   20.1377   25.8691 H   0  0  0  0  0  0  0  0  0  0  0  0
  1  2  1  0  0  0  0
  1  3  1  0  0  0  0
  1  4  1  0  0  0  0
  4  5  1  0  0  0  0
  4  6  1  0  0  0  0
  4  7  1  0  0  0  0
  7  8  1  0  0  0  0
  7  9  1  0  0  0  0
  7 10  1  0  0  0  0
 10 11  1  0  0  0  0
 10 12  1  0  0  0  0
 10 13  1  0  0  0  0
 13 14  1  0  0  0  0
 13 15  1  0  0  0  0
 15 16  1  0  0  0  0
 15 17  1  0  0  0  0
  1 18  1  0  0  0  0
 15 18  1  0  0  0  0
 18 19  1  0  0  0  0
 18 20  1  0  0  0  0
 13 21  1  0  0  0  0
 21 22  1  0  0  0  0
M  END
> <VM2 Rank>
7

> <Conf_Id>
530

> <Probability>
5.07

> <Sum Probability>
43.50

> <Delta G>
0.293

> <G>
47.680

> <E>
21.017

> <-TS>
26.663

> <U+W>
3.132

> <U>
5.411

> <W>
-2.279

> <W(PB)>
-4.300

> <W(SA)>
2.021

> <Valence>
11.909

> <Coulomb>
-8.733

> <VdW>
2.236

> <VdW6>
-8.936

> <VdW12>
11.172

> <Bond>
0.223

> <Angle>
2.458

> <Pdih>
9.228

> <Idih>
0.000

> <Tether>
0.000

$$$$
VeraChem MOL file


 22 22  0  0  0  0  0  0  0  0999 V2000     
   19.6894   19.1020   20.9967 C   0  0  0  0  0  0  0  0  0  0  0  0
   19.8183   18.8752   19.9295 H   0  0  0  0  0  0  0  0  0  0  0  0
   18.6301   18.9171   21.2209 H   0  0  0  0  0  0  0  0  0  0  0  0
   20.0473   20.5907   21.2161 C   0  0  0  0  0  0  0  0  0  0  0  0
   21.1369   20.6950   21.3091 H   0  0  0  0  0  0  0  0  0  0  0  0
   19.7745   21.1582   20.3158 H   0  0  0  0  0  0  0  0  0  0  0  0
   19.3556   21.2595   22.4288 C   0  0  0  0  0  0  0  0  0  0  0  0
   18.3514   21.5897   22.1297 H   0  0  0  0  0  0  0  0  0  0  0  0
   19.9092   22.1755   22.6768 H   0  0  0  0  0  0  0  0  0  0  0  0
   19.2175   20.3916   23.7038 C   0  0  0  0  0  0  0  0  0  0  0  0
   19.0207   21.0640   24.5492 H   0  0  0  0  0  0  0  0  0  0  0  0
   18.3239   19.7601   23.6165 H   0  0  0  0  0  0  0  0  0  0  0  0
   20.4390   19.4988   24.0191 C   0  0  0  0  0  0  0  0  0  0  0  0
   21.3613   20.0113   23.7098 H   0  0  0  0  0  0  0  0  0  0  0  0
   20.3571   18.1210   23.3238 C   0  0  0  0  0  0  0  0  0  0  0  0
   21.1008   17.4539   23.7795 H   0  0  0  0  0  0  0  0  0  0  0  0
   19.3791   17.6680   23.5318 H   0  0  0  0  0  0  0  0  0  0  0  0
   20.5997   18.1386   21.7956 C   0  0  0  0  0  0  0  0  0  0  0  0
   21.6522   18.3830   21.5973 H   0  0  0  0  0  0  0  0  0  0  0  0
   20.4521   17.1193   21.4133 H   0  0  0  0  0  0  0  0  0  0  0  0
   20.4803   19.2758   25.4231 O   0  0  0  0  0  0  0  0  0  0  0  0
   20.5894   20.1538   25.8448 H   0  0  0  0  0  0  0  0  0  0  0  0
  1  2  1  0  0  0  0
  1  3  1  0  0  0  0
  1  4  1  0  0  0  0
  4  5  1  0  0  0  0
  4  6  1  0  0  0  0
  4  7  1  0  0  0  0
  7  8  1  0  0  0  0
  7  9  1  0  0  0  0
  7 10  1  0  0  0  0
 10 11  1  0  0  0  0
 10 12  1  0  0  0  0
 10 13  1  0  0  0  0
 13 14  1  0  0  0  0
 13 15  1  0  0  0  0
 15 16  1  0  0  0  0
 15 17  1  0  0  0  0
  1 18  1  0  0  0  0
 15 18  1  0  0  0  0
 18 19  1  0  0  0  0
 18 20  1  0  0  0  0
 13 21  1  0  0  0  0
 21 22  1  0  0  0  0
M  END
> <VM2 Rank>
8

> <Conf_Id>
756

> <Probability>
4.99

> <Sum Probability>
48.49

> <Delta G>
0.302

> <G>
47.689

> <E>
21.017

> <-TS>
26.672

> <U+W>
3.132

> <U>
5.406

> <W>
-2.274

> <W(PB)>
-4.290

> <W(SA)>
2.016

> <Valence>
12.011

> <Coulomb>
-8.863

> <VdW>
2.258

> <VdW6>
-8.944

> <VdW12>
11.203

> <Bond>
0.224

> <Angle>
2.419

> <Pdih>
9.368

> <Idih>
0.000

> <Tether>
0.000

$$$$
