VeraChem MOL file


 26 25  0  0  0  0  0  0  0  0999 V2000     
   19.9052   19.3107   18.8162 C   0  0  0  0  0  0  0  0  0  0  0  0
   20.2945   20.3369   18.7943 H   0  0  0  0  0  0  0  0  0  0  0  0
   20.2787   18.7895   17.9252 H   0  0  0  0  0  0  0  0  0  0  0  0
   18.8108   19.3585   18.7447 H   0  0  0  0  0  0  0  0  0  0  0  0
   20.3457   18.5776   20.1010 C   0  0  0  0  0  0  0  0  0  0  0  0
   21.4427   18.5157   20.1275 H   0  0  0  0  0  0  0  0  0  0  0  0
   19.9704   17.5449   20.0784 H   0  0  0  0  0  0  0  0  0  0  0  0
   19.8327   19.2912   21.3714 C   0  0  0  0  0  0  0  0  0  0  0  0
   20.2083   20.3237   21.3883 H   0  0  0  0  0  0  0  0  0  0  0  0
   18.7360   19.3526   21.3392 H   0  0  0  0  0  0  0  0  0  0  0  0
   20.2719   18.5602   22.6602 C   0  0  0  0  0  0  0  0  0  0  0  0
   21.3686   18.4989   22.6913 H   0  0  0  0  0  0  0  0  0  0  0  0
   19.8962   17.5277   22.6422 H   0  0  0  0  0  0  0  0  0  0  0  0
   19.7583   19.2745   23.9308 C   0  0  0  0  0  0  0  0  0  0  0  0
   20.1340   20.3071   23.9492 H   0  0  0  0  0  0  0  0  0  0  0  0
   18.6614   19.3359   23.9000 H   0  0  0  0  0  0  0  0  0  0  0  0
   20.1968   18.5443   25.2193 C   0  0  0  0  0  0  0  0  0  0  0  0
   21.2928   18.4855   25.2564 H   0  0  0  0  0  0  0  0  0  0  0  0
   19.8188   17.5133   25.2071 H   0  0  0  0  0  0  0  0  0  0  0  0
   19.6802   19.2637   26.4777 C   0  0  0  0  0  0  0  0  0  0  0  0
   20.0676   20.2859   26.5026 H   0  0  0  0  0  0  0  0  0  0  0  0
   18.5881   19.3102   26.4531 H   0  0  0  0  0  0  0  0  0  0  0  0
   20.0901   18.5768   27.7644 N   0  3  0  0  0  0  0  0  0  0  0  0
   19.7359   19.0720   28.5901 H   0  0  0  0  0  0  0  0  0  0  0  0
   21.1095   18.5250   27.8622 H   0  0  0  0  0  0  0  0  0  0  0  0
   19.7328   17.6172   27.8161 H   0  0  0  0  0  0  0  0  0  0  0  0
  1  2  1  0  0  0  0
  1  3  1  0  0  0  0
  1  4  1  0  0  0  0
  1  5  1  0  0  0  0
  5  6  1  0  0  0  0
  5  7  1  0  0  0  0
  5  8  1  0  0  0  0
  8  9  1  0  0  0  0
  8 10  1  0  0  0  0
  8 11  1  0  0  0  0
 11 12  1  0  0  0  0
 11 13  1  0  0  0  0
 11 14  1  0  0  0  0
 14 15  1  0  0  0  0
 14 16  1  0  0  0  0
 14 17  1  0  0  0  0
 17 18  1  0  0  0  0
 17 19  1  0  0  0  0
 17 20  1  0  0  0  0
 20 21  1  0  0  0  0
 20 22  1  0  0  0  0
 20 23  1  0  0  0  0
 23 24  1  0  0  0  0
 23 25  1  0  0  0  0
 23 26  1  0  0  0  0
M  END
> <VM2 Rank>
1

> <Conf_Id>
316

> <Probability>
7.45

> <Sum Probability>
7.45

> <Delta G>
0.000

> <G>
48.261

> <E>
15.909

> <-TS>
32.352

> <U+W>
-5.553

> <U>
47.192

> <W>
-52.744

> <W(PB)>
-55.135

> <W(SA)>
2.391

> <Valence>
2.156

> <Coulomb>
44.449

> <VdW>
0.587

> <VdW6>
-5.761

> <VdW12>
6.348

> <Bond>
0.129

> <Angle>
0.393

> <Pdih>
1.634

> <Idih>
0.000

> <Tether>
0.000

$$$$
VeraChem MOL file


 26 25  0  0  0  0  0  0  0  0999 V2000     
   20.1408   19.6499   19.0008 C   0  0  0  0  0  0  0  0  0  0  0  0
   19.1347   20.0853   18.9420 H   0  0  0  0  0  0  0  0  0  0  0  0
   20.8621   20.4696   19.1149 H   0  0  0  0  0  0  0  0  0  0  0  0
   20.3477   19.1494   18.0460 H   0  0  0  0  0  0  0  0  0  0  0  0
   20.2456   18.6516   20.1733 C   0  0  0  0  0  0  0  0  0  0  0  0
   21.2510   18.2079   20.1855 H   0  0  0  0  0  0  0  0  0  0  0  0
   19.5370   17.8267   20.0140 H   0  0  0  0  0  0  0  0  0  0  0  0
   19.9586   19.3310   21.5306 C   0  0  0  0  0  0  0  0  0  0  0  0
   20.6678   20.1562   21.6841 H   0  0  0  0  0  0  0  0  0  0  0  0
   18.9536   19.7749   21.5127 H   0  0  0  0  0  0  0  0  0  0  0  0
   20.0625   18.3343   22.7072 C   0  0  0  0  0  0  0  0  0  0  0  0
   21.0678   17.8909   22.7245 H   0  0  0  0  0  0  0  0  0  0  0  0
   19.3536   17.5091   22.5519 H   0  0  0  0  0  0  0  0  0  0  0  0
   19.7748   19.0142   24.0649 C   0  0  0  0  0  0  0  0  0  0  0  0
   20.4826   19.8408   24.2124 H   0  0  0  0  0  0  0  0  0  0  0  0
   18.7683   19.4551   24.0484 H   0  0  0  0  0  0  0  0  0  0  0  0
   19.8801   18.0151   25.2413 C   0  0  0  0  0  0  0  0  0  0  0  0
   20.8922   17.5914   25.2861 H   0  0  0  0  0  0  0  0  0  0  0  0
   19.1959   17.1741   25.0665 H   0  0  0  0  0  0  0  0  0  0  0  0
   19.5295   18.6544   26.5987 C   0  0  0  0  0  0  0  0  0  0  0  0
   18.5244   19.0826   26.5554 H   0  0  0  0  0  0  0  0  0  0  0  0
   19.5390   17.8848   27.3753 H   0  0  0  0  0  0  0  0  0  0  0  0
   20.4891   19.7484   27.0243 N   0  3  0  0  0  0  0  0  0  0  0  0
   20.2355   20.1437   27.9363 H   0  0  0  0  0  0  0  0  0  0  0  0
   20.5021   20.5238   26.3545 H   0  0  0  0  0  0  0  0  0  0  0  0
   21.4504   19.4014   27.1054 H   0  0  0  0  0  0  0  0  0  0  0  0
  1  2  1  0  0  0  0
  1  3  1  0  0  0  0
  1  4  1  0  0  0  0
  1  5  1  0  0  0  0
  5  6  1  0  0  0  0
  5  7  1  0  0  0  0
  5  8  1  0  0  0  0
  8  9  1  0  0  0  0
  8 10  1  0  0  0  0
  8 11  1  0  0  0  0
 11 12  1  0  0  0  0
 11 13  1  0  0  0  0
 11 14  1  0  0  0  0
 14 15  1  0  0  0  0
 14 16  1  0  0  0  0
 14 17  1  0  0  0  0
 17 18  1  0  0  0  0
 17 19  1  0  0  0  0
 17 20  1  0  0  0  0
 20 21  1  0  0  0  0
 20 22  1  0  0  0  0
 20 23  1  0  0  0  0
 23 24  1  0  0  0  0
 23 25  1  0  0  0  0
 23 26  1  0  0  0  0
M  END
> <VM2 Rank>
2

> <Conf_Id>
307

> <Probability>
4.91

> <Sum Probability>
12.36

> <Delta G>
0.248

> <G>
48.509

> <E>
16.054

> <-TS>
32.455

> <U+W>
-5.408

> <U>
47.845

> <W>
-53.253

> <W(PB)>
-55.604

> <W(SA)>
2.351

> <Valence>
2.258

> <Coulomb>
44.894

> <VdW>
0.694

> <VdW6>
-6.285

> <VdW12>
6.979

> <Bond>
0.149

> <Angle>
0.434

> <Pdih>
1.675

> <Idih>
0.000

> <Tether>
0.000

$$$$
VeraChem MOL file


 26 25  0  0  0  0  0  0  0  0999 V2000     
   19.4926   19.2224   18.9792 C   0  0  0  0  0  0  0  0  0  0  0  0
   18.4512   18.8792   19.0342 H   0  0  0  0  0  0  0  0  0  0  0  0
   19.4901   20.3199   18.9540 H   0  0  0  0  0  0  0  0  0  0  0  0
   19.9156   18.8645   18.0315 H   0  0  0  0  0  0  0  0  0  0  0  0
   20.3139   18.6968   20.1755 C   0  0  0  0  0  0  0  0  0  0  0  0
   21.3572   19.0276   20.0749 H   0  0  0  0  0  0  0  0  0  0  0  0
   20.3264   17.5980   20.1546 H   0  0  0  0  0  0  0  0  0  0  0  0
   19.7392   19.1863   21.5233 C   0  0  0  0  0  0  0  0  0  0  0  0
   19.7267   20.2849   21.5386 H   0  0  0  0  0  0  0  0  0  0  0  0
   18.6958   18.8552   21.6181 H   0  0  0  0  0  0  0  0  0  0  0  0
   20.5592   18.6620   22.7237 C   0  0  0  0  0  0  0  0  0  0  0  0
   21.6027   18.9927   22.6271 H   0  0  0  0  0  0  0  0  0  0  0  0
   20.5711   17.5633   22.7079 H   0  0  0  0  0  0  0  0  0  0  0  0
   19.9844   19.1524   24.0719 C   0  0  0  0  0  0  0  0  0  0  0  0
   19.9752   20.2512   24.0887 H   0  0  0  0  0  0  0  0  0  0  0  0
   18.9404   18.8234   24.1609 H   0  0  0  0  0  0  0  0  0  0  0  0
   20.8062   18.6259   25.2722 C   0  0  0  0  0  0  0  0  0  0  0  0
   21.8554   18.9283   25.1552 H   0  0  0  0  0  0  0  0  0  0  0  0
   20.7959   17.5278   25.2829 H   0  0  0  0  0  0  0  0  0  0  0  0
   20.2934   19.1583   26.6242 C   0  0  0  0  0  0  0  0  0  0  0  0
   20.9606   18.8225   27.4228 H   0  0  0  0  0  0  0  0  0  0  0  0
   20.2967   20.2516   26.6145 H   0  0  0  0  0  0  0  0  0  0  0  0
   18.8920   18.6950   26.9710 N   0  3  0  0  0  0  0  0  0  0  0  0
   18.8296   17.6728   27.0179 H   0  0  0  0  0  0  0  0  0  0  0  0
   18.2058   19.0092   26.2779 H   0  0  0  0  0  0  0  0  0  0  0  0
   18.5862   19.0558   27.8813 H   0  0  0  0  0  0  0  0  0  0  0  0
  1  2  1  0  0  0  0
  1  3  1  0  0  0  0
  1  4  1  0  0  0  0
  1  5  1  0  0  0  0
  5  6  1  0  0  0  0
  5  7  1  0  0  0  0
  5  8  1  0  0  0  0
  8  9  1  0  0  0  0
  8 10  1  0  0  0  0
  8 11  1  0  0  0  0
 11 12  1  0  0  0  0
 11 13  1  0  0  0  0
 11 14  1  0  0  0  0
 14 15  1  0  0  0  0
 14 16  1  0  0  0  0
 14 17  1  0  0  0  0
 17 18  1  0  0  0  0
 17 19  1  0  0  0  0
 17 20  1  0  0  0  0
 20 21  1  0  0  0  0
 20 22  1  0  0  0  0
 20 23  1  0  0  0  0
 23 24  1  0  0  0  0
 23 25  1  0  0  0  0
 23 26  1  0  0  0  0
M  END
> <VM2 Rank>
3

> <Conf_Id>
1319

> <Probability>
4.78

> <Sum Probability>
17.14

> <Delta G>
0.265

> <G>
48.526

> <E>
16.071

> <-TS>
32.455

> <U+W>
-5.391

> <U>
47.845

> <W>
-53.236

> <W(PB)>
-55.585

> <W(SA)>
2.349

> <Valence>
2.258

> <Coulomb>
44.893

> <VdW>
0.694

> <VdW6>
-6.285

> <VdW12>
6.979

> <Bond>
0.149

> <Angle>
0.434

> <Pdih>
1.675

> <Idih>
0.000

> <Tether>
0.000

$$$$
VeraChem MOL file


 26 25  0  0  0  0  0  0  0  0999 V2000     
   19.7687   18.8533   18.9897 C   0  0  0  0  0  0  0  0  0  0  0  0
   20.5475   19.5749   18.7103 H   0  0  0  0  0  0  0  0  0  0  0  0
   19.7778   18.0439   18.2482 H   0  0  0  0  0  0  0  0  0  0  0  0
   18.7959   19.3581   18.9257 H   0  0  0  0  0  0  0  0  0  0  0  0
   20.0121   18.2958   20.4081 C   0  0  0  0  0  0  0  0  0  0  0  0
   20.9759   17.7680   20.4320 H   0  0  0  0  0  0  0  0  0  0  0  0
   19.2379   17.5527   20.6455 H   0  0  0  0  0  0  0  0  0  0  0  0
   20.0042   19.4157   21.4722 C   0  0  0  0  0  0  0  0  0  0  0  0
   20.7778   20.1571   21.2287 H   0  0  0  0  0  0  0  0  0  0  0  0
   19.0398   19.9415   21.4433 H   0  0  0  0  0  0  0  0  0  0  0  0
   20.2481   18.8614   22.8940 C   0  0  0  0  0  0  0  0  0  0  0  0
   21.2141   18.3383   22.9222 H   0  0  0  0  0  0  0  0  0  0  0  0
   19.4755   18.1167   23.1278 H   0  0  0  0  0  0  0  0  0  0  0  0
   20.2381   19.9853   23.9578 C   0  0  0  0  0  0  0  0  0  0  0  0
   20.9812   20.7474   23.6851 H   0  0  0  0  0  0  0  0  0  0  0  0
   19.2615   20.4892   23.9559 H   0  0  0  0  0  0  0  0  0  0  0  0
   20.5520   19.4747   25.3837 C   0  0  0  0  0  0  0  0  0  0  0  0
   20.6144   20.3343   26.0643 H   0  0  0  0  0  0  0  0  0  0  0  0
   21.5388   18.9930   25.3943 H   0  0  0  0  0  0  0  0  0  0  0  0
   19.4901   18.4916   25.9111 C   0  0  0  0  0  0  0  0  0  0  0  0
   18.5077   18.9714   25.9018 H   0  0  0  0  0  0  0  0  0  0  0  0
   19.4490   17.6099   25.2665 H   0  0  0  0  0  0  0  0  0  0  0  0
   19.7676   18.0213   27.3243 N   0  3  0  0  0  0  0  0  0  0  0  0
   19.7914   18.8016   27.9890 H   0  0  0  0  0  0  0  0  0  0  0  0
   20.6682   17.5365   27.3958 H   0  0  0  0  0  0  0  0  0  0  0  0
   19.0496   17.3682   27.6565 H   0  0  0  0  0  0  0  0  0  0  0  0
  1  2  1  0  0  0  0
  1  3  1  0  0  0  0
  1  4  1  0  0  0  0
  1  5  1  0  0  0  0
  5  6  1  0  0  0  0
  5  7  1  0  0  0  0
  5  8  1  0  0  0  0
  8  9  1  0  0  0  0
  8 10  1  0  0  0  0
  8 11  1  0  0  0  0
 11 12  1  0  0  0  0
 11 13  1  0  0  0  0
 11 14  1  0  0  0  0
 14 15  1  0  0  0  0
 14 16  1  0  0  0  0
 14 17  1  0  0  0  0
 17 18  1  0  0  0  0
 17 19  1  0  0  0  0
 17 20  1  0  0  0  0
 20 21  1  0  0  0  0
 20 22  1  0  0  0  0
 20 23  1  0  0  0  0
 23 24  1  0  0  0  0
 23 25  1  0  0  0  0
 23 26  1  0  0  0  0
M  END
> <VM2 Rank>
4

> <Conf_Id>
1012

> <Probability>
3.39

> <Sum Probability>
20.53

> <Delta G>
0.469

> <G>
48.731

> <E>
16.280

> <-TS>
32.451

> <U+W>
-5.182

> <U>
48.002

> <W>
-53.184

> <W(PB)>
-55.534

> <W(SA)>
2.350

> <Valence>
2.459

> <Coulomb>
44.901

> <VdW>
0.643

> <VdW6>
-6.362

> <VdW12>
7.005

> <Bond>
0.151

> <Angle>
0.519

> <Pdih>
1.789

> <Idih>
0.000

> <Tether>
0.000

$$$$
VeraChem MOL file


 26 25  0  0  0  0  0  0  0  0999 V2000     
   20.3710   19.2510   19.0099 C   0  0  0  0  0  0  0  0  0  0  0  0
   20.2931   20.3455   18.9761 H   0  0  0  0  0  0  0  0  0  0  0  0
   21.1452   18.9461   18.2939 H   0  0  0  0  0  0  0  0  0  0  0  0
   19.4151   18.8296   18.6724 H   0  0  0  0  0  0  0  0  0  0  0  0
   20.7212   18.7634   20.4317 C   0  0  0  0  0  0  0  0  0  0  0  0
   21.6969   19.1736   20.7277 H   0  0  0  0  0  0  0  0  0  0  0  0
   20.8257   17.6693   20.4265 H   0  0  0  0  0  0  0  0  0  0  0  0
   19.6464   19.1797   21.4603 C   0  0  0  0  0  0  0  0  0  0  0  0
   19.5440   20.2738   21.4604 H   0  0  0  0  0  0  0  0  0  0  0  0
   18.6728   18.7695   21.1584 H   0  0  0  0  0  0  0  0  0  0  0  0
   19.9935   18.6931   22.8854 C   0  0  0  0  0  0  0  0  0  0  0  0
   20.9700   19.1017   23.1778 H   0  0  0  0  0  0  0  0  0  0  0  0
   20.0931   17.5988   22.8844 H   0  0  0  0  0  0  0  0  0  0  0  0
   18.9156   19.1127   23.9136 C   0  0  0  0  0  0  0  0  0  0  0  0
   18.8363   20.2084   23.9416 H   0  0  0  0  0  0  0  0  0  0  0  0
   17.9365   18.7388   23.5834 H   0  0  0  0  0  0  0  0  0  0  0  0
   19.1952   18.5794   25.3384 C   0  0  0  0  0  0  0  0  0  0  0  0
   19.2500   17.4828   25.3179 H   0  0  0  0  0  0  0  0  0  0  0  0
   18.3494   18.8398   25.9886 H   0  0  0  0  0  0  0  0  0  0  0  0
   20.4904   19.1515   25.9445 C   0  0  0  0  0  0  0  0  0  0  0  0
   21.3465   18.8615   25.3300 H   0  0  0  0  0  0  0  0  0  0  0  0
   20.4356   20.2433   25.9660 H   0  0  0  0  0  0  0  0  0  0  0  0
   20.7477   18.6682   27.3572 N   0  3  0  0  0  0  0  0  0  0  0  0
   20.8363   17.6477   27.4018 H   0  0  0  0  0  0  0  0  0  0  0  0
   19.9906   18.9335   27.9956 H   0  0  0  0  0  0  0  0  0  0  0  0
   21.6139   19.0603   27.7423 H   0  0  0  0  0  0  0  0  0  0  0  0
  1  2  1  0  0  0  0
  1  3  1  0  0  0  0
  1  4  1  0  0  0  0
  1  5  1  0  0  0  0
  5  6  1  0  0  0  0
  5  7  1  0  0  0  0
  5  8  1  0  0  0  0
  8  9  1  0  0  0  0
  8 10  1  0  0  0  0
  8 11  1  0  0  0  0
 11 12  1  0  0  0  0
 11 13  1  0  0  0  0
 11 14  1  0  0  0  0
 14 15  1  0  0  0  0
 14 16  1  0  0  0  0
 14 17  1  0  0  0  0
 17 18  1  0  0  0  0
 17 19  1  0  0  0  0
 17 20  1  0  0  0  0
 20 21  1  0  0  0  0
 20 22  1  0  0  0  0
 20 23  1  0  0  0  0
 23 24  1  0  0  0  0
 23 25  1  0  0  0  0
 23 26  1  0  0  0  0
M  END
> <VM2 Rank>
5

> <Conf_Id>
904

> <Probability>
3.37

> <Sum Probability>
23.90

> <Delta G>
0.473

> <G>
48.734

> <E>
16.283

> <-TS>
32.451

> <U+W>
-5.179

> <U>
48.002

> <W>
-53.180

> <W(PB)>
-55.522

> <W(SA)>
2.341

> <Valence>
2.459

> <Coulomb>
44.900

> <VdW>
0.643

> <VdW6>
-6.362

> <VdW12>
7.005

> <Bond>
0.151

> <Angle>
0.519

> <Pdih>
1.789

> <Idih>
0.000

> <Tether>
0.000

$$$$
VeraChem MOL file


 26 25  0  0  0  0  0  0  0  0999 V2000     
   19.4450   18.1620   19.5243 C   0  0  0  0  0  0  0  0  0  0  0  0
   19.4108   17.2841   20.1812 H   0  0  0  0  0  0  0  0  0  0  0  0
   18.4490   18.6234   19.5137 H   0  0  0  0  0  0  0  0  0  0  0  0
   19.6605   17.8056   18.5087 H   0  0  0  0  0  0  0  0  0  0  0  0
   20.5209   19.1727   19.9823 C   0  0  0  0  0  0  0  0  0  0  0  0
   20.6011   19.9696   19.2297 H   0  0  0  0  0  0  0  0  0  0  0  0
   21.5023   18.6792   20.0130 H   0  0  0  0  0  0  0  0  0  0  0  0
   20.2153   19.8164   21.3563 C   0  0  0  0  0  0  0  0  0  0  0  0
   20.9649   20.5961   21.5502 H   0  0  0  0  0  0  0  0  0  0  0  0
   19.2429   20.3263   21.3142 H   0  0  0  0  0  0  0  0  0  0  0  0
   20.2242   18.8045   22.5271 C   0  0  0  0  0  0  0  0  0  0  0  0
   21.1785   18.2600   22.5339 H   0  0  0  0  0  0  0  0  0  0  0  0
   19.4318   18.0585   22.3822 H   0  0  0  0  0  0  0  0  0  0  0  0
   20.0184   19.5030   23.8904 C   0  0  0  0  0  0  0  0  0  0  0  0
   20.8117   20.2476   24.0459 H   0  0  0  0  0  0  0  0  0  0  0  0
   19.0657   20.0506   23.8823 H   0  0  0  0  0  0  0  0  0  0  0  0
   20.0230   18.4950   25.0607 C   0  0  0  0  0  0  0  0  0  0  0  0
   20.9757   17.9488   25.0748 H   0  0  0  0  0  0  0  0  0  0  0  0
   19.2276   17.7523   24.9124 H   0  0  0  0  0  0  0  0  0  0  0  0
   19.8180   19.2010   26.4126 C   0  0  0  0  0  0  0  0  0  0  0  0
   20.6170   19.9300   26.5721 H   0  0  0  0  0  0  0  0  0  0  0  0
   18.8627   19.7328   26.4090 H   0  0  0  0  0  0  0  0  0  0  0  0
   19.8163   18.2444   27.5875 N   0  3  0  0  0  0  0  0  0  0  0  0
   19.0681   17.5475   27.5120 H   0  0  0  0  0  0  0  0  0  0  0  0
   19.6785   18.7349   28.4779 H   0  0  0  0  0  0  0  0  0  0  0  0
   20.7005   17.7309   27.6636 H   0  0  0  0  0  0  0  0  0  0  0  0
  1  2  1  0  0  0  0
  1  3  1  0  0  0  0
  1  4  1  0  0  0  0
  1  5  1  0  0  0  0
  5  6  1  0  0  0  0
  5  7  1  0  0  0  0
  5  8  1  0  0  0  0
  8  9  1  0  0  0  0
  8 10  1  0  0  0  0
  8 11  1  0  0  0  0
 11 12  1  0  0  0  0
 11 13  1  0  0  0  0
 11 14  1  0  0  0  0
 14 15  1  0  0  0  0
 14 16  1  0  0  0  0
 14 17  1  0  0  0  0
 17 18  1  0  0  0  0
 17 19  1  0  0  0  0
 17 20  1  0  0  0  0
 20 21  1  0  0  0  0
 20 22  1  0  0  0  0
 20 23  1  0  0  0  0
 23 24  1  0  0  0  0
 23 25  1  0  0  0  0
 23 26  1  0  0  0  0
M  END
> <VM2 Rank>
6

> <Conf_Id>
1286

> <Probability>
2.75

> <Sum Probability>
26.65

> <Delta G>
0.593

> <G>
48.855

> <E>
16.392

> <-TS>
32.463

> <U+W>
-5.070

> <U>
47.845

> <W>
-52.915

> <W(PB)>
-55.277

> <W(SA)>
2.362

> <Valence>
2.661

> <Coulomb>
44.462

> <VdW>
0.723

> <VdW6>
-6.379

> <VdW12>
7.102

> <Bond>
0.164

> <Angle>
0.634

> <Pdih>
1.863

> <Idih>
0.000

> <Tether>
0.000

$$$$
VeraChem MOL file


 26 25  0  0  0  0  0  0  0  0999 V2000     
   21.1081   19.2586   19.5799 C   0  0  0  0  0  0  0  0  0  0  0  0
   21.3980   18.9513   18.5667 H   0  0  0  0  0  0  0  0  0  0  0  0
   21.0763   20.3556   19.6017 H   0  0  0  0  0  0  0  0  0  0  0  0
   21.8973   18.9233   20.2642 H   0  0  0  0  0  0  0  0  0  0  0  0
   19.7359   18.6551   19.9560 C   0  0  0  0  0  0  0  0  0  0  0  0
   19.8020   17.5581   19.9562 H   0  0  0  0  0  0  0  0  0  0  0  0
   19.0075   18.9189   19.1765 H   0  0  0  0  0  0  0  0  0  0  0  0
   19.2008   19.1476   21.3224 C   0  0  0  0  0  0  0  0  0  0  0  0
   19.1165   20.2430   21.3100 H   0  0  0  0  0  0  0  0  0  0  0  0
   18.1813   18.7607   21.4573 H   0  0  0  0  0  0  0  0  0  0  0  0
   20.0723   18.7044   22.5220 C   0  0  0  0  0  0  0  0  0  0  0  0
   21.0754   19.1425   22.4371 H   0  0  0  0  0  0  0  0  0  0  0  0
   20.1973   17.6130   22.5011 H   0  0  0  0  0  0  0  0  0  0  0  0
   19.4480   19.1269   23.8713 C   0  0  0  0  0  0  0  0  0  0  0  0
   19.3196   20.2182   23.8908 H   0  0  0  0  0  0  0  0  0  0  0  0
   18.4454   18.6871   23.9668 H   0  0  0  0  0  0  0  0  0  0  0  0
   20.3176   18.6893   25.0705 C   0  0  0  0  0  0  0  0  0  0  0  0
   21.3190   19.1316   24.9823 H   0  0  0  0  0  0  0  0  0  0  0  0
   20.4445   17.5986   25.0570 H   0  0  0  0  0  0  0  0  0  0  0  0
   19.6868   19.1145   26.4082 C   0  0  0  0  0  0  0  0  0  0  0  0
   19.5737   20.2017   26.4329 H   0  0  0  0  0  0  0  0  0  0  0  0
   18.6960   18.6631   26.5079 H   0  0  0  0  0  0  0  0  0  0  0  0
   20.5114   18.7027   27.6107 N   0  3  0  0  0  0  0  0  0  0  0  0
   21.4489   19.1174   27.5915 H   0  0  0  0  0  0  0  0  0  0  0  0
   20.6322   17.6857   27.6612 H   0  0  0  0  0  0  0  0  0  0  0  0
   20.0736   18.9953   28.4911 H   0  0  0  0  0  0  0  0  0  0  0  0
  1  2  1  0  0  0  0
  1  3  1  0  0  0  0
  1  4  1  0  0  0  0
  1  5  1  0  0  0  0
  5  6  1  0  0  0  0
  5  7  1  0  0  0  0
  5  8  1  0  0  0  0
  8  9  1  0  0  0  0
  8 10  1  0  0  0  0
  8 11  1  0  0  0  0
 11 12  1  0  0  0  0
 11 13  1  0  0  0  0
 11 14  1  0  0  0  0
 14 15  1  0  0  0  0
 14 16  1  0  0  0  0
 14 17  1  0  0  0  0
 17 18  1  0  0  0  0
 17 19  1  0  0  0  0
 17 20  1  0  0  0  0
 20 21  1  0  0  0  0
 20 22  1  0  0  0  0
 20 23  1  0  0  0  0
 23 24  1  0  0  0  0
 23 25  1  0  0  0  0
 23 26  1  0  0  0  0
M  END
> <VM2 Rank>
7

> <Conf_Id>
1287

> <Probability>
2.58

> <Sum Probability>
29.23

> <Delta G>
0.633

> <G>
48.894

> <E>
16.431

> <-TS>
32.463

> <U+W>
-5.031

> <U>
47.845

> <W>
-52.876

> <W(PB)>
-55.227

> <W(SA)>
2.352

> <Valence>
2.661

> <Coulomb>
44.462

> <VdW>
0.723

> <VdW6>
-6.379

> <VdW12>
7.102

> <Bond>
0.164

> <Angle>
0.634

> <Pdih>
1.863

> <Idih>
0.000

> <Tether>
0.000

$$$$
VeraChem MOL file


 26 25  0  0  0  0  0  0  0  0999 V2000     
   20.1861   19.7828   19.1892 C   0  0  0  0  0  0  0  0  0  0  0  0
   20.2153   18.9015   18.5353 H   0  0  0  0  0  0  0  0  0  0  0  0
   19.1864   20.2305   19.1153 H   0  0  0  0  0  0  0  0  0  0  0  0
   20.9111   20.5117   18.8044 H   0  0  0  0  0  0  0  0  0  0  0  0
   20.5170   19.4032   20.6482 C   0  0  0  0  0  0  0  0  0  0  0  0
   20.5183   20.3141   21.2613 H   0  0  0  0  0  0  0  0  0  0  0  0
   21.5326   18.9860   20.6945 H   0  0  0  0  0  0  0  0  0  0  0  0
   19.5051   18.3791   21.2143 C   0  0  0  0  0  0  0  0  0  0  0  0
   18.4972   18.8167   21.2168 H   0  0  0  0  0  0  0  0  0  0  0  0
   19.4621   17.5112   20.5417 H   0  0  0  0  0  0  0  0  0  0  0  0
   19.8579   17.8796   22.6369 C   0  0  0  0  0  0  0  0  0  0  0  0
   20.8597   17.4282   22.6300 H   0  0  0  0  0  0  0  0  0  0  0  0
   19.1592   17.0752   22.9056 H   0  0  0  0  0  0  0  0  0  0  0  0
   19.7906   18.9868   23.7163 C   0  0  0  0  0  0  0  0  0  0  0  0
   20.5374   19.7634   23.5051 H   0  0  0  0  0  0  0  0  0  0  0  0
   18.8056   19.4729   23.6835 H   0  0  0  0  0  0  0  0  0  0  0  0
   20.0384   18.4225   25.1326 C   0  0  0  0  0  0  0  0  0  0  0  0
   21.0227   17.9367   25.1699 H   0  0  0  0  0  0  0  0  0  0  0  0
   19.2897   17.6521   25.3608 H   0  0  0  0  0  0  0  0  0  0  0  0
   19.9736   19.5298   26.1993 C   0  0  0  0  0  0  0  0  0  0  0  0
   20.7287   20.2912   25.9859 H   0  0  0  0  0  0  0  0  0  0  0  0
   18.9894   20.0055   26.1767 H   0  0  0  0  0  0  0  0  0  0  0  0
   20.2123   19.0153   27.6042 N   0  3  0  0  0  0  0  0  0  0  0  0
   20.1647   19.7686   28.2989 H   0  0  0  0  0  0  0  0  0  0  0  0
   21.1352   18.5790   27.6998 H   0  0  0  0  0  0  0  0  0  0  0  0
   19.5168   18.3132   27.8774 H   0  0  0  0  0  0  0  0  0  0  0  0
  1  2  1  0  0  0  0
  1  3  1  0  0  0  0
  1  4  1  0  0  0  0
  1  5  1  0  0  0  0
  5  6  1  0  0  0  0
  5  7  1  0  0  0  0
  5  8  1  0  0  0  0
  8  9  1  0  0  0  0
  8 10  1  0  0  0  0
  8 11  1  0  0  0  0
 11 12  1  0  0  0  0
 11 13  1  0  0  0  0
 11 14  1  0  0  0  0
 14 15  1  0  0  0  0
 14 16  1  0  0  0  0
 14 17  1  0  0  0  0
 17 18  1  0  0  0  0
 17 19  1  0  0  0  0
 17 20  1  0  0  0  0
 20 21  1  0  0  0  0
 20 22  1  0  0  0  0
 20 23  1  0  0  0  0
 23 24  1  0  0  0  0
 23 25  1  0  0  0  0
 23 26  1  0  0  0  0
M  END
> <VM2 Rank>
8

> <Conf_Id>
1256

> <Probability>
2.45

> <Sum Probability>
31.68

> <Delta G>
0.663

> <G>
48.924

> <E>
16.474

> <-TS>
32.451

> <U+W>
-4.988

> <U>
48.035

> <W>
-53.023

> <W(PB)>
-55.380

> <W(SA)>
2.357

> <Valence>
2.701

> <Coulomb>
44.622

> <VdW>
0.712

> <VdW6>
-6.418

> <VdW12>
7.129

> <Bond>
0.168

> <Angle>
0.659

> <Pdih>
1.875

> <Idih>
0.000

> <Tether>
0.000

$$$$
