VeraChem MOL file


 26 25  0  0  0  0  0  0  0  0999 V2000     
   19.9837   18.6238   26.4861 N   0  3  0  0  0  0  0  0  0  0  0  0
   20.8629   18.0855   26.5333 H   0  0  0  0  0  0  0  0  0  0  0  0
   19.2305   17.9186   26.4753 H   0  0  0  0  0  0  0  0  0  0  0  0
   19.9443   19.4507   25.2166 C   0  0  0  0  0  0  0  0  0  0  0  0
   20.7598   20.1768   25.2639 H   0  0  0  0  0  0  0  0  0  0  0  0
   18.9976   19.9967   25.2014 H   0  0  0  0  0  0  0  0  0  0  0  0
   20.0759   18.6066   23.9359 C   0  0  0  0  0  0  0  0  0  0  0  0
   21.0206   18.0471   23.9630 H   0  0  0  0  0  0  0  0  0  0  0  0
   19.2643   17.8676   23.9008 H   0  0  0  0  0  0  0  0  0  0  0  0
   20.0306   19.4900   22.6695 C   0  0  0  0  0  0  0  0  0  0  0  0
   20.8408   20.2314   22.7110 H   0  0  0  0  0  0  0  0  0  0  0  0
   19.0865   20.0524   22.6490 H   0  0  0  0  0  0  0  0  0  0  0  0
   20.1618   18.6528   21.3767 C   0  0  0  0  0  0  0  0  0  0  0  0
   21.1057   18.0906   21.3970 H   0  0  0  0  0  0  0  0  0  0  0  0
   19.3517   17.9115   21.3349 H   0  0  0  0  0  0  0  0  0  0  0  0
   20.1163   19.5367   20.1103 C   0  0  0  0  0  0  0  0  0  0  0  0
   20.9264   20.2786   20.1461 H   0  0  0  0  0  0  0  0  0  0  0  0
   19.1726   20.0995   20.0840 H   0  0  0  0  0  0  0  0  0  0  0  0
   20.2476   18.6974   18.8214 C   0  0  0  0  0  0  0  0  0  0  0  0
   20.2132   19.3421   17.9337 H   0  0  0  0  0  0  0  0  0  0  0  0
   19.4308   17.9684   18.7399 H   0  0  0  0  0  0  0  0  0  0  0  0
   21.1984   18.1489   18.8025 H   0  0  0  0  0  0  0  0  0  0  0  0
   19.8478   19.5320   27.7005 C   0  0  0  0  0  0  0  0  0  0  0  0
   18.8963   20.0654   27.6453 H   0  0  0  0  0  0  0  0  0  0  0  0
   19.8778   18.9241   28.6075 H   0  0  0  0  0  0  0  0  0  0  0  0
   20.6732   20.2472   27.7083 H   0  0  0  0  0  0  0  0  0  0  0  0
  1  2  1  0  0  0  0
  1  3  1  0  0  0  0
  1  4  1  0  0  0  0
  4  5  1  0  0  0  0
  4  6  1  0  0  0  0
  4  7  1  0  0  0  0
  7  8  1  0  0  0  0
  7  9  1  0  0  0  0
  7 10  1  0  0  0  0
 10 11  1  0  0  0  0
 10 12  1  0  0  0  0
 10 13  1  0  0  0  0
 13 14  1  0  0  0  0
 13 15  1  0  0  0  0
 13 16  1  0  0  0  0
 16 17  1  0  0  0  0
 16 18  1  0  0  0  0
 16 19  1  0  0  0  0
 19 20  1  0  0  0  0
 19 21  1  0  0  0  0
 19 22  1  0  0  0  0
  1 23  1  0  0  0  0
 23 24  1  0  0  0  0
 23 25  1  0  0  0  0
 23 26  1  0  0  0  0
M  END
> <VM2 Rank>
1

> <Conf_Id>
11

> <Probability>
6.71

> <Sum Probability>
6.71

> <Delta G>
0.000

> <G>
75.467

> <E>
43.304

> <-TS>
32.163

> <U+W>
21.842

> <U>
70.357

> <W>
-48.512

> <W(PB)>
-50.853

> <W(SA)>
2.341

> <Valence>
1.714

> <Coulomb>
68.480

> <VdW>
0.163

> <VdW6>
-5.268

> <VdW12>
5.431

> <Bond>
0.126

> <Angle>
0.350

> <Pdih>
1.238

> <Idih>
0.000

> <Tether>
0.000

$$$$
VeraChem MOL file


 26 25  0  0  0  0  0  0  0  0999 V2000     
   20.3923   19.0036   26.6222 N   0  3  0  0  0  0  0  0  0  0  0  0
   20.8630   19.5628   27.3514 H   0  0  0  0  0  0  0  0  0  0  0  0
   20.8763   18.0924   26.6321 H   0  0  0  0  0  0  0  0  0  0  0  0
   20.5688   19.6777   25.2718 C   0  0  0  0  0  0  0  0  0  0  0  0
   21.6301   19.9158   25.1642 H   0  0  0  0  0  0  0  0  0  0  0  0
   20.0107   20.6172   25.2891 H   0  0  0  0  0  0  0  0  0  0  0  0
   20.1224   18.8245   24.0671 C   0  0  0  0  0  0  0  0  0  0  0  0
   20.6517   17.8626   24.0861 H   0  0  0  0  0  0  0  0  0  0  0  0
   19.0500   18.6037   24.1455 H   0  0  0  0  0  0  0  0  0  0  0  0
   20.4032   19.5463   22.7305 C   0  0  0  0  0  0  0  0  0  0  0  0
   21.4765   19.7691   22.6529 H   0  0  0  0  0  0  0  0  0  0  0  0
   19.8770   20.5111   22.7181 H   0  0  0  0  0  0  0  0  0  0  0  0
   19.9615   18.7009   21.5141 C   0  0  0  0  0  0  0  0  0  0  0  0
   20.4874   17.7361   21.5265 H   0  0  0  0  0  0  0  0  0  0  0  0
   18.8882   18.4783   21.5912 H   0  0  0  0  0  0  0  0  0  0  0  0
   20.2426   19.4231   20.1774 C   0  0  0  0  0  0  0  0  0  0  0  0
   21.3156   19.6458   20.0942 H   0  0  0  0  0  0  0  0  0  0  0  0
   19.7166   20.3880   20.1590 H   0  0  0  0  0  0  0  0  0  0  0  0
   19.8002   18.5760   18.9651 C   0  0  0  0  0  0  0  0  0  0  0  0
   18.7234   18.3657   19.0021 H   0  0  0  0  0  0  0  0  0  0  0  0
   20.3349   17.6176   18.9368 H   0  0  0  0  0  0  0  0  0  0  0  0
   20.0078   19.1051   18.0260 H   0  0  0  0  0  0  0  0  0  0  0  0
   18.9170   18.8380   26.9689 C   0  0  0  0  0  0  0  0  0  0  0  0
   18.4362   19.8186   26.9690 H   0  0  0  0  0  0  0  0  0  0  0  0
   18.4415   18.1919   26.2283 H   0  0  0  0  0  0  0  0  0  0  0  0
   18.8315   18.3854   27.9593 H   0  0  0  0  0  0  0  0  0  0  0  0
  1  2  1  0  0  0  0
  1  3  1  0  0  0  0
  1  4  1  0  0  0  0
  4  5  1  0  0  0  0
  4  6  1  0  0  0  0
  4  7  1  0  0  0  0
  7  8  1  0  0  0  0
  7  9  1  0  0  0  0
  7 10  1  0  0  0  0
 10 11  1  0  0  0  0
 10 12  1  0  0  0  0
 10 13  1  0  0  0  0
 13 14  1  0  0  0  0
 13 15  1  0  0  0  0
 13 16  1  0  0  0  0
 16 17  1  0  0  0  0
 16 18  1  0  0  0  0
 16 19  1  0  0  0  0
 19 20  1  0  0  0  0
 19 21  1  0  0  0  0
 19 22  1  0  0  0  0
  1 23  1  0  0  0  0
 23 24  1  0  0  0  0
 23 25  1  0  0  0  0
 23 26  1  0  0  0  0
M  END
> <VM2 Rank>
2

> <Conf_Id>
1250

> <Probability>
4.12

> <Sum Probability>
10.83

> <Delta G>
0.290

> <G>
75.757

> <E>
43.424

> <-TS>
32.333

> <U+W>
21.962

> <U>
70.745

> <W>
-48.783

> <W(PB)>
-51.112

> <W(SA)>
2.329

> <Valence>
1.993

> <Coulomb>
68.323

> <VdW>
0.429

> <VdW6>
-5.973

> <VdW12>
6.402

> <Bond>
0.161

> <Angle>
0.472

> <Pdih>
1.360

> <Idih>
0.000

> <Tether>
0.000

$$$$
VeraChem MOL file


 26 25  0  0  0  0  0  0  0  0999 V2000     
   19.4983   18.9124   26.5906 N   0  3  0  0  0  0  0  0  0  0  0  0
   19.2085   17.9224   26.5732 H   0  0  0  0  0  0  0  0  0  0  0  0
   18.8748   19.3602   27.2811 H   0  0  0  0  0  0  0  0  0  0  0  0
   19.2845   19.5467   25.2263 C   0  0  0  0  0  0  0  0  0  0  0  0
   19.6390   20.5793   25.2758 H   0  0  0  0  0  0  0  0  0  0  0  0
   18.2071   19.5666   25.0431 H   0  0  0  0  0  0  0  0  0  0  0  0
   19.9769   18.8096   24.0619 C   0  0  0  0  0  0  0  0  0  0  0  0
   21.0636   18.8090   24.2168 H   0  0  0  0  0  0  0  0  0  0  0  0
   19.6524   17.7606   24.0507 H   0  0  0  0  0  0  0  0  0  0  0  0
   19.6507   19.4695   22.7038 C   0  0  0  0  0  0  0  0  0  0  0  0
   19.9710   20.5206   22.7215 H   0  0  0  0  0  0  0  0  0  0  0  0
   18.5625   19.4717   22.5497 H   0  0  0  0  0  0  0  0  0  0  0  0
   20.3379   18.7393   21.5274 C   0  0  0  0  0  0  0  0  0  0  0  0
   21.4260   18.7373   21.6812 H   0  0  0  0  0  0  0  0  0  0  0  0
   20.0179   17.6882   21.5099 H   0  0  0  0  0  0  0  0  0  0  0  0
   20.0113   19.3995   20.1692 C   0  0  0  0  0  0  0  0  0  0  0  0
   20.3316   20.4508   20.1809 H   0  0  0  0  0  0  0  0  0  0  0  0
   18.9239   19.4016   20.0094 H   0  0  0  0  0  0  0  0  0  0  0  0
   20.6995   18.6678   18.9970 C   0  0  0  0  0  0  0  0  0  0  0  0
   21.7913   18.6790   19.1109 H   0  0  0  0  0  0  0  0  0  0  0  0
   20.4557   19.1508   18.0419 H   0  0  0  0  0  0  0  0  0  0  0  0
   20.3726   17.6214   18.9382 H   0  0  0  0  0  0  0  0  0  0  0  0
   20.9489   19.0452   27.0407 C   0  0  0  0  0  0  0  0  0  0  0  0
   21.2209   20.1027   27.0674 H   0  0  0  0  0  0  0  0  0  0  0  0
   21.0544   18.6122   28.0380 H   0  0  0  0  0  0  0  0  0  0  0  0
   21.5955   18.5135   26.3398 H   0  0  0  0  0  0  0  0  0  0  0  0
  1  2  1  0  0  0  0
  1  3  1  0  0  0  0
  1  4  1  0  0  0  0
  4  5  1  0  0  0  0
  4  6  1  0  0  0  0
  4  7  1  0  0  0  0
  7  8  1  0  0  0  0
  7  9  1  0  0  0  0
  7 10  1  0  0  0  0
 10 11  1  0  0  0  0
 10 12  1  0  0  0  0
 10 13  1  0  0  0  0
 13 14  1  0  0  0  0
 13 15  1  0  0  0  0
 13 16  1  0  0  0  0
 16 17  1  0  0  0  0
 16 18  1  0  0  0  0
 16 19  1  0  0  0  0
 19 20  1  0  0  0  0
 19 21  1  0  0  0  0
 19 22  1  0  0  0  0
  1 23  1  0  0  0  0
 23 24  1  0  0  0  0
 23 25  1  0  0  0  0
 23 26  1  0  0  0  0
M  END
> <VM2 Rank>
3

> <Conf_Id>
37

> <Probability>
4.08

> <Sum Probability>
14.91

> <Delta G>
0.296

> <G>
75.762

> <E>
43.429

> <-TS>
32.333

> <U+W>
21.967

> <U>
70.745

> <W>
-48.778

> <W(PB)>
-51.115

> <W(SA)>
2.337

> <Valence>
1.993

> <Coulomb>
68.323

> <VdW>
0.429

> <VdW6>
-5.973

> <VdW12>
6.403

> <Bond>
0.161

> <Angle>
0.472

> <Pdih>
1.360

> <Idih>
0.000

> <Tether>
0.000

$$$$
VeraChem MOL file


 26 25  0  0  0  0  0  0  0  0999 V2000     
   19.3272   19.1678   25.9040 N   0  3  0  0  0  0  0  0  0  0  0  0
   18.7833   18.2909   25.9026 H   0  0  0  0  0  0  0  0  0  0  0  0
   18.8263   19.8048   25.2665 H   0  0  0  0  0  0  0  0  0  0  0  0
   20.7304   18.9120   25.3886 C   0  0  0  0  0  0  0  0  0  0  0  0
   21.2216   18.2353   26.0925 H   0  0  0  0  0  0  0  0  0  0  0  0
   21.2707   19.8620   25.3952 H   0  0  0  0  0  0  0  0  0  0  0  0
   20.7760   18.2992   23.9749 C   0  0  0  0  0  0  0  0  0  0  0  0
   21.8202   18.0583   23.7351 H   0  0  0  0  0  0  0  0  0  0  0  0
   20.2264   17.3485   23.9694 H   0  0  0  0  0  0  0  0  0  0  0  0
   20.2076   19.2480   22.8928 C   0  0  0  0  0  0  0  0  0  0  0  0
   20.7440   20.2065   22.9286 H   0  0  0  0  0  0  0  0  0  0  0  0
   19.1519   19.4656   23.1029 H   0  0  0  0  0  0  0  0  0  0  0  0
   20.3294   18.6417   21.4762 C   0  0  0  0  0  0  0  0  0  0  0  0
   21.3846   18.4266   21.2575 H   0  0  0  0  0  0  0  0  0  0  0  0
   19.7959   17.6817   21.4402 H   0  0  0  0  0  0  0  0  0  0  0  0
   19.7620   19.5868   20.3936 C   0  0  0  0  0  0  0  0  0  0  0  0
   20.2940   20.5481   20.4242 H   0  0  0  0  0  0  0  0  0  0  0  0
   18.7054   19.8027   20.6057 H   0  0  0  0  0  0  0  0  0  0  0  0
   19.8861   18.9781   18.9804 C   0  0  0  0  0  0  0  0  0  0  0  0
   19.3349   18.0314   18.9084 H   0  0  0  0  0  0  0  0  0  0  0  0
   20.9358   18.7827   18.7253 H   0  0  0  0  0  0  0  0  0  0  0  0
   19.4782   19.6632   18.2260 H   0  0  0  0  0  0  0  0  0  0  0  0
   19.3893   19.7565   27.3065 C   0  0  0  0  0  0  0  0  0  0  0  0
   18.3733   19.9359   27.6651 H   0  0  0  0  0  0  0  0  0  0  0  0
   19.8953   19.0515   27.9697 H   0  0  0  0  0  0  0  0  0  0  0  0
   19.9417   20.6982   27.2765 H   0  0  0  0  0  0  0  0  0  0  0  0
  1  2  1  0  0  0  0
  1  3  1  0  0  0  0
  1  4  1  0  0  0  0
  4  5  1  0  0  0  0
  4  6  1  0  0  0  0
  4  7  1  0  0  0  0
  7  8  1  0  0  0  0
  7  9  1  0  0  0  0
  7 10  1  0  0  0  0
 10 11  1  0  0  0  0
 10 12  1  0  0  0  0
 10 13  1  0  0  0  0
 13 14  1  0  0  0  0
 13 15  1  0  0  0  0
 13 16  1  0  0  0  0
 16 17  1  0  0  0  0
 16 18  1  0  0  0  0
 16 19  1  0  0  0  0
 19 20  1  0  0  0  0
 19 21  1  0  0  0  0
 19 22  1  0  0  0  0
  1 23  1  0  0  0  0
 23 24  1  0  0  0  0
 23 25  1  0  0  0  0
 23 26  1  0  0  0  0
M  END
> <VM2 Rank>
4

> <Conf_Id>
1284

> <Probability>
3.03

> <Sum Probability>
17.94

> <Delta G>
0.474

> <G>
75.941

> <E>
43.686

> <-TS>
32.255

> <U+W>
22.224

> <U>
71.142

> <W>
-48.918

> <W(PB)>
-51.255

> <W(SA)>
2.337

> <Valence>
1.835

> <Coulomb>
69.101

> <VdW>
0.206

> <VdW6>
-5.849

> <VdW12>
6.055

> <Bond>
0.142

> <Angle>
0.413

> <Pdih>
1.279

> <Idih>
0.000

> <Tether>
0.000

$$$$
VeraChem MOL file


 26 25  0  0  0  0  0  0  0  0999 V2000     
   20.5559   19.2936   25.9475 N   0  3  0  0  0  0  0  0  0  0  0  0
   20.9608   20.0234   25.3420 H   0  0  0  0  0  0  0  0  0  0  0  0
   21.2649   18.5452   25.9906 H   0  0  0  0  0  0  0  0  0  0  0  0
   19.2732   18.7626   25.3370 C   0  0  0  0  0  0  0  0  0  0  0  0
   18.5525   19.5834   25.2990 H   0  0  0  0  0  0  0  0  0  0  0  0
   18.8812   17.9955   26.0097 H   0  0  0  0  0  0  0  0  0  0  0  0
   19.4518   18.1635   23.9280 C   0  0  0  0  0  0  0  0  0  0  0  0
   20.1815   17.3438   23.9678 H   0  0  0  0  0  0  0  0  0  0  0  0
   18.4974   17.7179   23.6174 H   0  0  0  0  0  0  0  0  0  0  0  0
   19.8907   19.2154   22.8816 C   0  0  0  0  0  0  0  0  0  0  0  0
   20.8632   19.6405   23.1634 H   0  0  0  0  0  0  0  0  0  0  0  0
   19.1703   20.0454   22.8730 H   0  0  0  0  0  0  0  0  0  0  0  0
   19.9934   18.6073   21.4643 C   0  0  0  0  0  0  0  0  0  0  0  0
   20.7112   17.7753   21.4725 H   0  0  0  0  0  0  0  0  0  0  0  0
   19.0215   18.1849   21.1738 H   0  0  0  0  0  0  0  0  0  0  0  0
   20.4323   19.6554   20.4174 C   0  0  0  0  0  0  0  0  0  0  0  0
   21.4059   20.0789   20.7013 H   0  0  0  0  0  0  0  0  0  0  0  0
   19.7161   20.4890   20.4039 H   0  0  0  0  0  0  0  0  0  0  0  0
   20.5330   19.0445   19.0033 C   0  0  0  0  0  0  0  0  0  0  0  0
   21.2678   18.2293   18.9767 H   0  0  0  0  0  0  0  0  0  0  0  0
   20.8456   19.8034   18.2744 H   0  0  0  0  0  0  0  0  0  0  0  0
   19.5649   18.6428   18.6768 H   0  0  0  0  0  0  0  0  0  0  0  0
   20.2778   19.8477   27.3379 C   0  0  0  0  0  0  0  0  0  0  0  0
   19.8798   19.0501   27.9692 H   0  0  0  0  0  0  0  0  0  0  0  0
   21.2087   20.2267   27.7654 H   0  0  0  0  0  0  0  0  0  0  0  0
   19.5495   20.6582   27.2625 H   0  0  0  0  0  0  0  0  0  0  0  0
  1  2  1  0  0  0  0
  1  3  1  0  0  0  0
  1  4  1  0  0  0  0
  4  5  1  0  0  0  0
  4  6  1  0  0  0  0
  4  7  1  0  0  0  0
  7  8  1  0  0  0  0
  7  9  1  0  0  0  0
  7 10  1  0  0  0  0
 10 11  1  0  0  0  0
 10 12  1  0  0  0  0
 10 13  1  0  0  0  0
 13 14  1  0  0  0  0
 13 15  1  0  0  0  0
 13 16  1  0  0  0  0
 16 17  1  0  0  0  0
 16 18  1  0  0  0  0
 16 19  1  0  0  0  0
 19 20  1  0  0  0  0
 19 21  1  0  0  0  0
 19 22  1  0  0  0  0
  1 23  1  0  0  0  0
 23 24  1  0  0  0  0
 23 25  1  0  0  0  0
 23 26  1  0  0  0  0
M  END
> <VM2 Rank>
5

> <Conf_Id>
484

> <Probability>
3.01

> <Sum Probability>
20.95

> <Delta G>
0.477

> <G>
75.944

> <E>
43.689

> <-TS>
32.255

> <U+W>
22.227

> <U>
71.142

> <W>
-48.916

> <W(PB)>
-51.253

> <W(SA)>
2.337

> <Valence>
1.835

> <Coulomb>
69.101

> <VdW>
0.206

> <VdW6>
-5.849

> <VdW12>
6.055

> <Bond>
0.142

> <Angle>
0.413

> <Pdih>
1.279

> <Idih>
0.000

> <Tether>
0.000

$$$$
VeraChem MOL file


 26 25  0  0  0  0  0  0  0  0999 V2000     
   19.9281   18.8064   26.2896 N   0  3  0  0  0  0  0  0  0  0  0  0
   20.7994   19.0417   26.7900 H   0  0  0  0  0  0  0  0  0  0  0  0
   19.8670   17.7766   26.3145 H   0  0  0  0  0  0  0  0  0  0  0  0
   20.0012   19.2914   24.8558 C   0  0  0  0  0  0  0  0  0  0  0  0
   20.0755   20.3816   24.8739 H   0  0  0  0  0  0  0  0  0  0  0  0
   19.0647   19.0177   24.3640 H   0  0  0  0  0  0  0  0  0  0  0  0
   21.1920   18.7037   24.0742 C   0  0  0  0  0  0  0  0  0  0  0  0
   22.1234   18.9483   24.6020 H   0  0  0  0  0  0  0  0  0  0  0  0
   21.1183   17.6082   24.0576 H   0  0  0  0  0  0  0  0  0  0  0  0
   21.2799   19.2408   22.6261 C   0  0  0  0  0  0  0  0  0  0  0  0
   22.1973   18.8533   22.1618 H   0  0  0  0  0  0  0  0  0  0  0  0
   21.3809   20.3349   22.6466 H   0  0  0  0  0  0  0  0  0  0  0  0
   20.0627   18.8449   21.7556 C   0  0  0  0  0  0  0  0  0  0  0  0
   19.9447   17.7525   21.7643 H   0  0  0  0  0  0  0  0  0  0  0  0
   19.1429   19.2677   22.1815 H   0  0  0  0  0  0  0  0  0  0  0  0
   20.2163   19.3334   20.2979 C   0  0  0  0  0  0  0  0  0  0  0  0
   21.1299   18.9092   19.8582 H   0  0  0  0  0  0  0  0  0  0  0  0
   20.3356   20.4259   20.2832 H   0  0  0  0  0  0  0  0  0  0  0  0
   19.0011   18.9395   19.4312 C   0  0  0  0  0  0  0  0  0  0  0  0
   19.1289   19.2944   18.4003 H   0  0  0  0  0  0  0  0  0  0  0  0
   18.0755   19.3784   19.8259 H   0  0  0  0  0  0  0  0  0  0  0  0
   18.8758   17.8493   19.3988 H   0  0  0  0  0  0  0  0  0  0  0  0
   18.7268   19.4298   26.9867 C   0  0  0  0  0  0  0  0  0  0  0  0
   18.8302   20.5171   26.9768 H   0  0  0  0  0  0  0  0  0  0  0  0
   17.8152   19.1399   26.4595 H   0  0  0  0  0  0  0  0  0  0  0  0
   18.6859   19.0725   28.0181 H   0  0  0  0  0  0  0  0  0  0  0  0
  1  2  1  0  0  0  0
  1  3  1  0  0  0  0
  1  4  1  0  0  0  0
  4  5  1  0  0  0  0
  4  6  1  0  0  0  0
  4  7  1  0  0  0  0
  7  8  1  0  0  0  0
  7  9  1  0  0  0  0
  7 10  1  0  0  0  0
 10 11  1  0  0  0  0
 10 12  1  0  0  0  0
 10 13  1  0  0  0  0
 13 14  1  0  0  0  0
 13 15  1  0  0  0  0
 13 16  1  0  0  0  0
 16 17  1  0  0  0  0
 16 18  1  0  0  0  0
 16 19  1  0  0  0  0
 19 20  1  0  0  0  0
 19 21  1  0  0  0  0
 19 22  1  0  0  0  0
  1 23  1  0  0  0  0
 23 24  1  0  0  0  0
 23 25  1  0  0  0  0
 23 26  1  0  0  0  0
M  END
> <VM2 Rank>
6

> <Conf_Id>
1013

> <Probability>
2.62

> <Sum Probability>
23.57

> <Delta G>
0.561

> <G>
76.027

> <E>
43.767

> <-TS>
32.260

> <U+W>
22.305

> <U>
71.138

> <W>
-48.832

> <W(PB)>
-51.177

> <W(SA)>
2.344

> <Valence>
2.016

> <Coulomb>
68.932

> <VdW>
0.190

> <VdW6>
-5.902

> <VdW12>
6.091

> <Bond>
0.149

> <Angle>
0.477

> <Pdih>
1.390

> <Idih>
0.000

> <Tether>
0.000

$$$$
VeraChem MOL file


 26 25  0  0  0  0  0  0  0  0999 V2000     
   20.0150   18.8153   26.2927 N   0  3  0  0  0  0  0  0  0  0  0  0
   20.2813   17.8190   26.3293 H   0  0  0  0  0  0  0  0  0  0  0  0
   19.0813   18.8660   26.7290 H   0  0  0  0  0  0  0  0  0  0  0  0
   19.9461   19.2857   24.8538 C   0  0  0  0  0  0  0  0  0  0  0  0
   20.9506   19.2105   24.4308 H   0  0  0  0  0  0  0  0  0  0  0  0
   19.6518   20.3382   24.8588 H   0  0  0  0  0  0  0  0  0  0  0  0
   18.9563   18.4750   23.9950 C   0  0  0  0  0  0  0  0  0  0  0  0
   19.2509   17.4171   23.9915 H   0  0  0  0  0  0  0  0  0  0  0  0
   17.9601   18.5224   24.4546 H   0  0  0  0  0  0  0  0  0  0  0  0
   18.8633   18.9936   22.5405 C   0  0  0  0  0  0  0  0  0  0  0  0
   18.5418   20.0445   22.5461 H   0  0  0  0  0  0  0  0  0  0  0  0
   18.0780   18.4318   22.0159 H   0  0  0  0  0  0  0  0  0  0  0  0
   20.1933   18.8584   21.7603 C   0  0  0  0  0  0  0  0  0  0  0  0
   20.9764   19.4554   22.2464 H   0  0  0  0  0  0  0  0  0  0  0  0
   20.5289   17.8123   21.7851 H   0  0  0  0  0  0  0  0  0  0  0  0
   20.0465   19.3160   20.2919 C   0  0  0  0  0  0  0  0  0  0  0  0
   19.7101   20.3619   20.2611 H   0  0  0  0  0  0  0  0  0  0  0  0
   19.2706   18.7190   19.7924 H   0  0  0  0  0  0  0  0  0  0  0  0
   21.3739   19.1822   19.5152 C   0  0  0  0  0  0  0  0  0  0  0  0
   21.2495   19.5113   18.4754 H   0  0  0  0  0  0  0  0  0  0  0  0
   21.7189   18.1401   19.4995 H   0  0  0  0  0  0  0  0  0  0  0  0
   22.1617   19.7963   19.9706 H   0  0  0  0  0  0  0  0  0  0  0  0
   21.0136   19.6638   27.0677 C   0  0  0  0  0  0  0  0  0  0  0  0
   20.6934   20.7078   27.0427 H   0  0  0  0  0  0  0  0  0  0  0  0
   21.0534   19.3149   28.1020 H   0  0  0  0  0  0  0  0  0  0  0  0
   21.9996   19.5679   26.6079 H   0  0  0  0  0  0  0  0  0  0  0  0
  1  2  1  0  0  0  0
  1  3  1  0  0  0  0
  1  4  1  0  0  0  0
  4  5  1  0  0  0  0
  4  6  1  0  0  0  0
  4  7  1  0  0  0  0
  7  8  1  0  0  0  0
  7  9  1  0  0  0  0
  7 10  1  0  0  0  0
 10 11  1  0  0  0  0
 10 12  1  0  0  0  0
 10 13  1  0  0  0  0
 13 14  1  0  0  0  0
 13 15  1  0  0  0  0
 13 16  1  0  0  0  0
 16 17  1  0  0  0  0
 16 18  1  0  0  0  0
 16 19  1  0  0  0  0
 19 20  1  0  0  0  0
 19 21  1  0  0  0  0
 19 22  1  0  0  0  0
  1 23  1  0  0  0  0
 23 24  1  0  0  0  0
 23 25  1  0  0  0  0
 23 26  1  0  0  0  0
M  END
> <VM2 Rank>
7

> <Conf_Id>
1246

> <Probability>
2.48

> <Sum Probability>
26.05

> <Delta G>
0.592

> <G>
76.059

> <E>
43.799

> <-TS>
32.260

> <U+W>
22.337

> <U>
71.138

> <W>
-48.801

> <W(PB)>
-51.137

> <W(SA)>
2.337

> <Valence>
2.016

> <Coulomb>
68.932

> <VdW>
0.190

> <VdW6>
-5.902

> <VdW12>
6.092

> <Bond>
0.149

> <Angle>
0.477

> <Pdih>
1.390

> <Idih>
0.000

> <Tether>
0.000

$$$$
VeraChem MOL file


 26 25  0  0  0  0  0  0  0  0999 V2000     
   19.5902   19.7661   26.0204 N   0  3  0  0  0  0  0  0  0  0  0  0
   18.9702   19.9965   26.8132 H   0  0  0  0  0  0  0  0  0  0  0  0
   19.4495   20.5281   25.3405 H   0  0  0  0  0  0  0  0  0  0  0  0
   19.1664   18.4380   25.4124 C   0  0  0  0  0  0  0  0  0  0  0  0
   18.0903   18.4919   25.2289 H   0  0  0  0  0  0  0  0  0  0  0  0
   19.3408   17.6612   26.1612 H   0  0  0  0  0  0  0  0  0  0  0  0
   19.8808   18.0566   24.0973 C   0  0  0  0  0  0  0  0  0  0  0  0
   20.9573   17.9411   24.2782 H   0  0  0  0  0  0  0  0  0  0  0  0
   19.5142   17.0717   23.7790 H   0  0  0  0  0  0  0  0  0  0  0  0
   19.6410   19.0831   22.9649 C   0  0  0  0  0  0  0  0  0  0  0  0
   20.0431   20.0620   23.2586 H   0  0  0  0  0  0  0  0  0  0  0  0
   18.5607   19.2138   22.8117 H   0  0  0  0  0  0  0  0  0  0  0  0
   20.3006   18.6403   21.6390 C   0  0  0  0  0  0  0  0  0  0  0  0
   21.3804   18.5063   21.7927 H   0  0  0  0  0  0  0  0  0  0  0  0
   19.8993   17.6630   21.3369 H   0  0  0  0  0  0  0  0  0  0  0  0
   20.0650   19.6653   20.5072 C   0  0  0  0  0  0  0  0  0  0  0  0
   20.4674   20.6443   20.8031 H   0  0  0  0  0  0  0  0  0  0  0  0
   18.9860   19.8014   20.3483 H   0  0  0  0  0  0  0  0  0  0  0  0
   20.7247   19.2195   19.1848 C   0  0  0  0  0  0  0  0  0  0  0  0
   20.5466   19.9595   18.3938 H   0  0  0  0  0  0  0  0  0  0  0  0
   20.3174   18.2584   18.8446 H   0  0  0  0  0  0  0  0  0  0  0  0
   21.8104   19.1079   19.3031 H   0  0  0  0  0  0  0  0  0  0  0  0
   21.0394   19.7211   26.4910 C   0  0  0  0  0  0  0  0  0  0  0  0
   21.6917   19.5399   25.6344 H   0  0  0  0  0  0  0  0  0  0  0  0
   21.2954   20.6779   26.9516 H   0  0  0  0  0  0  0  0  0  0  0  0
   21.1544   18.9176   27.2217 H   0  0  0  0  0  0  0  0  0  0  0  0
  1  2  1  0  0  0  0
  1  3  1  0  0  0  0
  1  4  1  0  0  0  0
  4  5  1  0  0  0  0
  4  6  1  0  0  0  0
  4  7  1  0  0  0  0
  7  8  1  0  0  0  0
  7  9  1  0  0  0  0
  7 10  1  0  0  0  0
 10 11  1  0  0  0  0
 10 12  1  0  0  0  0
 10 13  1  0  0  0  0
 13 14  1  0  0  0  0
 13 15  1  0  0  0  0
 13 16  1  0  0  0  0
 16 17  1  0  0  0  0
 16 18  1  0  0  0  0
 16 19  1  0  0  0  0
 19 20  1  0  0  0  0
 19 21  1  0  0  0  0
 19 22  1  0  0  0  0
  1 23  1  0  0  0  0
 23 24  1  0  0  0  0
 23 25  1  0  0  0  0
 23 26  1  0  0  0  0
M  END
> <VM2 Rank>
8

> <Conf_Id>
1278

> <Probability>
2.48

> <Sum Probability>
28.53

> <Delta G>
0.594

> <G>
76.060

> <E>
43.581

> <-TS>
32.479

> <U+W>
22.119

> <U>
71.479

> <W>
-49.360

> <W(PB)>
-51.654

> <W(SA)>
2.294

> <Valence>
2.085

> <Coulomb>
68.999

> <VdW>
0.395

> <VdW6>
-6.752

> <VdW12>
7.148

> <Bond>
0.184

> <Angle>
0.576

> <Pdih>
1.325

> <Idih>
0.000

> <Tether>
0.000

$$$$
