VeraChem MOL file


 29 28  0  0  0  0  0  0  0  0999 V2000     
   19.5303   19.9313   18.7440 C   0  0  0  0  0  0  0  0  0  0  0  0
   18.5900   20.4919   18.8259 H   0  0  0  0  0  0  0  0  0  0  0  0
   20.3579   20.6524   18.7241 H   0  0  0  0  0  0  0  0  0  0  0  0
   19.5233   19.3998   17.7835 H   0  0  0  0  0  0  0  0  0  0  0  0
   19.6880   18.9385   19.9150 C   0  0  0  0  0  0  0  0  0  0  0  0
   20.6196   18.3695   19.7877 H   0  0  0  0  0  0  0  0  0  0  0  0
   18.8653   18.2102   19.8888 H   0  0  0  0  0  0  0  0  0  0  0  0
   19.7010   19.6615   21.2799 C   0  0  0  0  0  0  0  0  0  0  0  0
   20.5234   20.3899   21.3006 H   0  0  0  0  0  0  0  0  0  0  0  0
   18.7690   20.2308   21.4016 H   0  0  0  0  0  0  0  0  0  0  0  0
   19.8586   18.6705   22.4551 C   0  0  0  0  0  0  0  0  0  0  0  0
   20.7902   18.1010   22.3314 H   0  0  0  0  0  0  0  0  0  0  0  0
   19.0357   17.9426   22.4338 H   0  0  0  0  0  0  0  0  0  0  0  0
   19.8724   19.3942   23.8204 C   0  0  0  0  0  0  0  0  0  0  0  0
   20.6979   20.1193   23.8422 H   0  0  0  0  0  0  0  0  0  0  0  0
   18.9416   19.9659   23.9336 H   0  0  0  0  0  0  0  0  0  0  0  0
   20.0290   18.3990   24.9958 C   0  0  0  0  0  0  0  0  0  0  0  0
   20.9356   17.8004   24.8354 H   0  0  0  0  0  0  0  0  0  0  0  0
   19.1857   17.6956   25.0018 H   0  0  0  0  0  0  0  0  0  0  0  0
   20.1314   19.0989   26.3682 C   0  0  2  0  0  0  0  0  0  0  0  0
   20.9619   19.8105   26.3293 H   0  0  0  0  0  0  0  0  0  0  0  0
   20.4279   18.0709   27.4716 C   0  0  0  0  0  0  0  0  0  0  0  0
   19.6207   17.3322   27.5534 H   0  0  0  0  0  0  0  0  0  0  0  0
   21.3621   17.5344   27.2637 H   0  0  0  0  0  0  0  0  0  0  0  0
   20.5382   18.5660   28.4442 H   0  0  0  0  0  0  0  0  0  0  0  0
   18.8975   19.8912   26.7040 N   0  3  0  0  0  0  0  0  0  0  0  0
   18.0710   19.2898   26.7564 H   0  0  0  0  0  0  0  0  0  0  0  0
   18.7120   20.6104   25.9997 H   0  0  0  0  0  0  0  0  0  0  0  0
   18.9908   20.3639   27.6076 H   0  0  0  0  0  0  0  0  0  0  0  0
  1  2  1  0  0  0  0
  1  3  1  0  0  0  0
  1  4  1  0  0  0  0
  1  5  1  0  0  0  0
  5  6  1  0  0  0  0
  5  7  1  0  0  0  0
  5  8  1  0  0  0  0
  8  9  1  0  0  0  0
  8 10  1  0  0  0  0
  8 11  1  0  0  0  0
 11 12  1  0  0  0  0
 11 13  1  0  0  0  0
 11 14  1  0  0  0  0
 14 15  1  0  0  0  0
 14 16  1  0  0  0  0
 14 17  1  0  0  0  0
 17 18  1  0  0  0  0
 17 19  1  0  0  0  0
 17 20  1  0  0  0  0
 20 21  1  0  0  0  0
 20 22  1  0  0  0  0
 22 23  1  0  0  0  0
 22 24  1  0  0  0  0
 22 25  1  0  0  0  0
 20 26  1  0  0  0  0
 26 27  1  0  0  0  0
 26 28  1  0  0  0  0
 26 29  1  0  0  0  0
M  END
> <VM2 Rank>
1

> <Conf_Id>
718

> <Probability>
10.36

> <Sum Probability>
10.36

> <Delta G>
0.000

> <G>
33.702

> <E>
-3.682

> <-TS>
37.384

> <U+W>
-27.827

> <U>
23.963

> <W>
-51.787

> <W(PB)>
-54.343

> <W(SA)>
2.556

> <Valence>
3.166

> <Coulomb>
19.734

> <VdW>
1.063

> <VdW6>
-7.939

> <VdW12>
9.001

> <Bond>
0.188

> <Angle>
0.880

> <Pdih>
2.098

> <Idih>
0.000

> <Tether>
0.000

$$$$
