@<TRIPOS>MOLECULE
guest-s15_vm2.mol2 : vm2 ligand conformer 1
          29          28           1
SMALL
USER_CHARGES
 
@<TRIPOS>ATOM
       1    C1      19.530342   19.931302   18.743974 C.3        1 MOL1        -0.2426
       2    H1      18.590016   20.491945   18.825942 H          1 MOL1         0.0959
       3    H2      20.357872   20.652449   18.724079 H          1 MOL1         0.0959
       4    H3      19.523263   19.399769   17.783518 H          1 MOL1         0.0959
       5    C2      19.687965   18.938495   19.915018 C.3        1 MOL1        -0.1410
       6    H4      20.619561   18.369452   19.787658 H          1 MOL1         0.0948
       7    H5      18.865328   18.210156   19.888759 H          1 MOL1         0.0948
       8    C3      19.700961   19.661530   21.279935 C.3        1 MOL1        -0.1435
       9    H6      20.523399   20.389944   21.300638 H          1 MOL1         0.0948
      10    H7      18.768982   20.230761   21.401553 H          1 MOL1         0.0948
      11    C4      19.858627   18.670453   22.455076 C.3        1 MOL1        -0.1435
      12    H8      20.790228   18.100996   22.331370 H          1 MOL1         0.0948
      13    H9      19.035677   17.942578   22.433828 H          1 MOL1         0.0948
      14    C5      19.872360   19.394229   23.820407 C.3        1 MOL1        -0.1435
      15    H10     20.697876   20.119316   23.842159 H          1 MOL1         0.0948
      16    H11     18.941631   19.965891   23.933616 H          1 MOL1         0.0948
      17    C6      20.028952   18.399050   24.995769 C.3        1 MOL1        -0.1500
      18    H12     20.935575   17.800370   24.835383 H          1 MOL1         0.0948
      19    H13     19.185711   17.695550   25.001813 H          1 MOL1         0.0948
      20    C7      20.131366   19.098931   26.368225 C.3        1 MOL1         0.1162
      21    H14     20.961877   19.810538   26.329268 H          1 MOL1         0.0910
      22    C8      20.427947   18.070852   27.471583 C.3        1 MOL1        -0.2491
      23    H15     19.620660   17.332245   27.553405 H          1 MOL1         0.0959
      24    H16     21.362143   17.534358   27.263703 H          1 MOL1         0.0959
      25    H17     20.538209   18.566018   28.444242 H          1 MOL1         0.0959
      26    N1      18.897479   19.891158   26.704012 N.4        1 MOL1        -0.5987
      27    H18     18.070955   19.289771   26.756376 H          1 MOL1         0.3605
      28    H19     18.712048   20.610398   25.999741 H          1 MOL1         0.3605
      29    H20     18.990849   20.363884   27.607607 H          1 MOL1         0.3605
@<TRIPOS>BOND
    1     1     2    1
    2     1     3    1
    3     1     4    1
    4     1     5    1
    5     5     6    1
    6     5     7    1
    7     5     8    1
    8     8     9    1
    9     8    10    1
   10     8    11    1
   11    11    12    1
   12    11    13    1
   13    11    14    1
   14    14    15    1
   15    14    16    1
   16    14    17    1
   17    17    18    1
   18    17    19    1
   19    17    20    1
   20    20    21    1
   21    20    22    1
   22    22    23    1
   23    22    24    1
   24    22    25    1
   25    20    26    1
   26    26    27    1
   27    26    28    1
   28    26    29    1
@<TRIPOS>SUBSTRUCTURE
       1 MOL1            1 RESIDUE      1      MOL     
@<SCITEGIC>MOL_PROPERTY
VM2 Rank
SciTegic.value.IntegerValue
1

@<SCITEGIC>MOL_PROPERTY
Conf_Id
SciTegic.value.IntegerValue
718

@<SCITEGIC>MOL_PROPERTY
Probability
SciTegic.value.DoubleValue
10.36

@<SCITEGIC>MOL_PROPERTY
Sum Probability
SciTegic.value.DoubleValue
10.36

@<SCITEGIC>MOL_PROPERTY
Delta G
SciTegic.value.DoubleValue
0.000

@<SCITEGIC>MOL_PROPERTY
G
SciTegic.value.DoubleValue
33.702

@<SCITEGIC>MOL_PROPERTY
E
SciTegic.value.DoubleValue
-3.682

@<SCITEGIC>MOL_PROPERTY
-TS
SciTegic.value.DoubleValue
37.384

@<SCITEGIC>MOL_PROPERTY
U+W
SciTegic.value.DoubleValue
-27.827

@<SCITEGIC>MOL_PROPERTY
U
SciTegic.value.DoubleValue
23.963

@<SCITEGIC>MOL_PROPERTY
W
SciTegic.value.DoubleValue
-51.787

@<SCITEGIC>MOL_PROPERTY
W(PB)
SciTegic.value.DoubleValue
-54.343

@<SCITEGIC>MOL_PROPERTY
W(SA)
SciTegic.value.DoubleValue
2.556

@<SCITEGIC>MOL_PROPERTY
Valence
SciTegic.value.DoubleValue
3.166

@<SCITEGIC>MOL_PROPERTY
Coulomb
SciTegic.value.DoubleValue
19.734

@<SCITEGIC>MOL_PROPERTY
VdW
SciTegic.value.DoubleValue
1.063

@<SCITEGIC>MOL_PROPERTY
VdW6
SciTegic.value.DoubleValue
-7.939

@<SCITEGIC>MOL_PROPERTY
VdW12
SciTegic.value.DoubleValue
9.001

@<SCITEGIC>MOL_PROPERTY
Bond
SciTegic.value.DoubleValue
0.188

@<SCITEGIC>MOL_PROPERTY
Angle
SciTegic.value.DoubleValue
0.880

@<SCITEGIC>MOL_PROPERTY
Pdih
SciTegic.value.DoubleValue
2.098

@<SCITEGIC>MOL_PROPERTY
Idih
SciTegic.value.DoubleValue
0.000

@<SCITEGIC>MOL_PROPERTY
Tether
SciTegic.value.DoubleValue
0.000

@<TRIPOS>MOLECULE
guest-s15_vm2.mol2 : vm2 ligand conformer 2
          29          28           1
SMALL
USER_CHARGES
 
@<TRIPOS>ATOM
       1    C1      19.030745   19.352322   18.849831 C.3        1 MOL1        -0.2426
       2    H1      18.500224   18.391455   18.826745 H          1 MOL1         0.0959
       3    H2      18.285840   20.151839   18.955378 H          1 MOL1         0.0959
       4    H3      19.531820   19.484057   17.882039 H          1 MOL1         0.0959
       5    C2      20.054925   19.392732   20.003642 C.3        1 MOL1        -0.1410
       6    H4      20.592704   20.350934   19.980412 H          1 MOL1         0.0948
       7    H5      20.805400   18.604112   19.852770 H          1 MOL1         0.0948
       8    C3      19.375072   19.209499   21.378466 C.3        1 MOL1        -0.1435
       9    H6      18.624421   19.998673   21.523788 H          1 MOL1         0.0948
      10    H7      18.836879   18.251666   21.395988 H          1 MOL1         0.0948
      11    C4      20.397701   19.249152   22.536393 C.3        1 MOL1        -0.1435
      12    H8      20.935626   20.207132   22.517345 H          1 MOL1         0.0948
      13    H9      21.148108   18.459942   22.389779 H          1 MOL1         0.0948
      14    C5      19.717334   19.065641   23.911763 C.3        1 MOL1        -0.1435
      15    H10     18.968059   19.856040   24.051164 H          1 MOL1         0.0948
      16    H11     19.179004   18.108785   23.919110 H          1 MOL1         0.0948
      17    C6      20.749034   19.103042   25.069160 C.3        1 MOL1        -0.1500
      18    H12     21.313203   20.043597   25.018857 H          1 MOL1         0.0948
      19    H13     21.485343   18.301277   24.924940 H          1 MOL1         0.0948
      20    C7      20.143363   18.972226   26.486628 C.3        1 MOL1         0.1162
      21    H14     20.969319   19.044648   27.200999 H          1 MOL1         0.0910
      22    C8      19.461153   17.609913   26.701202 C.3        1 MOL1        -0.2491
      23    H15     20.145158   16.788233   26.455116 H          1 MOL1         0.0959
      24    H16     19.163149   17.491518   27.750192 H          1 MOL1         0.0959
      25    H17     18.561073   17.505045   26.083897 H          1 MOL1         0.0959
      26    N1      19.206672   20.101473   26.816915 N.4        1 MOL1        -0.5987
      27    H18     19.666562   21.011283   26.719590 H          1 MOL1         0.3605
      28    H19     18.863254   20.033302   27.779249 H          1 MOL1         0.3605
      29    H20     18.391372   20.100089   26.198997 H          1 MOL1         0.3605
@<TRIPOS>BOND
    1     1     2    1
    2     1     3    1
    3     1     4    1
    4     1     5    1
    5     5     6    1
    6     5     7    1
    7     5     8    1
    8     8     9    1
    9     8    10    1
   10     8    11    1
   11    11    12    1
   12    11    13    1
   13    11    14    1
   14    14    15    1
   15    14    16    1
   16    14    17    1
   17    17    18    1
   18    17    19    1
   19    17    20    1
   20    20    21    1
   21    20    22    1
   22    22    23    1
   23    22    24    1
   24    22    25    1
   25    20    26    1
   26    26    27    1
   27    26    28    1
   28    26    29    1
@<TRIPOS>SUBSTRUCTURE
       1 MOL1            1 RESIDUE      1      MOL     
@<SCITEGIC>MOL_PROPERTY
VM2 Rank
SciTegic.value.IntegerValue
2

@<SCITEGIC>MOL_PROPERTY
Conf_Id
SciTegic.value.IntegerValue
441

@<SCITEGIC>MOL_PROPERTY
Probability
SciTegic.value.DoubleValue
5.08

@<SCITEGIC>MOL_PROPERTY
Sum Probability
SciTegic.value.DoubleValue
15.44

@<SCITEGIC>MOL_PROPERTY
Delta G
SciTegic.value.DoubleValue
0.425

@<SCITEGIC>MOL_PROPERTY
G
SciTegic.value.DoubleValue
34.127

@<SCITEGIC>MOL_PROPERTY
E
SciTegic.value.DoubleValue
-3.403

@<SCITEGIC>MOL_PROPERTY
-TS
SciTegic.value.DoubleValue
37.530

@<SCITEGIC>MOL_PROPERTY
U+W
SciTegic.value.DoubleValue
-27.548

@<SCITEGIC>MOL_PROPERTY
U
SciTegic.value.DoubleValue
24.513

@<SCITEGIC>MOL_PROPERTY
W
SciTegic.value.DoubleValue
-52.061

@<SCITEGIC>MOL_PROPERTY
W(PB)
SciTegic.value.DoubleValue
-54.558

@<SCITEGIC>MOL_PROPERTY
W(SA)
SciTegic.value.DoubleValue
2.497

@<SCITEGIC>MOL_PROPERTY
Valence
SciTegic.value.DoubleValue
3.677

@<SCITEGIC>MOL_PROPERTY
Coulomb
SciTegic.value.DoubleValue
19.662

@<SCITEGIC>MOL_PROPERTY
VdW
SciTegic.value.DoubleValue
1.174

@<SCITEGIC>MOL_PROPERTY
VdW6
SciTegic.value.DoubleValue
-8.569

@<SCITEGIC>MOL_PROPERTY
VdW12
SciTegic.value.DoubleValue
9.743

@<SCITEGIC>MOL_PROPERTY
Bond
SciTegic.value.DoubleValue
0.224

@<SCITEGIC>MOL_PROPERTY
Angle
SciTegic.value.DoubleValue
1.211

@<SCITEGIC>MOL_PROPERTY
Pdih
SciTegic.value.DoubleValue
2.243

@<SCITEGIC>MOL_PROPERTY
Idih
SciTegic.value.DoubleValue
0.000

@<SCITEGIC>MOL_PROPERTY
Tether
SciTegic.value.DoubleValue
0.000

@<TRIPOS>MOLECULE
guest-s15_vm2.mol2 : vm2 ligand conformer 3
          29          28           1
SMALL
USER_CHARGES
 
@<TRIPOS>ATOM
       1    C1      20.203070   19.467356   18.690427 C.3        1 MOL1        -0.2426
       2    H1      20.598482   20.491420   18.704454 H          1 MOL1         0.0959
       3    H2      21.052468   18.773381   18.643790 H          1 MOL1         0.0959
       4    H3      19.616860   19.344932   17.770415 H          1 MOL1         0.0959
       5    C2      19.330229   19.192832   19.933263 C.3        1 MOL1        -0.1410
       6    H4      18.922132   18.174065   19.874357 H          1 MOL1         0.0948
       7    H5      18.471591   19.878862   19.934499 H          1 MOL1         0.0948
       8    C3      20.132032   19.358508   21.243071 C.3        1 MOL1        -0.1435
       9    H6      20.990449   18.672594   21.236051 H          1 MOL1         0.0948
      10    H7      20.539752   20.377494   21.296443 H          1 MOL1         0.0948
      11    C4      19.261267   19.084323   22.489944 C.3        1 MOL1        -0.1435
      12    H8      18.854156   18.065078   22.436047 H          1 MOL1         0.0948
      13    H9      18.402642   19.770033   22.494731 H          1 MOL1         0.0948
      14    C5      20.063805   19.250710   23.800215 C.3        1 MOL1        -0.1435
      15    H10     20.923341   18.567948   23.781340 H          1 MOL1         0.0948
      16    H11     20.466540   20.271579   23.856290 H          1 MOL1         0.0948
      17    C6      19.190221   18.970837   25.047753 C.3        1 MOL1        -0.1500
      18    H12     18.839183   17.930487   25.028354 H          1 MOL1         0.0948
      19    H13     18.293735   19.602734   24.995313 H          1 MOL1         0.0948
      20    C7      19.908585   19.252367   26.387207 C.3        1 MOL1         0.1162
      21    H14     20.285048   20.279713   26.365539 H          1 MOL1         0.0910
      22    C8      21.097243   18.302424   26.619543 C.3        1 MOL1        -0.2491
      23    H15     20.778951   17.252997   26.586204 H          1 MOL1         0.0959
      24    H16     21.878710   18.449158   25.865125 H          1 MOL1         0.0959
      25    H17     21.554232   18.488159   27.599350 H          1 MOL1         0.0959
      26    N1      18.949548   19.176643   27.542577 N.4        1 MOL1        -0.5987
      27    H18     19.412328   19.401267   28.428080 H          1 MOL1         0.3605
      28    H19     18.549879   18.238934   27.636093 H          1 MOL1         0.3605
      29    H20     18.171508   19.833177   27.430624 H          1 MOL1         0.3605
@<TRIPOS>BOND
    1     1     2    1
    2     1     3    1
    3     1     4    1
    4     1     5    1
    5     5     6    1
    6     5     7    1
    7     5     8    1
    8     8     9    1
    9     8    10    1
   10     8    11    1
   11    11    12    1
   12    11    13    1
   13    11    14    1
   14    14    15    1
   15    14    16    1
   16    14    17    1
   17    17    18    1
   18    17    19    1
   19    17    20    1
   20    20    21    1
   21    20    22    1
   22    22    23    1
   23    22    24    1
   24    22    25    1
   25    20    26    1
   26    26    27    1
   27    26    28    1
   28    26    29    1
@<TRIPOS>SUBSTRUCTURE
       1 MOL1            1 RESIDUE      1      MOL     
@<SCITEGIC>MOL_PROPERTY
VM2 Rank
SciTegic.value.IntegerValue
3

@<SCITEGIC>MOL_PROPERTY
Conf_Id
SciTegic.value.IntegerValue
58

@<SCITEGIC>MOL_PROPERTY
Probability
SciTegic.value.DoubleValue
5.06

@<SCITEGIC>MOL_PROPERTY
Sum Probability
SciTegic.value.DoubleValue
20.50

@<SCITEGIC>MOL_PROPERTY
Delta G
SciTegic.value.DoubleValue
0.427

@<SCITEGIC>MOL_PROPERTY
G
SciTegic.value.DoubleValue
34.129

@<SCITEGIC>MOL_PROPERTY
E
SciTegic.value.DoubleValue
-3.270

@<SCITEGIC>MOL_PROPERTY
-TS
SciTegic.value.DoubleValue
37.399

@<SCITEGIC>MOL_PROPERTY
U+W
SciTegic.value.DoubleValue
-27.414

@<SCITEGIC>MOL_PROPERTY
U
SciTegic.value.DoubleValue
24.279

@<SCITEGIC>MOL_PROPERTY
W
SciTegic.value.DoubleValue
-51.694

@<SCITEGIC>MOL_PROPERTY
W(PB)
SciTegic.value.DoubleValue
-54.271

@<SCITEGIC>MOL_PROPERTY
W(SA)
SciTegic.value.DoubleValue
2.577

@<SCITEGIC>MOL_PROPERTY
Valence
SciTegic.value.DoubleValue
3.709

@<SCITEGIC>MOL_PROPERTY
Coulomb
SciTegic.value.DoubleValue
19.380

@<SCITEGIC>MOL_PROPERTY
VdW
SciTegic.value.DoubleValue
1.191

@<SCITEGIC>MOL_PROPERTY
VdW6
SciTegic.value.DoubleValue
-8.093

@<SCITEGIC>MOL_PROPERTY
VdW12
SciTegic.value.DoubleValue
9.284

@<SCITEGIC>MOL_PROPERTY
Bond
SciTegic.value.DoubleValue
0.200

@<SCITEGIC>MOL_PROPERTY
Angle
SciTegic.value.DoubleValue
1.161

@<SCITEGIC>MOL_PROPERTY
Pdih
SciTegic.value.DoubleValue
2.348

@<SCITEGIC>MOL_PROPERTY
Idih
SciTegic.value.DoubleValue
0.000

@<SCITEGIC>MOL_PROPERTY
Tether
SciTegic.value.DoubleValue
0.000

@<TRIPOS>MOLECULE
guest-s15_vm2.mol2 : vm2 ligand conformer 4
          29          28           1
SMALL
USER_CHARGES
 
@<TRIPOS>ATOM
       1    C1      18.828658   18.794362   19.403800 C.3        1 MOL1        -0.2426
       2    H1      18.881462   18.512046   18.344345 H          1 MOL1         0.0959
       3    H2      18.682913   17.874282   19.983173 H          1 MOL1         0.0959
       4    H3      17.943830   19.429997   19.538248 H          1 MOL1         0.0959
       5    C2      20.115636   19.536103   19.830450 C.3        1 MOL1        -0.1410
       6    H4      20.282425   20.378595   19.144775 H          1 MOL1         0.0948
       7    H5      20.981828   18.869658   19.715155 H          1 MOL1         0.0948
       8    C3      20.061531   20.078275   21.279078 C.3        1 MOL1        -0.1435
       9    H6      20.961686   20.682121   21.459044 H          1 MOL1         0.0948
      10    H7      19.206019   20.759711   21.383799 H          1 MOL1         0.0948
      11    C4      19.977084   18.965421   22.351028 C.3        1 MOL1        -0.1435
      12    H8      20.804800   18.256901   22.209359 H          1 MOL1         0.0948
      13    H9      19.045622   18.397493   22.227483 H          1 MOL1         0.0948
      14    C5      20.030790   19.543754   23.783157 C.3        1 MOL1        -0.1435
      15    H10     20.965724   20.105607   23.916846 H          1 MOL1         0.0948
      16    H11     19.206955   20.258102   23.913040 H          1 MOL1         0.0948
      17    C6      19.940839   18.430587   24.855156 C.3        1 MOL1        -0.1500
      18    H12     20.738928   17.698255   24.673925 H          1 MOL1         0.0948
      19    H13     18.990284   17.890550   24.751211 H          1 MOL1         0.0948
      20    C7      20.077480   18.969039   26.295747 C.3        1 MOL1         0.1162
      21    H14     21.019064   19.522167   26.367323 H          1 MOL1         0.0910
      22    C8      20.123615   17.805583   27.299011 C.3        1 MOL1        -0.2491
      23    H15     20.962326   17.133538   27.078375 H          1 MOL1         0.0959
      24    H16     20.257331   18.179655   28.321555 H          1 MOL1         0.0959
      25    H17     19.197565   17.217848   27.268220 H          1 MOL1         0.0959
      26    N1      18.980367   19.932877   26.656574 N.4        1 MOL1        -0.5987
      27    H18     18.060903   19.485714   26.609999 H          1 MOL1         0.3605
      28    H19     18.965548   20.736408   26.022693 H          1 MOL1         0.3605
      29    H20     19.097975   20.294649   27.607341 H          1 MOL1         0.3605
@<TRIPOS>BOND
    1     1     2    1
    2     1     3    1
    3     1     4    1
    4     1     5    1
    5     5     6    1
    6     5     7    1
    7     5     8    1
    8     8     9    1
    9     8    10    1
   10     8    11    1
   11    11    12    1
   12    11    13    1
   13    11    14    1
   14    14    15    1
   15    14    16    1
   16    14    17    1
   17    17    18    1
   18    17    19    1
   19    17    20    1
   20    20    21    1
   21    20    22    1
   22    22    23    1
   23    22    24    1
   24    22    25    1
   25    20    26    1
   26    26    27    1
   27    26    28    1
   28    26    29    1
@<TRIPOS>SUBSTRUCTURE
       1 MOL1            1 RESIDUE      1      MOL     
@<SCITEGIC>MOL_PROPERTY
VM2 Rank
SciTegic.value.IntegerValue
4

@<SCITEGIC>MOL_PROPERTY
Conf_Id
SciTegic.value.IntegerValue
1220

@<SCITEGIC>MOL_PROPERTY
Probability
SciTegic.value.DoubleValue
3.90

@<SCITEGIC>MOL_PROPERTY
Sum Probability
SciTegic.value.DoubleValue
24.40

@<SCITEGIC>MOL_PROPERTY
Delta G
SciTegic.value.DoubleValue
0.582

@<SCITEGIC>MOL_PROPERTY
G
SciTegic.value.DoubleValue
34.284

@<SCITEGIC>MOL_PROPERTY
E
SciTegic.value.DoubleValue
-3.211

@<SCITEGIC>MOL_PROPERTY
-TS
SciTegic.value.DoubleValue
37.495

@<SCITEGIC>MOL_PROPERTY
U+W
SciTegic.value.DoubleValue
-27.356

@<SCITEGIC>MOL_PROPERTY
U
SciTegic.value.DoubleValue
24.589

@<SCITEGIC>MOL_PROPERTY
W
SciTegic.value.DoubleValue
-51.945

@<SCITEGIC>MOL_PROPERTY
W(PB)
SciTegic.value.DoubleValue
-54.480

@<SCITEGIC>MOL_PROPERTY
W(SA)
SciTegic.value.DoubleValue
2.535

@<SCITEGIC>MOL_PROPERTY
Valence
SciTegic.value.DoubleValue
3.670

@<SCITEGIC>MOL_PROPERTY
Coulomb
SciTegic.value.DoubleValue
19.723

@<SCITEGIC>MOL_PROPERTY
VdW
SciTegic.value.DoubleValue
1.196

@<SCITEGIC>MOL_PROPERTY
VdW6
SciTegic.value.DoubleValue
-8.561

@<SCITEGIC>MOL_PROPERTY
VdW12
SciTegic.value.DoubleValue
9.757

@<SCITEGIC>MOL_PROPERTY
Bond
SciTegic.value.DoubleValue
0.223

@<SCITEGIC>MOL_PROPERTY
Angle
SciTegic.value.DoubleValue
1.119

@<SCITEGIC>MOL_PROPERTY
Pdih
SciTegic.value.DoubleValue
2.329

@<SCITEGIC>MOL_PROPERTY
Idih
SciTegic.value.DoubleValue
0.000

@<SCITEGIC>MOL_PROPERTY
Tether
SciTegic.value.DoubleValue
0.000

@<TRIPOS>MOLECULE
guest-s15_vm2.mol2 : vm2 ligand conformer 5
          29          28           1
SMALL
USER_CHARGES
 
@<TRIPOS>ATOM
       1    C1      20.485748   18.897345   19.301264 C.3        1 MOL1        -0.2426
       2    H1      20.354210   18.590460   18.255581 H          1 MOL1         0.0959
       3    H2      21.278297   19.656288   19.331330 H          1 MOL1         0.0959
       4    H3      20.828702   18.018943   19.861842 H          1 MOL1         0.0959
       5    C2      19.161684   19.453757   19.872047 C.3        1 MOL1        -0.1410
       6    H4      18.394182   18.667308   19.859104 H          1 MOL1         0.0948
       7    H5      18.797129   20.250170   19.208279 H          1 MOL1         0.0948
       8    C3      19.301000   20.025610   21.303480 C.3        1 MOL1        -0.1435
       9    H6      20.054791   20.824999   21.307299 H          1 MOL1         0.0948
      10    H7      18.349064   20.496910   21.584496 H          1 MOL1         0.0948
      11    C4      19.667701   18.957208   22.361181 C.3        1 MOL1        -0.1435
      12    H8      20.651008   18.526466   22.131102 H          1 MOL1         0.0948
      13    H9      18.940464   18.134673   22.318978 H          1 MOL1         0.0948
      14    C5      19.695029   19.549207   23.788480 C.3        1 MOL1        -0.1435
      15    H10     20.422608   20.371796   23.829373 H          1 MOL1         0.0948
      16    H11     18.711594   19.980332   24.018254 H          1 MOL1         0.0948
      17    C6      20.064451   18.480615   24.845878 C.3        1 MOL1        -0.1500
      18    H12     21.024106   18.024118   24.568803 H          1 MOL1         0.0948
      19    H13     19.319036   17.674242   24.835244 H          1 MOL1         0.0948
      20    C7      20.182708   19.059997   26.272150 C.3        1 MOL1         0.1162
      21    H14     20.911982   19.875712   26.251649 H          1 MOL1         0.0910
      22    C8      20.689230   17.983989   27.245775 C.3        1 MOL1        -0.2491
      23    H15     19.989583   17.140791   27.304607 H          1 MOL1         0.0959
      24    H16     21.664735   17.596874   26.925941 H          1 MOL1         0.0959
      25    H17     20.810396   18.398734   28.254097 H          1 MOL1         0.0959
      26    N1      18.888449   19.648271   26.763745 N.4        1 MOL1        -0.5987
      27    H18     18.150335   18.940640   26.808332 H          1 MOL1         0.3605
      28    H19     18.561067   20.397734   26.148267 H          1 MOL1         0.3605
      29    H20     18.990459   20.045000   27.702289 H          1 MOL1         0.3605
@<TRIPOS>BOND
    1     1     2    1
    2     1     3    1
    3     1     4    1
    4     1     5    1
    5     5     6    1
    6     5     7    1
    7     5     8    1
    8     8     9    1
    9     8    10    1
   10     8    11    1
   11    11    12    1
   12    11    13    1
   13    11    14    1
   14    14    15    1
   15    14    16    1
   16    14    17    1
   17    17    18    1
   18    17    19    1
   19    17    20    1
   20    20    21    1
   21    20    22    1
   22    22    23    1
   23    22    24    1
   24    22    25    1
   25    20    26    1
   26    26    27    1
   27    26    28    1
   28    26    29    1
@<TRIPOS>SUBSTRUCTURE
       1 MOL1            1 RESIDUE      1      MOL     
@<SCITEGIC>MOL_PROPERTY
VM2 Rank
SciTegic.value.IntegerValue
5

@<SCITEGIC>MOL_PROPERTY
Conf_Id
SciTegic.value.IntegerValue
1303

@<SCITEGIC>MOL_PROPERTY
Probability
SciTegic.value.DoubleValue
3.79

@<SCITEGIC>MOL_PROPERTY
Sum Probability
SciTegic.value.DoubleValue
28.19

@<SCITEGIC>MOL_PROPERTY
Delta G
SciTegic.value.DoubleValue
0.600

@<SCITEGIC>MOL_PROPERTY
G
SciTegic.value.DoubleValue
34.302

@<SCITEGIC>MOL_PROPERTY
E
SciTegic.value.DoubleValue
-3.193

@<SCITEGIC>MOL_PROPERTY
-TS
SciTegic.value.DoubleValue
37.495

@<SCITEGIC>MOL_PROPERTY
U+W
SciTegic.value.DoubleValue
-27.338

@<SCITEGIC>MOL_PROPERTY
U
SciTegic.value.DoubleValue
24.574

@<SCITEGIC>MOL_PROPERTY
W
SciTegic.value.DoubleValue
-51.911

@<SCITEGIC>MOL_PROPERTY
W(PB)
SciTegic.value.DoubleValue
-54.448

@<SCITEGIC>MOL_PROPERTY
W(SA)
SciTegic.value.DoubleValue
2.537

@<SCITEGIC>MOL_PROPERTY
Valence
SciTegic.value.DoubleValue
3.669

@<SCITEGIC>MOL_PROPERTY
Coulomb
SciTegic.value.DoubleValue
19.705

@<SCITEGIC>MOL_PROPERTY
VdW
SciTegic.value.DoubleValue
1.200

@<SCITEGIC>MOL_PROPERTY
VdW6
SciTegic.value.DoubleValue
-8.560

@<SCITEGIC>MOL_PROPERTY
VdW12
SciTegic.value.DoubleValue
9.760

@<SCITEGIC>MOL_PROPERTY
Bond
SciTegic.value.DoubleValue
0.223

@<SCITEGIC>MOL_PROPERTY
Angle
SciTegic.value.DoubleValue
1.119

@<SCITEGIC>MOL_PROPERTY
Pdih
SciTegic.value.DoubleValue
2.327

@<SCITEGIC>MOL_PROPERTY
Idih
SciTegic.value.DoubleValue
0.000

@<SCITEGIC>MOL_PROPERTY
Tether
SciTegic.value.DoubleValue
0.000

@<TRIPOS>MOLECULE
guest-s15_vm2.mol2 : vm2 ligand conformer 6
          29          28           1
SMALL
USER_CHARGES
 
@<TRIPOS>ATOM
       1    C1      20.674760   18.986862   19.135397 C.3        1 MOL1        -0.2426
       2    H1      21.274837   18.112973   19.420816 H          1 MOL1         0.0959
       3    H2      20.335277   18.839590   18.101905 H          1 MOL1         0.0959
       4    H3      21.326596   19.870056   19.153490 H          1 MOL1         0.0959
       5    C2      19.470685   19.166820   20.083965 C.3        1 MOL1        -0.1410
       6    H4      18.820482   18.283067   20.019727 H          1 MOL1         0.0948
       7    H5      18.871335   20.026347   19.752498 H          1 MOL1         0.0948
       8    C3      19.921146   19.377081   21.546515 C.3        1 MOL1        -0.1435
       9    H6      20.526338   18.516809   21.860366 H          1 MOL1         0.0948
      10    H7      20.568548   20.262823   21.605853 H          1 MOL1         0.0948
      11    C4      18.713913   19.552971   22.498966 C.3        1 MOL1        -0.1435
      12    H8      18.096063   18.644449   22.486656 H          1 MOL1         0.0948
      13    H9      18.076652   20.363822   22.119731 H          1 MOL1         0.0948
      14    C5      19.114782   19.888384   23.956734 C.3        1 MOL1        -0.1435
      15    H10     19.730276   20.798611   23.968122 H          1 MOL1         0.0948
      16    H11     18.199127   20.127486   24.513237 H          1 MOL1         0.0948
      17    C6      19.869851   18.738119   24.671498 C.3        1 MOL1        -0.1500
      18    H12     20.796788   18.519272   24.127313 H          1 MOL1         0.0948
      19    H13     19.264542   17.822368   24.643782 H          1 MOL1         0.0948
      20    C7      20.234182   19.074901   26.133915 C.3        1 MOL1         0.1162
      21    H14     20.804768   20.008741   26.138952 H          1 MOL1         0.0910
      22    C8      21.115728   17.967589   26.733394 C.3        1 MOL1        -0.2491
      23    H15     20.587574   17.005988   26.751650 H          1 MOL1         0.0959
      24    H16     22.035269   17.841323   26.148362 H          1 MOL1         0.0959
      25    H17     21.407340   18.217062   27.761080 H          1 MOL1         0.0959
      26    N1      19.020951   19.303271   26.993615 N.4        1 MOL1        -0.5987
      27    H18     19.282941   19.542177   27.954306 H          1 MOL1         0.3605
      28    H19     18.430877   18.468041   27.035289 H          1 MOL1         0.3605
      29    H20     18.446158   20.069775   26.633526 H          1 MOL1         0.3605
@<TRIPOS>BOND
    1     1     2    1
    2     1     3    1
    3     1     4    1
    4     1     5    1
    5     5     6    1
    6     5     7    1
    7     5     8    1
    8     8     9    1
    9     8    10    1
   10     8    11    1
   11    11    12    1
   12    11    13    1
   13    11    14    1
   14    14    15    1
   15    14    16    1
   16    14    17    1
   17    17    18    1
   18    17    19    1
   19    17    20    1
   20    20    21    1
   21    20    22    1
   22    22    23    1
   23    22    24    1
   24    22    25    1
   25    20    26    1
   26    26    27    1
   27    26    28    1
   28    26    29    1
@<TRIPOS>SUBSTRUCTURE
       1 MOL1            1 RESIDUE      1      MOL     
@<SCITEGIC>MOL_PROPERTY
VM2 Rank
SciTegic.value.IntegerValue
6

@<SCITEGIC>MOL_PROPERTY
Conf_Id
SciTegic.value.IntegerValue
1308

@<SCITEGIC>MOL_PROPERTY
Probability
SciTegic.value.DoubleValue
3.48

@<SCITEGIC>MOL_PROPERTY
Sum Probability
SciTegic.value.DoubleValue
31.67

@<SCITEGIC>MOL_PROPERTY
Delta G
SciTegic.value.DoubleValue
0.650

@<SCITEGIC>MOL_PROPERTY
G
SciTegic.value.DoubleValue
34.352

@<SCITEGIC>MOL_PROPERTY
E
SciTegic.value.DoubleValue
-3.103

@<SCITEGIC>MOL_PROPERTY
-TS
SciTegic.value.DoubleValue
37.455

@<SCITEGIC>MOL_PROPERTY
U+W
SciTegic.value.DoubleValue
-27.248

@<SCITEGIC>MOL_PROPERTY
U
SciTegic.value.DoubleValue
24.710

@<SCITEGIC>MOL_PROPERTY
W
SciTegic.value.DoubleValue
-51.958

@<SCITEGIC>MOL_PROPERTY
W(PB)
SciTegic.value.DoubleValue
-54.513

@<SCITEGIC>MOL_PROPERTY
W(SA)
SciTegic.value.DoubleValue
2.555

@<SCITEGIC>MOL_PROPERTY
Valence
SciTegic.value.DoubleValue
3.735

@<SCITEGIC>MOL_PROPERTY
Coulomb
SciTegic.value.DoubleValue
19.760

@<SCITEGIC>MOL_PROPERTY
VdW
SciTegic.value.DoubleValue
1.216

@<SCITEGIC>MOL_PROPERTY
VdW6
SciTegic.value.DoubleValue
-8.624

@<SCITEGIC>MOL_PROPERTY
VdW12
SciTegic.value.DoubleValue
9.840

@<SCITEGIC>MOL_PROPERTY
Bond
SciTegic.value.DoubleValue
0.236

@<SCITEGIC>MOL_PROPERTY
Angle
SciTegic.value.DoubleValue
1.168

@<SCITEGIC>MOL_PROPERTY
Pdih
SciTegic.value.DoubleValue
2.330

@<SCITEGIC>MOL_PROPERTY
Idih
SciTegic.value.DoubleValue
0.000

@<SCITEGIC>MOL_PROPERTY
Tether
SciTegic.value.DoubleValue
0.000

@<TRIPOS>MOLECULE
guest-s15_vm2.mol2 : vm2 ligand conformer 7
          29          28           1
SMALL
USER_CHARGES
 
@<TRIPOS>ATOM
       1    C1      19.704427   20.025521   19.021297 C.3        1 MOL1        -0.2426
       2    H1      20.460998   20.391662   18.315189 H          1 MOL1         0.0959
       3    H2      19.242280   19.129955   18.585825 H          1 MOL1         0.0959
       4    H3      18.930203   20.798034   19.116436 H          1 MOL1         0.0959
       5    C2      20.343949   19.709799   20.389929 C.3        1 MOL1        -0.1410
       6    H4      20.826704   20.615011   20.784171 H          1 MOL1         0.0948
       7    H5      21.136292   18.959716   20.257762 H          1 MOL1         0.0948
       8    C3      19.299489   19.191991   21.403313 C.3        1 MOL1        -0.1435
       9    H6      18.508560   19.944070   21.530526 H          1 MOL1         0.0948
      10    H7      18.817979   18.288921   21.003277 H          1 MOL1         0.0948
      11    C4      19.936345   18.874276   22.774880 C.3        1 MOL1        -0.1435
      12    H8      20.422371   19.778969   23.163522 H          1 MOL1         0.0948
      13    H9      20.724287   18.119284   22.646234 H          1 MOL1         0.0948
      14    C5      18.887161   18.357778   23.788364 C.3        1 MOL1        -0.1435
      15    H10     18.109126   19.118042   23.938859 H          1 MOL1         0.0948
      16    H11     18.377285   17.482557   23.362487 H          1 MOL1         0.0948
      17    C6      19.503271   17.951438   25.151597 C.3        1 MOL1        -0.1500
      18    H12     20.203708   17.121424   24.988996 H          1 MOL1         0.0948
      19    H13     18.708965   17.559328   25.800599 H          1 MOL1         0.0948
      20    C7      20.240690   19.096478   25.881414 C.3        1 MOL1         0.1162
      21    H14     21.040790   19.461559   25.230811 H          1 MOL1         0.0910
      22    C8      20.878560   18.579451   27.180470 C.3        1 MOL1        -0.2491
      23    H15     21.436787   19.378553   27.683666 H          1 MOL1         0.0959
      24    H16     20.116605   18.204789   27.875431 H          1 MOL1         0.0959
      25    H17     21.581276   17.763238   26.971346 H          1 MOL1         0.0959
      26    N1      19.342109   20.269269   26.162737 N.4        1 MOL1        -0.5987
      27    H18     18.565575   20.005123   26.774875 H          1 MOL1         0.3605
      28    H19     18.940969   20.644775   25.299016 H          1 MOL1         0.3605
      29    H20     19.851020   21.029670   26.622517 H          1 MOL1         0.3605
@<TRIPOS>BOND
    1     1     2    1
    2     1     3    1
    3     1     4    1
    4     1     5    1
    5     5     6    1
    6     5     7    1
    7     5     8    1
    8     8     9    1
    9     8    10    1
   10     8    11    1
   11    11    12    1
   12    11    13    1
   13    11    14    1
   14    14    15    1
   15    14    16    1
   16    14    17    1
   17    17    18    1
   18    17    19    1
   19    17    20    1
   20    20    21    1
   21    20    22    1
   22    22    23    1
   23    22    24    1
   24    22    25    1
   25    20    26    1
   26    26    27    1
   27    26    28    1
   28    26    29    1
@<TRIPOS>SUBSTRUCTURE
       1 MOL1            1 RESIDUE      1      MOL     
@<SCITEGIC>MOL_PROPERTY
VM2 Rank
SciTegic.value.IntegerValue
7

@<SCITEGIC>MOL_PROPERTY
Conf_Id
SciTegic.value.IntegerValue
694

@<SCITEGIC>MOL_PROPERTY
Probability
SciTegic.value.DoubleValue
3.42

@<SCITEGIC>MOL_PROPERTY
Sum Probability
SciTegic.value.DoubleValue
35.08

@<SCITEGIC>MOL_PROPERTY
Delta G
SciTegic.value.DoubleValue
0.661

@<SCITEGIC>MOL_PROPERTY
G
SciTegic.value.DoubleValue
34.363

@<SCITEGIC>MOL_PROPERTY
E
SciTegic.value.DoubleValue
-3.215

@<SCITEGIC>MOL_PROPERTY
-TS
SciTegic.value.DoubleValue
37.578

@<SCITEGIC>MOL_PROPERTY
U+W
SciTegic.value.DoubleValue
-27.360

@<SCITEGIC>MOL_PROPERTY
U
SciTegic.value.DoubleValue
24.672

@<SCITEGIC>MOL_PROPERTY
W
SciTegic.value.DoubleValue
-52.032

@<SCITEGIC>MOL_PROPERTY
W(PB)
SciTegic.value.DoubleValue
-54.582

@<SCITEGIC>MOL_PROPERTY
W(SA)
SciTegic.value.DoubleValue
2.550

@<SCITEGIC>MOL_PROPERTY
Valence
SciTegic.value.DoubleValue
3.465

@<SCITEGIC>MOL_PROPERTY
Coulomb
SciTegic.value.DoubleValue
20.280

@<SCITEGIC>MOL_PROPERTY
VdW
SciTegic.value.DoubleValue
0.927

@<SCITEGIC>MOL_PROPERTY
VdW6
SciTegic.value.DoubleValue
-8.843

@<SCITEGIC>MOL_PROPERTY
VdW12
SciTegic.value.DoubleValue
9.770

@<SCITEGIC>MOL_PROPERTY
Bond
SciTegic.value.DoubleValue
0.217

@<SCITEGIC>MOL_PROPERTY
Angle
SciTegic.value.DoubleValue
1.094

@<SCITEGIC>MOL_PROPERTY
Pdih
SciTegic.value.DoubleValue
2.153

@<SCITEGIC>MOL_PROPERTY
Idih
SciTegic.value.DoubleValue
0.000

@<SCITEGIC>MOL_PROPERTY
Tether
SciTegic.value.DoubleValue
0.000

@<TRIPOS>MOLECULE
guest-s15_vm2.mol2 : vm2 ligand conformer 8
          29          28           1
SMALL
USER_CHARGES
 
@<TRIPOS>ATOM
       1    C1      18.621454   18.917277   19.291889 C.3        1 MOL1        -0.2426
       2    H1      18.857146   18.831717   18.223164 H          1 MOL1         0.0959
       3    H2      18.166307   17.971408   19.613462 H          1 MOL1         0.0959
       4    H3      17.874942   19.713561   19.409780 H          1 MOL1         0.0959
       5    C2      19.894772   19.225762   20.107632 C.3        1 MOL1        -0.1410
       6    H4      20.345707   20.158221   19.740143 H          1 MOL1         0.0948
       7    H5      20.634569   18.429633   19.943984 H          1 MOL1         0.0948
       8    C3      19.590521   19.352172   21.616773 C.3        1 MOL1        -0.1435
       9    H6      18.852232   20.150256   21.775430 H          1 MOL1         0.0948
      10    H7      19.132706   18.418515   21.968762 H          1 MOL1         0.0948
      11    C4      20.867380   19.657449   22.436141 C.3        1 MOL1        -0.1435
      12    H8      21.352837   20.552025   22.022088 H          1 MOL1         0.0948
      13    H9      21.587053   18.835186   22.321065 H          1 MOL1         0.0948
      14    C5      20.592898   19.900477   23.940441 C.3        1 MOL1        -0.1435
      15    H10     21.531435   20.213007   24.419062 H          1 MOL1         0.0948
      16    H11     19.894345   20.740972   24.048058 H          1 MOL1         0.0948
      17    C6      20.043707   18.651567   24.676247 C.3        1 MOL1        -0.1500
      18    H12     20.700245   17.797065   24.464853 H          1 MOL1         0.0948
      19    H13     19.050720   18.390008   24.289372 H          1 MOL1         0.0948
      20    C7      19.958374   18.847572   26.205193 C.3        1 MOL1         0.1162
      21    H14     20.952029   19.123215   26.571668 H          1 MOL1         0.0910
      22    C8      19.537610   17.537423   26.889833 C.3        1 MOL1        -0.2491
      23    H15     18.542113   17.217498   26.557312 H          1 MOL1         0.0959
      24    H16     20.248523   16.733184   26.662762 H          1 MOL1         0.0959
      25    H17     19.511031   17.659988   27.979637 H          1 MOL1         0.0959
      26    N1      19.029284   19.966302   26.589852 N.4        1 MOL1        -0.5987
      27    H18     18.072404   19.780298   26.277998 H          1 MOL1         0.3605
      28    H19     19.322492   20.854558   26.174211 H          1 MOL1         0.3605
      29    H20     19.001462   20.097171   27.605111 H          1 MOL1         0.3605
@<TRIPOS>BOND
    1     1     2    1
    2     1     3    1
    3     1     4    1
    4     1     5    1
    5     5     6    1
    6     5     7    1
    7     5     8    1
    8     8     9    1
    9     8    10    1
   10     8    11    1
   11    11    12    1
   12    11    13    1
   13    11    14    1
   14    14    15    1
   15    14    16    1
   16    14    17    1
   17    17    18    1
   18    17    19    1
   19    17    20    1
   20    20    21    1
   21    20    22    1
   22    22    23    1
   23    22    24    1
   24    22    25    1
   25    20    26    1
   26    26    27    1
   27    26    28    1
   28    26    29    1
@<TRIPOS>SUBSTRUCTURE
       1 MOL1            1 RESIDUE      1      MOL     
@<SCITEGIC>MOL_PROPERTY
VM2 Rank
SciTegic.value.IntegerValue
8

@<SCITEGIC>MOL_PROPERTY
Conf_Id
SciTegic.value.IntegerValue
985

@<SCITEGIC>MOL_PROPERTY
Probability
SciTegic.value.DoubleValue
3.41

@<SCITEGIC>MOL_PROPERTY
Sum Probability
SciTegic.value.DoubleValue
38.49

@<SCITEGIC>MOL_PROPERTY
Delta G
SciTegic.value.DoubleValue
0.663

@<SCITEGIC>MOL_PROPERTY
G
SciTegic.value.DoubleValue
34.365

@<SCITEGIC>MOL_PROPERTY
E
SciTegic.value.DoubleValue
-3.137

@<SCITEGIC>MOL_PROPERTY
-TS
SciTegic.value.DoubleValue
37.502

@<SCITEGIC>MOL_PROPERTY
U+W
SciTegic.value.DoubleValue
-27.282

@<SCITEGIC>MOL_PROPERTY
U
SciTegic.value.DoubleValue
24.741

@<SCITEGIC>MOL_PROPERTY
W
SciTegic.value.DoubleValue
-52.023

@<SCITEGIC>MOL_PROPERTY
W(PB)
SciTegic.value.DoubleValue
-54.548

@<SCITEGIC>MOL_PROPERTY
W(SA)
SciTegic.value.DoubleValue
2.525

@<SCITEGIC>MOL_PROPERTY
Valence
SciTegic.value.DoubleValue
3.693

@<SCITEGIC>MOL_PROPERTY
Coulomb
SciTegic.value.DoubleValue
19.919

@<SCITEGIC>MOL_PROPERTY
VdW
SciTegic.value.DoubleValue
1.129

@<SCITEGIC>MOL_PROPERTY
VdW6
SciTegic.value.DoubleValue
-8.666

@<SCITEGIC>MOL_PROPERTY
VdW12
SciTegic.value.DoubleValue
9.794

@<SCITEGIC>MOL_PROPERTY
Bond
SciTegic.value.DoubleValue
0.229

@<SCITEGIC>MOL_PROPERTY
Angle
SciTegic.value.DoubleValue
1.104

@<SCITEGIC>MOL_PROPERTY
Pdih
SciTegic.value.DoubleValue
2.361

@<SCITEGIC>MOL_PROPERTY
Idih
SciTegic.value.DoubleValue
0.000

@<SCITEGIC>MOL_PROPERTY
Tether
SciTegic.value.DoubleValue
0.000

