VeraChem MOL file


 20 19  0  0  0  0  0  0  0  0999 V2000     
   19.7357   18.9392   25.6479 N   0  3  0  0  0  0  0  0  0  0  0  0
   18.8387   19.4316   25.7040 H   0  0  0  0  0  0  0  0  0  0  0  0
   19.5330   17.9363   25.7060 H   0  0  0  0  0  0  0  0  0  0  0  0
   20.2631   19.1852   26.4922 H   0  0  0  0  0  0  0  0  0  0  0  0
   20.4973   19.2911   24.3858 C   0  0  0  0  0  0  0  0  0  0  0  0
   21.4511   18.7569   24.4071 H   0  0  0  0  0  0  0  0  0  0  0  0
   20.7046   20.3645   24.4050 H   0  0  0  0  0  0  0  0  0  0  0  0
   19.7326   18.9344   23.0985 C   0  0  0  0  0  0  0  0  0  0  0  0
   19.5127   17.8584   23.0910 H   0  0  0  0  0  0  0  0  0  0  0  0
   18.7686   19.4604   23.0890 H   0  0  0  0  0  0  0  0  0  0  0  0
   20.5421   19.3089   21.8371 C   0  0  0  0  0  0  0  0  0  0  0  0
   21.5081   18.7850   21.8525 H   0  0  0  0  0  0  0  0  0  0  0  0
   20.7648   20.3851   21.8505 H   0  0  0  0  0  0  0  0  0  0  0  0
   19.7839   18.9551   20.5381 C   0  0  0  0  0  0  0  0  0  0  0  0
   19.5612   17.8790   20.5195 H   0  0  0  0  0  0  0  0  0  0  0  0
   18.8177   19.4787   20.5177 H   0  0  0  0  0  0  0  0  0  0  0  0
   20.5964   19.3312   19.2806 C   0  0  0  0  0  0  0  0  0  0  0  0
   21.5547   18.7964   19.2548 H   0  0  0  0  0  0  0  0  0  0  0  0
   20.0420   19.0726   18.3691 H   0  0  0  0  0  0  0  0  0  0  0  0
   20.8054   20.4086   19.2530 H   0  0  0  0  0  0  0  0  0  0  0  0
  1  2  1  0  0  0  0
  1  3  1  0  0  0  0
  1  4  1  0  0  0  0
  1  5  1  0  0  0  0
  5  6  1  0  0  0  0
  5  7  1  0  0  0  0
  5  8  1  0  0  0  0
  8  9  1  0  0  0  0
  8 10  1  0  0  0  0
  8 11  1  0  0  0  0
 11 12  1  0  0  0  0
 11 13  1  0  0  0  0
 11 14  1  0  0  0  0
 14 15  1  0  0  0  0
 14 16  1  0  0  0  0
 14 17  1  0  0  0  0
 17 18  1  0  0  0  0
 17 19  1  0  0  0  0
 17 20  1  0  0  0  0
M  END
> <VM2 Rank>
1

> <Conf_Id>
371

> <Probability>
19.94

> <Sum Probability>
19.94

> <Delta G>
0.000

> <G>
27.004

> <E>
4.315

> <-TS>
22.689

> <U+W>
-11.781

> <U>
45.772

> <W>
-57.552

> <W(PB)>
-59.512

> <W(SA)>
1.960

> <Valence>
1.299

> <Coulomb>
44.177

> <VdW>
0.297

> <VdW6>
-3.490

> <VdW12>
3.786

> <Bond>
0.096

> <Angle>
0.381

> <Pdih>
0.822

> <Idih>
0.000

> <Tether>
0.000

$$$$
