@<TRIPOS>MOLECULE
guest-7_vm2.mol2 : vm2 ligand conformer 1
          19          18           1
SMALL
USER_CHARGES
 
@<TRIPOS>ATOM
       1    C1      19.953882   19.277059   25.514500 C.2        1 MOL1         0.6115
       2    O1      20.650149   18.476328   26.106298 O.co2      1 MOL1        -0.6776
       3    O2      19.731771   20.401792   25.916773 O.co2      1 MOL1        -0.6776
       4    C2      19.341878   18.854162   24.183720 C.3        1 MOL1        -0.2013
       5    H1      18.377853   19.365407   24.074051 H          1 MOL1         0.0727
       6    H2      19.134633   17.778238   24.230395 H          1 MOL1         0.0727
       7    C3      20.254891   19.170285   22.973517 C.3        1 MOL1        -0.1910
       8    H3      20.463377   20.248918   22.948290 H          1 MOL1         0.0729
       9    H4      21.220117   18.661648   23.104583 H          1 MOL1         0.0729
      10    C4      19.612744   18.732776   21.639403 C.3        1 MOL1        -0.1909
      11    H5      18.647497   19.241935   21.511938 H          1 MOL1         0.0729
      12    H6      19.404325   17.654387   21.668273 H          1 MOL1         0.0729
      13    C5      20.524477   19.048881   20.435580 C.3        1 MOL1        -0.1884
      14    H7      20.733689   20.127122   20.402126 H          1 MOL1         0.0729
      15    H8      21.490466   18.539707   20.558456 H          1 MOL1         0.0729
      16    C6      19.880209   18.610718   19.105208 C.3        1 MOL1        -0.2899
      17    H9      19.688713   17.529649   19.098810 H          1 MOL1         0.0741
      18    H10     18.926275   19.128953   18.941303 H          1 MOL1         0.0741
      19    H11     20.541521   18.842776   18.260268 H          1 MOL1         0.0741
@<TRIPOS>BOND
    1     1     2    1
    2     1     3    2
    3     1     4    1
    4     4     5    1
    5     4     6    1
    6     4     7    1
    7     7     8    1
    8     7     9    1
    9     7    10    1
   10    10    11    1
   11    10    12    1
   12    10    13    1
   13    13    14    1
   14    13    15    1
   15    13    16    1
   16    16    17    1
   17    16    18    1
   18    16    19    1
@<TRIPOS>SUBSTRUCTURE
       1 MOL1            1 RESIDUE      1      MOL     
@<SCITEGIC>MOL_PROPERTY
VM2 Rank
SciTegic.value.IntegerValue
1

@<SCITEGIC>MOL_PROPERTY
Conf_Id
SciTegic.value.IntegerValue
193

@<SCITEGIC>MOL_PROPERTY
Probability
SciTegic.value.DoubleValue
41.03

@<SCITEGIC>MOL_PROPERTY
Sum Probability
SciTegic.value.DoubleValue
41.03

@<SCITEGIC>MOL_PROPERTY
Delta G
SciTegic.value.DoubleValue
0.000

@<SCITEGIC>MOL_PROPERTY
G
SciTegic.value.DoubleValue
-26.152

@<SCITEGIC>MOL_PROPERTY
E
SciTegic.value.DoubleValue
-40.889

@<SCITEGIC>MOL_PROPERTY
-TS
SciTegic.value.DoubleValue
14.737

@<SCITEGIC>MOL_PROPERTY
U+W
SciTegic.value.DoubleValue
-56.091

@<SCITEGIC>MOL_PROPERTY
U
SciTegic.value.DoubleValue
5.975

@<SCITEGIC>MOL_PROPERTY
W
SciTegic.value.DoubleValue
-62.065

@<SCITEGIC>MOL_PROPERTY
W(PB)
SciTegic.value.DoubleValue
-64.218

@<SCITEGIC>MOL_PROPERTY
W(SA)
SciTegic.value.DoubleValue
2.153

@<SCITEGIC>MOL_PROPERTY
Valence
SciTegic.value.DoubleValue
6.673

@<SCITEGIC>MOL_PROPERTY
Coulomb
SciTegic.value.DoubleValue
-1.307

@<SCITEGIC>MOL_PROPERTY
VdW
SciTegic.value.DoubleValue
0.610

@<SCITEGIC>MOL_PROPERTY
VdW6
SciTegic.value.DoubleValue
-5.351

@<SCITEGIC>MOL_PROPERTY
VdW12
SciTegic.value.DoubleValue
5.961

@<SCITEGIC>MOL_PROPERTY
Bond
SciTegic.value.DoubleValue
0.086

@<SCITEGIC>MOL_PROPERTY
Angle
SciTegic.value.DoubleValue
2.253

@<SCITEGIC>MOL_PROPERTY
Pdih
SciTegic.value.DoubleValue
4.333

@<SCITEGIC>MOL_PROPERTY
Idih
SciTegic.value.DoubleValue
0.001

@<SCITEGIC>MOL_PROPERTY
Tether
SciTegic.value.DoubleValue
0.000

@<TRIPOS>MOLECULE
guest-7_vm2.mol2 : vm2 ligand conformer 2
          19          18           1
SMALL
USER_CHARGES
 
@<TRIPOS>ATOM
       1    C1      19.829185   19.314614   25.369476 C.2        1 MOL1         0.6115
       2    O1      20.145890   18.455862   26.168557 O.co2      1 MOL1        -0.6776
       3    O2      19.725736   20.491535   25.653059 O.co2      1 MOL1        -0.6776
       4    C2      19.568120   18.895237   23.927143 C.3        1 MOL1        -0.2013
       5    H1      18.793766   19.556740   23.522623 H          1 MOL1         0.0727
       6    H2      19.155649   17.879229   23.937496 H          1 MOL1         0.0727
       7    C3      20.844177   18.945322   23.047172 C.3        1 MOL1        -0.1910
       8    H3      21.222808   19.976064   23.008168 H          1 MOL1         0.0729
       9    H4      21.628284   18.344955   23.529003 H          1 MOL1         0.0729
      10    C4      20.625421   18.413834   21.610789 C.3        1 MOL1        -0.1909
      11    H5      20.255146   17.380337   21.653098 H          1 MOL1         0.0729
      12    H6      21.598162   18.374801   21.101608 H          1 MOL1         0.0729
      13    C5      19.656235   19.280571   20.775949 C.3        1 MOL1        -0.1884
      14    H7      18.655441   19.271358   21.227268 H          1 MOL1         0.0729
      15    H8      19.998859   20.324543   20.775904 H          1 MOL1         0.0729
      16    C6      19.555237   18.775024   19.322855 C.3        1 MOL1        -0.2899
      17    H9      20.533992   18.806799   18.826452 H          1 MOL1         0.0741
      18    H10     19.188239   17.740735   19.291812 H          1 MOL1         0.0741
      19    H11     18.861505   19.398414   18.743882 H          1 MOL1         0.0741
@<TRIPOS>BOND
    1     1     2    1
    2     1     3    2
    3     1     4    1
    4     4     5    1
    5     4     6    1
    6     4     7    1
    7     7     8    1
    8     7     9    1
    9     7    10    1
   10    10    11    1
   11    10    12    1
   12    10    13    1
   13    13    14    1
   14    13    15    1
   15    13    16    1
   16    16    17    1
   17    16    18    1
   18    16    19    1
@<TRIPOS>SUBSTRUCTURE
       1 MOL1            1 RESIDUE      1      MOL     
@<SCITEGIC>MOL_PROPERTY
VM2 Rank
SciTegic.value.IntegerValue
2

@<SCITEGIC>MOL_PROPERTY
Conf_Id
SciTegic.value.IntegerValue
258

@<SCITEGIC>MOL_PROPERTY
Probability
SciTegic.value.DoubleValue
11.86

@<SCITEGIC>MOL_PROPERTY
Sum Probability
SciTegic.value.DoubleValue
52.90

@<SCITEGIC>MOL_PROPERTY
Delta G
SciTegic.value.DoubleValue
0.740

@<SCITEGIC>MOL_PROPERTY
G
SciTegic.value.DoubleValue
-25.412

@<SCITEGIC>MOL_PROPERTY
E
SciTegic.value.DoubleValue
-40.258

@<SCITEGIC>MOL_PROPERTY
-TS
SciTegic.value.DoubleValue
14.846

@<SCITEGIC>MOL_PROPERTY
U+W
SciTegic.value.DoubleValue
-55.460

@<SCITEGIC>MOL_PROPERTY
U
SciTegic.value.DoubleValue
6.914

@<SCITEGIC>MOL_PROPERTY
W
SciTegic.value.DoubleValue
-62.374

@<SCITEGIC>MOL_PROPERTY
W(PB)
SciTegic.value.DoubleValue
-64.451

@<SCITEGIC>MOL_PROPERTY
W(SA)
SciTegic.value.DoubleValue
2.077

@<SCITEGIC>MOL_PROPERTY
Valence
SciTegic.value.DoubleValue
7.196

@<SCITEGIC>MOL_PROPERTY
Coulomb
SciTegic.value.DoubleValue
-1.020

@<SCITEGIC>MOL_PROPERTY
VdW
SciTegic.value.DoubleValue
0.738

@<SCITEGIC>MOL_PROPERTY
VdW6
SciTegic.value.DoubleValue
-6.011

@<SCITEGIC>MOL_PROPERTY
VdW12
SciTegic.value.DoubleValue
6.749

@<SCITEGIC>MOL_PROPERTY
Bond
SciTegic.value.DoubleValue
0.126

@<SCITEGIC>MOL_PROPERTY
Angle
SciTegic.value.DoubleValue
2.499

@<SCITEGIC>MOL_PROPERTY
Pdih
SciTegic.value.DoubleValue
4.570

@<SCITEGIC>MOL_PROPERTY
Idih
SciTegic.value.DoubleValue
0.001

@<SCITEGIC>MOL_PROPERTY
Tether
SciTegic.value.DoubleValue
0.000

@<TRIPOS>MOLECULE
guest-7_vm2.mol2 : vm2 ligand conformer 3
          19          18           1
SMALL
USER_CHARGES
 
@<TRIPOS>ATOM
       1    C1      20.174655   19.373070   25.360712 C.2        1 MOL1         0.6115
       2    O1      20.198189   18.464708   26.167318 O.co2      1 MOL1        -0.6776
       3    O2      19.898452   20.520735   25.648534 O.co2      1 MOL1        -0.6776
       4    C2      20.487442   19.050804   23.903774 C.3        1 MOL1        -0.2013
       5    H1      21.211031   18.227040   23.885214 H          1 MOL1         0.0727
       6    H2      20.980227   19.926734   23.467021 H          1 MOL1         0.0727
       7    C3      19.224024   18.671157   23.088405 C.3        1 MOL1        -0.1910
       8    H3      18.705751   17.850412   23.603374 H          1 MOL1         0.0729
       9    H4      18.526090   19.519722   23.076776 H          1 MOL1         0.0729
      10    C4      19.534099   18.229143   21.638576 C.3        1 MOL1        -0.1909
      11    H5      18.604397   17.868060   21.177829 H          1 MOL1         0.0729
      12    H6      20.225315   17.375330   21.653889 H          1 MOL1         0.0729
      13    C5      20.121718   19.359393   20.764076 C.3        1 MOL1        -0.1884
      14    H7      19.455184   20.232518   20.789661 H          1 MOL1         0.0729
      15    H8      21.090861   19.683705   21.165260 H          1 MOL1         0.0729
      16    C6      20.311420   18.902991   19.303605 C.3        1 MOL1        -0.2899
      17    H9      20.731891   19.715013   18.696222 H          1 MOL1         0.0741
      18    H10     20.996264   18.046803   19.245832 H          1 MOL1         0.0741
      19    H11     19.353417   18.606795   18.856522 H          1 MOL1         0.0741
@<TRIPOS>BOND
    1     1     2    1
    2     1     3    2
    3     1     4    1
    4     4     5    1
    5     4     6    1
    6     4     7    1
    7     7     8    1
    8     7     9    1
    9     7    10    1
   10    10    11    1
   11    10    12    1
   12    10    13    1
   13    13    14    1
   14    13    15    1
   15    13    16    1
   16    16    17    1
   17    16    18    1
   18    16    19    1
@<TRIPOS>SUBSTRUCTURE
       1 MOL1            1 RESIDUE      1      MOL     
@<SCITEGIC>MOL_PROPERTY
VM2 Rank
SciTegic.value.IntegerValue
3

@<SCITEGIC>MOL_PROPERTY
Conf_Id
SciTegic.value.IntegerValue
261

@<SCITEGIC>MOL_PROPERTY
Probability
SciTegic.value.DoubleValue
11.06

@<SCITEGIC>MOL_PROPERTY
Sum Probability
SciTegic.value.DoubleValue
63.96

@<SCITEGIC>MOL_PROPERTY
Delta G
SciTegic.value.DoubleValue
0.781

@<SCITEGIC>MOL_PROPERTY
G
SciTegic.value.DoubleValue
-25.371

@<SCITEGIC>MOL_PROPERTY
E
SciTegic.value.DoubleValue
-40.216

@<SCITEGIC>MOL_PROPERTY
-TS
SciTegic.value.DoubleValue
14.846

@<SCITEGIC>MOL_PROPERTY
U+W
SciTegic.value.DoubleValue
-55.418

@<SCITEGIC>MOL_PROPERTY
U
SciTegic.value.DoubleValue
6.914

@<SCITEGIC>MOL_PROPERTY
W
SciTegic.value.DoubleValue
-62.332

@<SCITEGIC>MOL_PROPERTY
W(PB)
SciTegic.value.DoubleValue
-64.422

@<SCITEGIC>MOL_PROPERTY
W(SA)
SciTegic.value.DoubleValue
2.090

@<SCITEGIC>MOL_PROPERTY
Valence
SciTegic.value.DoubleValue
7.196

@<SCITEGIC>MOL_PROPERTY
Coulomb
SciTegic.value.DoubleValue
-1.020

@<SCITEGIC>MOL_PROPERTY
VdW
SciTegic.value.DoubleValue
0.738

@<SCITEGIC>MOL_PROPERTY
VdW6
SciTegic.value.DoubleValue
-6.011

@<SCITEGIC>MOL_PROPERTY
VdW12
SciTegic.value.DoubleValue
6.749

@<SCITEGIC>MOL_PROPERTY
Bond
SciTegic.value.DoubleValue
0.126

@<SCITEGIC>MOL_PROPERTY
Angle
SciTegic.value.DoubleValue
2.499

@<SCITEGIC>MOL_PROPERTY
Pdih
SciTegic.value.DoubleValue
4.570

@<SCITEGIC>MOL_PROPERTY
Idih
SciTegic.value.DoubleValue
0.001

@<SCITEGIC>MOL_PROPERTY
Tether
SciTegic.value.DoubleValue
0.000

@<TRIPOS>MOLECULE
guest-7_vm2.mol2 : vm2 ligand conformer 4
          19          18           1
SMALL
USER_CHARGES
 
@<TRIPOS>ATOM
       1    C1      20.010558   19.375756   25.374290 C.2        1 MOL1         0.6115
       2    O1      20.802574   18.706753   26.007844 O.co2      1 MOL1        -0.6776
       3    O2      19.750011   20.533887   25.633267 O.co2      1 MOL1        -0.6776
       4    C2      19.318801   18.731841   24.177902 C.3        1 MOL1        -0.2013
       5    H1      18.320256   19.175071   24.082076 H          1 MOL1         0.0727
       6    H2      19.180851   17.666221   24.397227 H          1 MOL1         0.0727
       7    C3      20.109733   18.908338   22.858162 C.3        1 MOL1        -0.1910
       8    H3      20.251544   19.980695   22.669582 H          1 MOL1         0.0729
       9    H4      21.109836   18.468059   22.973001 H          1 MOL1         0.0729
      10    C4      19.384006   18.249596   21.662323 C.3        1 MOL1        -0.1909
      11    H5      18.403651   18.723733   21.517053 H          1 MOL1         0.0729
      12    H6      19.187761   17.195092   21.900026 H          1 MOL1         0.0729
      13    C5      20.189698   18.313918   20.344251 C.3        1 MOL1        -0.1884
      14    H7      21.168961   17.835544   20.483994 H          1 MOL1         0.0729
      15    H8      19.663165   17.725557   19.580157 H          1 MOL1         0.0729
      16    C6      20.384618   19.751911   19.816961 C.3        1 MOL1        -0.2899
      17    H9      21.006098   20.347471   20.497267 H          1 MOL1         0.0741
      18    H10     20.882792   19.737666   18.838921 H          1 MOL1         0.0741
      19    H11     19.419261   20.260716   19.697120 H          1 MOL1         0.0741
@<TRIPOS>BOND
    1     1     2    1
    2     1     3    2
    3     1     4    1
    4     4     5    1
    5     4     6    1
    6     4     7    1
    7     7     8    1
    8     7     9    1
    9     7    10    1
   10    10    11    1
   11    10    12    1
   12    10    13    1
   13    13    14    1
   14    13    15    1
   15    13    16    1
   16    16    17    1
   17    16    18    1
   18    16    19    1
@<TRIPOS>SUBSTRUCTURE
       1 MOL1            1 RESIDUE      1      MOL     
@<SCITEGIC>MOL_PROPERTY
VM2 Rank
SciTegic.value.IntegerValue
4

@<SCITEGIC>MOL_PROPERTY
Conf_Id
SciTegic.value.IntegerValue
56

@<SCITEGIC>MOL_PROPERTY
Probability
SciTegic.value.DoubleValue
9.39

@<SCITEGIC>MOL_PROPERTY
Sum Probability
SciTegic.value.DoubleValue
73.35

@<SCITEGIC>MOL_PROPERTY
Delta G
SciTegic.value.DoubleValue
0.880

@<SCITEGIC>MOL_PROPERTY
G
SciTegic.value.DoubleValue
-25.272

@<SCITEGIC>MOL_PROPERTY
E
SciTegic.value.DoubleValue
-40.125

@<SCITEGIC>MOL_PROPERTY
-TS
SciTegic.value.DoubleValue
14.853

@<SCITEGIC>MOL_PROPERTY
U+W
SciTegic.value.DoubleValue
-55.327

@<SCITEGIC>MOL_PROPERTY
U
SciTegic.value.DoubleValue
7.244

@<SCITEGIC>MOL_PROPERTY
W
SciTegic.value.DoubleValue
-62.571

@<SCITEGIC>MOL_PROPERTY
W(PB)
SciTegic.value.DoubleValue
-64.665

@<SCITEGIC>MOL_PROPERTY
W(SA)
SciTegic.value.DoubleValue
2.094

@<SCITEGIC>MOL_PROPERTY
Valence
SciTegic.value.DoubleValue
7.174

@<SCITEGIC>MOL_PROPERTY
Coulomb
SciTegic.value.DoubleValue
-0.669

@<SCITEGIC>MOL_PROPERTY
VdW
SciTegic.value.DoubleValue
0.739

@<SCITEGIC>MOL_PROPERTY
VdW6
SciTegic.value.DoubleValue
-5.969

@<SCITEGIC>MOL_PROPERTY
VdW12
SciTegic.value.DoubleValue
6.708

@<SCITEGIC>MOL_PROPERTY
Bond
SciTegic.value.DoubleValue
0.116

@<SCITEGIC>MOL_PROPERTY
Angle
SciTegic.value.DoubleValue
2.481

@<SCITEGIC>MOL_PROPERTY
Pdih
SciTegic.value.DoubleValue
4.576

@<SCITEGIC>MOL_PROPERTY
Idih
SciTegic.value.DoubleValue
0.000

@<SCITEGIC>MOL_PROPERTY
Tether
SciTegic.value.DoubleValue
0.000

@<TRIPOS>MOLECULE
guest-7_vm2.mol2 : vm2 ligand conformer 5
          19          18           1
SMALL
USER_CHARGES
 
@<TRIPOS>ATOM
       1    C1      19.872843   19.287652   25.381676 C.2        1 MOL1         0.6115
       2    O1      20.197346   18.319340   26.039941 O.co2      1 MOL1        -0.6776
       3    O2      18.951201   20.022641   25.675936 O.co2      1 MOL1        -0.6776
       4    C2      20.653642   19.586250   24.106649 C.3        1 MOL1        -0.2013
       5    H1      21.693325   19.274386   24.263103 H          1 MOL1         0.0727
       6    H2      20.660020   20.672685   23.957160 H          1 MOL1         0.0727
       7    C3      20.064963   18.879705   22.860577 C.3        1 MOL1        -0.1910
       8    H3      20.056635   17.794023   23.029292 H          1 MOL1         0.0729
       9    H4      19.019916   19.192451   22.735328 H          1 MOL1         0.0729
      10    C4      20.873440   19.202800   21.582831 C.3        1 MOL1        -0.1909
      11    H5      21.928651   18.949194   21.753731 H          1 MOL1         0.0729
      12    H6      20.840633   20.283339   21.386966 H          1 MOL1         0.0729
      13    C5      20.380343   18.435917   20.334097 C.3        1 MOL1        -0.1884
      14    H7      21.074761   18.629039   19.504801 H          1 MOL1         0.0729
      15    H8      20.417122   17.354316   20.524129 H          1 MOL1         0.0729
      16    C6      18.956221   18.837696   19.893294 C.3        1 MOL1        -0.2899
      17    H9      18.687973   18.332981   18.956145 H          1 MOL1         0.0741
      18    H10     18.209443   18.557464   20.646645 H          1 MOL1         0.0741
      19    H11     18.887579   19.920443   19.725650 H          1 MOL1         0.0741
@<TRIPOS>BOND
    1     1     2    1
    2     1     3    2
    3     1     4    1
    4     4     5    1
    5     4     6    1
    6     4     7    1
    7     7     8    1
    8     7     9    1
    9     7    10    1
   10    10    11    1
   11    10    12    1
   12    10    13    1
   13    13    14    1
   14    13    15    1
   15    13    16    1
   16    16    17    1
   17    16    18    1
   18    16    19    1
@<TRIPOS>SUBSTRUCTURE
       1 MOL1            1 RESIDUE      1      MOL     
@<SCITEGIC>MOL_PROPERTY
VM2 Rank
SciTegic.value.IntegerValue
5

@<SCITEGIC>MOL_PROPERTY
Conf_Id
SciTegic.value.IntegerValue
93

@<SCITEGIC>MOL_PROPERTY
Probability
SciTegic.value.DoubleValue
9.28

@<SCITEGIC>MOL_PROPERTY
Sum Probability
SciTegic.value.DoubleValue
82.63

@<SCITEGIC>MOL_PROPERTY
Delta G
SciTegic.value.DoubleValue
0.886

@<SCITEGIC>MOL_PROPERTY
G
SciTegic.value.DoubleValue
-25.266

@<SCITEGIC>MOL_PROPERTY
E
SciTegic.value.DoubleValue
-40.119

@<SCITEGIC>MOL_PROPERTY
-TS
SciTegic.value.DoubleValue
14.853

@<SCITEGIC>MOL_PROPERTY
U+W
SciTegic.value.DoubleValue
-55.321

@<SCITEGIC>MOL_PROPERTY
U
SciTegic.value.DoubleValue
7.244

@<SCITEGIC>MOL_PROPERTY
W
SciTegic.value.DoubleValue
-62.565

@<SCITEGIC>MOL_PROPERTY
W(PB)
SciTegic.value.DoubleValue
-64.668

@<SCITEGIC>MOL_PROPERTY
W(SA)
SciTegic.value.DoubleValue
2.103

@<SCITEGIC>MOL_PROPERTY
Valence
SciTegic.value.DoubleValue
7.174

@<SCITEGIC>MOL_PROPERTY
Coulomb
SciTegic.value.DoubleValue
-0.669

@<SCITEGIC>MOL_PROPERTY
VdW
SciTegic.value.DoubleValue
0.739

@<SCITEGIC>MOL_PROPERTY
VdW6
SciTegic.value.DoubleValue
-5.969

@<SCITEGIC>MOL_PROPERTY
VdW12
SciTegic.value.DoubleValue
6.708

@<SCITEGIC>MOL_PROPERTY
Bond
SciTegic.value.DoubleValue
0.116

@<SCITEGIC>MOL_PROPERTY
Angle
SciTegic.value.DoubleValue
2.481

@<SCITEGIC>MOL_PROPERTY
Pdih
SciTegic.value.DoubleValue
4.576

@<SCITEGIC>MOL_PROPERTY
Idih
SciTegic.value.DoubleValue
0.000

@<SCITEGIC>MOL_PROPERTY
Tether
SciTegic.value.DoubleValue
0.000

@<TRIPOS>MOLECULE
guest-7_vm2.mol2 : vm2 ligand conformer 6
          19          18           1
SMALL
USER_CHARGES
 
@<TRIPOS>ATOM
       1    C1      20.139706   19.212458   25.180273 C.2        1 MOL1         0.6115
       2    O1      20.910469   18.297435   25.392897 O.co2      1 MOL1        -0.6776
       3    O2      20.319239   20.347596   25.575128 O.co2      1 MOL1        -0.6776
       4    C2      18.865482   18.917597   24.393664 C.3        1 MOL1        -0.2013
       5    H1      18.032522   19.385965   24.931175 H          1 MOL1         0.0727
       6    H2      18.685695   17.835756   24.410484 H          1 MOL1         0.0727
       7    C3      18.892731   19.432907   22.931200 C.3        1 MOL1        -0.1910
       8    H3      17.895519   19.303489   22.489213 H          1 MOL1         0.0729
       9    H4      19.102048   20.511709   22.929348 H          1 MOL1         0.0729
      10    C4      19.935136   18.695976   22.060779 C.3        1 MOL1        -0.1909
      11    H5      19.729398   17.616874   22.076284 H          1 MOL1         0.0729
      12    H6      20.938276   18.834849   22.487214 H          1 MOL1         0.0729
      13    C5      19.923089   19.202611   20.603460 C.3        1 MOL1        -0.1884
      14    H7      18.923061   19.062325   20.170223 H          1 MOL1         0.0729
      15    H8      20.131004   20.281453   20.584857 H          1 MOL1         0.0729
      16    C6      20.964149   18.465419   19.737599 C.3        1 MOL1        -0.2899
      17    H9      21.978328   18.614818   20.130743 H          1 MOL1         0.0741
      18    H10     20.761422   17.386669   19.713069 H          1 MOL1         0.0741
      19    H11     20.942399   18.838066   18.705249 H          1 MOL1         0.0741
@<TRIPOS>BOND
    1     1     2    1
    2     1     3    2
    3     1     4    1
    4     4     5    1
    5     4     6    1
    6     4     7    1
    7     7     8    1
    8     7     9    1
    9     7    10    1
   10    10    11    1
   11    10    12    1
   12    10    13    1
   13    13    14    1
   14    13    15    1
   15    13    16    1
   16    16    17    1
   17    16    18    1
   18    16    19    1
@<TRIPOS>SUBSTRUCTURE
       1 MOL1            1 RESIDUE      1      MOL     
@<SCITEGIC>MOL_PROPERTY
VM2 Rank
SciTegic.value.IntegerValue
6

@<SCITEGIC>MOL_PROPERTY
Conf_Id
SciTegic.value.IntegerValue
278

@<SCITEGIC>MOL_PROPERTY
Probability
SciTegic.value.DoubleValue
3.73

@<SCITEGIC>MOL_PROPERTY
Sum Probability
SciTegic.value.DoubleValue
86.36

@<SCITEGIC>MOL_PROPERTY
Delta G
SciTegic.value.DoubleValue
1.430

@<SCITEGIC>MOL_PROPERTY
G
SciTegic.value.DoubleValue
-24.722

@<SCITEGIC>MOL_PROPERTY
E
SciTegic.value.DoubleValue
-39.769

@<SCITEGIC>MOL_PROPERTY
-TS
SciTegic.value.DoubleValue
15.047

@<SCITEGIC>MOL_PROPERTY
U+W
SciTegic.value.DoubleValue
-54.971

@<SCITEGIC>MOL_PROPERTY
U
SciTegic.value.DoubleValue
8.266

@<SCITEGIC>MOL_PROPERTY
W
SciTegic.value.DoubleValue
-63.238

@<SCITEGIC>MOL_PROPERTY
W(PB)
SciTegic.value.DoubleValue
-65.341

@<SCITEGIC>MOL_PROPERTY
W(SA)
SciTegic.value.DoubleValue
2.103

@<SCITEGIC>MOL_PROPERTY
Valence
SciTegic.value.DoubleValue
6.935

@<SCITEGIC>MOL_PROPERTY
Coulomb
SciTegic.value.DoubleValue
0.874

@<SCITEGIC>MOL_PROPERTY
VdW
SciTegic.value.DoubleValue
0.457

@<SCITEGIC>MOL_PROPERTY
VdW6
SciTegic.value.DoubleValue
-6.205

@<SCITEGIC>MOL_PROPERTY
VdW12
SciTegic.value.DoubleValue
6.662

@<SCITEGIC>MOL_PROPERTY
Bond
SciTegic.value.DoubleValue
0.107

@<SCITEGIC>MOL_PROPERTY
Angle
SciTegic.value.DoubleValue
2.420

@<SCITEGIC>MOL_PROPERTY
Pdih
SciTegic.value.DoubleValue
4.407

@<SCITEGIC>MOL_PROPERTY
Idih
SciTegic.value.DoubleValue
0.001

@<SCITEGIC>MOL_PROPERTY
Tether
SciTegic.value.DoubleValue
0.000

@<TRIPOS>MOLECULE
guest-7_vm2.mol2 : vm2 ligand conformer 7
          19          18           1
SMALL
USER_CHARGES
 
@<TRIPOS>ATOM
       1    C1      20.046906   19.406915   25.161170 C.2        1 MOL1         0.6115
       2    O1      21.005441   18.908436   25.717418 O.co2      1 MOL1        -0.6776
       3    O2      19.812576   20.599232   25.165862 O.co2      1 MOL1        -0.6776
       4    C2      19.073903   18.480827   24.436625 C.3        1 MOL1        -0.2013
       5    H1      18.124720   19.011723   24.294548 H          1 MOL1         0.0727
       6    H2      18.867702   17.635321   25.103493 H          1 MOL1         0.0727
       7    C3      19.599707   17.951415   23.077088 C.3        1 MOL1        -0.1910
       8    H3      20.564129   17.447643   23.231150 H          1 MOL1         0.0729
       9    H4      18.903228   17.191747   22.697144 H          1 MOL1         0.0729
      10    C4      19.756340   19.070970   22.023823 C.3        1 MOL1        -0.1909
      11    H5      20.465137   19.826844   22.389452 H          1 MOL1         0.0729
      12    H6      18.792940   19.579944   21.882988 H          1 MOL1         0.0729
      13    C5      20.250013   18.517404   20.670880 C.3        1 MOL1        -0.1884
      14    H7      21.214865   18.009847   20.808430 H          1 MOL1         0.0729
      15    H8      19.542648   17.763661   20.298139 H          1 MOL1         0.0729
      16    C6      20.405113   19.636801   19.622134 C.3        1 MOL1        -0.2899
      17    H9      20.757098   19.225998   18.666921 H          1 MOL1         0.0741
      18    H10     19.446869   20.141410   19.441735 H          1 MOL1         0.0741
      19    H11     21.131469   20.389476   19.955796 H          1 MOL1         0.0741
@<TRIPOS>BOND
    1     1     2    1
    2     1     3    2
    3     1     4    1
    4     4     5    1
    5     4     6    1
    6     4     7    1
    7     7     8    1
    8     7     9    1
    9     7    10    1
   10    10    11    1
   11    10    12    1
   12    10    13    1
   13    13    14    1
   14    13    15    1
   15    13    16    1
   16    16    17    1
   17    16    18    1
   18    16    19    1
@<TRIPOS>SUBSTRUCTURE
       1 MOL1            1 RESIDUE      1      MOL     
@<SCITEGIC>MOL_PROPERTY
VM2 Rank
SciTegic.value.IntegerValue
7

@<SCITEGIC>MOL_PROPERTY
Conf_Id
SciTegic.value.IntegerValue
247

@<SCITEGIC>MOL_PROPERTY
Probability
SciTegic.value.DoubleValue
3.72

@<SCITEGIC>MOL_PROPERTY
Sum Probability
SciTegic.value.DoubleValue
90.07

@<SCITEGIC>MOL_PROPERTY
Delta G
SciTegic.value.DoubleValue
1.432

@<SCITEGIC>MOL_PROPERTY
G
SciTegic.value.DoubleValue
-24.720

@<SCITEGIC>MOL_PROPERTY
E
SciTegic.value.DoubleValue
-39.768

@<SCITEGIC>MOL_PROPERTY
-TS
SciTegic.value.DoubleValue
15.047

@<SCITEGIC>MOL_PROPERTY
U+W
SciTegic.value.DoubleValue
-54.970

@<SCITEGIC>MOL_PROPERTY
U
SciTegic.value.DoubleValue
8.266

@<SCITEGIC>MOL_PROPERTY
W
SciTegic.value.DoubleValue
-63.236

@<SCITEGIC>MOL_PROPERTY
W(PB)
SciTegic.value.DoubleValue
-65.330

@<SCITEGIC>MOL_PROPERTY
W(SA)
SciTegic.value.DoubleValue
2.095

@<SCITEGIC>MOL_PROPERTY
Valence
SciTegic.value.DoubleValue
6.935

@<SCITEGIC>MOL_PROPERTY
Coulomb
SciTegic.value.DoubleValue
0.874

@<SCITEGIC>MOL_PROPERTY
VdW
SciTegic.value.DoubleValue
0.457

@<SCITEGIC>MOL_PROPERTY
VdW6
SciTegic.value.DoubleValue
-6.205

@<SCITEGIC>MOL_PROPERTY
VdW12
SciTegic.value.DoubleValue
6.662

@<SCITEGIC>MOL_PROPERTY
Bond
SciTegic.value.DoubleValue
0.107

@<SCITEGIC>MOL_PROPERTY
Angle
SciTegic.value.DoubleValue
2.420

@<SCITEGIC>MOL_PROPERTY
Pdih
SciTegic.value.DoubleValue
4.407

@<SCITEGIC>MOL_PROPERTY
Idih
SciTegic.value.DoubleValue
0.001

@<SCITEGIC>MOL_PROPERTY
Tether
SciTegic.value.DoubleValue
0.000

@<TRIPOS>MOLECULE
guest-7_vm2.mol2 : vm2 ligand conformer 8
          19          18           1
SMALL
USER_CHARGES
 
@<TRIPOS>ATOM
       1    C1      20.007275   19.223637   25.534936 C.2        1 MOL1         0.6115
       2    O1      19.956584   18.558056   26.549872 O.co2      1 MOL1        -0.6776
       3    O2      20.100840   20.435809   25.540452 O.co2      1 MOL1        -0.6776
       4    C2      19.948085   18.472539   24.203762 C.3        1 MOL1        -0.2013
       5    H1      19.018930   17.890574   24.197543 H          1 MOL1         0.0727
       6    H2      20.776485   17.754384   24.196242 H          1 MOL1         0.0727
       7    C3      20.016267   19.364473   22.935600 C.3        1 MOL1        -0.1910
       8    H3      19.187164   20.085433   22.952137 H          1 MOL1         0.0729
       9    H4      20.946537   19.949139   22.950865 H          1 MOL1         0.0729
      10    C4      19.950425   18.526681   21.640212 C.3        1 MOL1        -0.1909
      11    H5      19.019758   17.942868   21.627118 H          1 MOL1         0.0729
      12    H6      20.780085   17.806537   21.625810 H          1 MOL1         0.0729
      13    C5      20.018304   19.415246   20.380751 C.3        1 MOL1        -0.1884
      14    H7      19.188791   20.135874   20.390487 H          1 MOL1         0.0729
      15    H8      20.948955   19.999466   20.389116 H          1 MOL1         0.0729
      16    C6      19.952219   18.575559   19.089415 C.3        1 MOL1        -0.2899
      17    H9      19.015874   18.004409   19.039765 H          1 MOL1         0.0741
      18    H10     20.001704   19.222871   18.204177 H          1 MOL1         0.0741
      19    H11     20.789291   17.866949   19.038388 H          1 MOL1         0.0741
@<TRIPOS>BOND
    1     1     2    1
    2     1     3    2
    3     1     4    1
    4     4     5    1
    5     4     6    1
    6     4     7    1
    7     7     8    1
    8     7     9    1
    9     7    10    1
   10    10    11    1
   11    10    12    1
   12    10    13    1
   13    13    14    1
   14    13    15    1
   15    13    16    1
   16    16    17    1
   17    16    18    1
   18    16    19    1
@<TRIPOS>SUBSTRUCTURE
       1 MOL1            1 RESIDUE      1      MOL     
@<SCITEGIC>MOL_PROPERTY
VM2 Rank
SciTegic.value.IntegerValue
8

@<SCITEGIC>MOL_PROPERTY
Conf_Id
SciTegic.value.IntegerValue
0

@<SCITEGIC>MOL_PROPERTY
Probability
SciTegic.value.DoubleValue
2.34

@<SCITEGIC>MOL_PROPERTY
Sum Probability
SciTegic.value.DoubleValue
92.41

@<SCITEGIC>MOL_PROPERTY
Delta G
SciTegic.value.DoubleValue
1.709

@<SCITEGIC>MOL_PROPERTY
G
SciTegic.value.DoubleValue
-24.443

@<SCITEGIC>MOL_PROPERTY
E
SciTegic.value.DoubleValue
-39.689

@<SCITEGIC>MOL_PROPERTY
-TS
SciTegic.value.DoubleValue
15.246

@<SCITEGIC>MOL_PROPERTY
U+W
SciTegic.value.DoubleValue
-54.891

@<SCITEGIC>MOL_PROPERTY
U
SciTegic.value.DoubleValue
6.966

@<SCITEGIC>MOL_PROPERTY
W
SciTegic.value.DoubleValue
-61.857

@<SCITEGIC>MOL_PROPERTY
W(PB)
SciTegic.value.DoubleValue
-63.965

@<SCITEGIC>MOL_PROPERTY
W(SA)
SciTegic.value.DoubleValue
2.108

@<SCITEGIC>MOL_PROPERTY
Valence
SciTegic.value.DoubleValue
7.175

@<SCITEGIC>MOL_PROPERTY
Coulomb
SciTegic.value.DoubleValue
-1.360

@<SCITEGIC>MOL_PROPERTY
VdW
SciTegic.value.DoubleValue
1.151

@<SCITEGIC>MOL_PROPERTY
VdW6
SciTegic.value.DoubleValue
-5.641

@<SCITEGIC>MOL_PROPERTY
VdW12
SciTegic.value.DoubleValue
6.792

@<SCITEGIC>MOL_PROPERTY
Bond
SciTegic.value.DoubleValue
0.119

@<SCITEGIC>MOL_PROPERTY
Angle
SciTegic.value.DoubleValue
2.715

@<SCITEGIC>MOL_PROPERTY
Pdih
SciTegic.value.DoubleValue
4.340

@<SCITEGIC>MOL_PROPERTY
Idih
SciTegic.value.DoubleValue
0.000

@<SCITEGIC>MOL_PROPERTY
Tether
SciTegic.value.DoubleValue
0.000

