@<TRIPOS>MOLECULE
guest-s20_vm2.mol2 : vm2 ligand conformer 1
          17          16           1
SMALL
USER_CHARGES
 
@<TRIPOS>ATOM
       1    C1      20.121615   19.026755   25.064309 C.2        1 MOL1         0.6132
       2    O1      21.229337   19.333284   25.459322 O.co2      1 MOL1        -0.6749
       3    O2      19.098504   19.545608   25.465653 O.co2      1 MOL1        -0.6749
       4    C2      20.007622   17.913631   24.027192 C.3        1 MOL1        -0.1955
       5    H1      19.074631   17.370921   24.218854 H          1 MOL1         0.0733
       6    H2      20.816105   17.197222   24.213878 H          1 MOL1         0.0733
       7    C3      20.047931   18.359452   22.571860 C.2        1 MOL1        -0.1395
       8    H3      19.964244   17.539608   21.861294 H          1 MOL1         0.0816
       9    C4      20.172738   19.623299   22.141652 C.2        1 MOL1        -0.1394
      10    H4      20.255949   20.437120   22.860829 H          1 MOL1         0.0816
      11    C5      20.215010   20.087186   20.695015 C.3        1 MOL1        -0.1826
      12    H5      19.407949   20.813939   20.530719 H          1 MOL1         0.0736
      13    H6      21.148629   20.640634   20.526025 H          1 MOL1         0.0736
      14    C6      20.100243   18.962786   19.641996 C.3        1 MOL1        -0.2882
      15    H7      20.139156   19.380478   18.627572 H          1 MOL1         0.0749
      16    H8      20.924514   18.244351   19.741151 H          1 MOL1         0.0749
      17    H9      19.151002   18.420974   19.745847 H          1 MOL1         0.0749
@<TRIPOS>BOND
    1     1     2    1
    2     1     3    2
    3     1     4    1
    4     4     5    1
    5     4     6    1
    6     4     7    1
    7     7     8    1
    8     7     9    2
    9     9    10    1
   10     9    11    1
   11    11    12    1
   12    11    13    1
   13    11    14    1
   14    14    15    1
   15    14    16    1
   16    14    17    1
@<TRIPOS>SUBSTRUCTURE
       1 MOL1            1 RESIDUE      1      MOL     
@<SCITEGIC>MOL_PROPERTY
VM2 Rank
SciTegic.value.IntegerValue
1

@<SCITEGIC>MOL_PROPERTY
Conf_Id
SciTegic.value.IntegerValue
121

@<SCITEGIC>MOL_PROPERTY
Probability
SciTegic.value.DoubleValue
14.27

@<SCITEGIC>MOL_PROPERTY
Sum Probability
SciTegic.value.DoubleValue
14.27

@<SCITEGIC>MOL_PROPERTY
Delta G
SciTegic.value.DoubleValue
0.000

@<SCITEGIC>MOL_PROPERTY
G
SciTegic.value.DoubleValue
-26.660

@<SCITEGIC>MOL_PROPERTY
E
SciTegic.value.DoubleValue
-36.826

@<SCITEGIC>MOL_PROPERTY
-TS
SciTegic.value.DoubleValue
10.165

@<SCITEGIC>MOL_PROPERTY
U+W
SciTegic.value.DoubleValue
-50.239

@<SCITEGIC>MOL_PROPERTY
U
SciTegic.value.DoubleValue
14.007

@<SCITEGIC>MOL_PROPERTY
W
SciTegic.value.DoubleValue
-64.247

@<SCITEGIC>MOL_PROPERTY
W(PB)
SciTegic.value.DoubleValue
-66.286

@<SCITEGIC>MOL_PROPERTY
W(SA)
SciTegic.value.DoubleValue
2.040

@<SCITEGIC>MOL_PROPERTY
Valence
SciTegic.value.DoubleValue
12.998

@<SCITEGIC>MOL_PROPERTY
Coulomb
SciTegic.value.DoubleValue
-0.405

@<SCITEGIC>MOL_PROPERTY
VdW
SciTegic.value.DoubleValue
1.414

@<SCITEGIC>MOL_PROPERTY
VdW6
SciTegic.value.DoubleValue
-5.682

@<SCITEGIC>MOL_PROPERTY
VdW12
SciTegic.value.DoubleValue
7.096

@<SCITEGIC>MOL_PROPERTY
Bond
SciTegic.value.DoubleValue
0.147

@<SCITEGIC>MOL_PROPERTY
Angle
SciTegic.value.DoubleValue
3.367

@<SCITEGIC>MOL_PROPERTY
Pdih
SciTegic.value.DoubleValue
9.484

@<SCITEGIC>MOL_PROPERTY
Idih
SciTegic.value.DoubleValue
0.001

@<SCITEGIC>MOL_PROPERTY
Tether
SciTegic.value.DoubleValue
0.000

