VeraChem MOL file


 17 16  0  0  0  0  0  0  0  0999 V2000     
   20.1216   19.0268   25.0643 C   0  0  0  0  0  0  0  0  0  0  0  0
   21.2293   19.3333   25.4593 O   0  5  0  0  0  0  0  0  0  0  0  0
   19.0985   19.5456   25.4657 O   0  0  0  0  0  0  0  0  0  0  0  0
   20.0076   17.9136   24.0272 C   0  0  0  0  0  0  0  0  0  0  0  0
   19.0746   17.3709   24.2189 H   0  0  0  0  0  0  0  0  0  0  0  0
   20.8161   17.1972   24.2139 H   0  0  0  0  0  0  0  0  0  0  0  0
   20.0479   18.3595   22.5719 C   0  0  0  0  0  0  0  0  0  0  0  0
   19.9642   17.5396   21.8613 H   0  0  0  0  0  0  0  0  0  0  0  0
   20.1727   19.6233   22.1417 C   0  0  0  0  0  0  0  0  0  0  0  0
   20.2559   20.4371   22.8608 H   0  0  0  0  0  0  0  0  0  0  0  0
   20.2150   20.0872   20.6950 C   0  0  0  0  0  0  0  0  0  0  0  0
   19.4079   20.8139   20.5307 H   0  0  0  0  0  0  0  0  0  0  0  0
   21.1486   20.6406   20.5260 H   0  0  0  0  0  0  0  0  0  0  0  0
   20.1002   18.9628   19.6420 C   0  0  0  0  0  0  0  0  0  0  0  0
   20.1392   19.3805   18.6276 H   0  0  0  0  0  0  0  0  0  0  0  0
   20.9245   18.2444   19.7412 H   0  0  0  0  0  0  0  0  0  0  0  0
   19.1510   18.4210   19.7458 H   0  0  0  0  0  0  0  0  0  0  0  0
  1  2  1  0  0  0  0
  1  3  2  0  0  0  0
  1  4  1  0  0  0  0
  4  5  1  0  0  0  0
  4  6  1  0  0  0  0
  4  7  1  0  0  0  0
  7  8  1  0  0  0  0
  7  9  2  0  0  0  0
  9 10  1  0  0  0  0
  9 11  1  0  0  0  0
 11 12  1  0  0  0  0
 11 13  1  0  0  0  0
 11 14  1  0  0  0  0
 14 15  1  0  0  0  0
 14 16  1  0  0  0  0
 14 17  1  0  0  0  0
M  END
> <VM2 Rank>
1

> <Conf_Id>
121

> <Probability>
14.27

> <Sum Probability>
14.27

> <Delta G>
0.000

> <G>
-26.660

> <E>
-36.826

> <-TS>
10.165

> <U+W>
-50.239

> <U>
14.007

> <W>
-64.247

> <W(PB)>
-66.286

> <W(SA)>
2.040

> <Valence>
12.998

> <Coulomb>
-0.405

> <VdW>
1.414

> <VdW6>
-5.682

> <VdW12>
7.096

> <Bond>
0.147

> <Angle>
3.367

> <Pdih>
9.484

> <Idih>
0.001

> <Tether>
0.000

$$$$
VeraChem MOL file


 17 16  0  0  0  0  0  0  0  0999 V2000     
   19.9358   19.0109   25.0042 C   0  0  0  0  0  0  0  0  0  0  0  0
   18.8065   18.5764   25.1174 O   0  5  0  0  0  0  0  0  0  0  0  0
   20.3108   20.0472   25.5166 O   0  0  0  0  0  0  0  0  0  0  0  0
   20.9447   18.1979   24.1988 C   0  0  0  0  0  0  0  0  0  0  0  0
   20.6933   17.1375   24.3172 H   0  0  0  0  0  0  0  0  0  0  0  0
   21.9287   18.3282   24.6640 H   0  0  0  0  0  0  0  0  0  0  0  0
   21.0312   18.5393   22.7180 C   0  0  0  0  0  0  0  0  0  0  0  0
   21.7574   17.9476   22.1620 H   0  0  0  0  0  0  0  0  0  0  0  0
   20.3100   19.4700   22.0818 C   0  0  0  0  0  0  0  0  0  0  0  0
   19.5766   20.0747   22.6139 H   0  0  0  0  0  0  0  0  0  0  0  0
   20.4358   19.7719   20.6050 C   0  0  0  0  0  0  0  0  0  0  0  0
   20.5202   20.8567   20.4545 H   0  0  0  0  0  0  0  0  0  0  0  0
   21.3529   19.3249   20.1972 H   0  0  0  0  0  0  0  0  0  0  0  0
   19.2182   19.2384   19.8252 C   0  0  0  0  0  0  0  0  0  0  0  0
   18.2893   19.6983   20.1874 H   0  0  0  0  0  0  0  0  0  0  0  0
   19.3141   19.4614   18.7547 H   0  0  0  0  0  0  0  0  0  0  0  0
   19.1282   18.1501   19.9401 H   0  0  0  0  0  0  0  0  0  0  0  0
  1  2  1  0  0  0  0
  1  3  2  0  0  0  0
  1  4  1  0  0  0  0
  4  5  1  0  0  0  0
  4  6  1  0  0  0  0
  4  7  1  0  0  0  0
  7  8  1  0  0  0  0
  7  9  2  0  0  0  0
  9 10  1  0  0  0  0
  9 11  1  0  0  0  0
 11 12  1  0  0  0  0
 11 13  1  0  0  0  0
 11 14  1  0  0  0  0
 14 15  1  0  0  0  0
 14 16  1  0  0  0  0
 14 17  1  0  0  0  0
M  END
> <VM2 Rank>
2

> <Conf_Id>
57

> <Probability>
12.40

> <Sum Probability>
26.67

> <Delta G>
0.084

> <G>
-26.577

> <E>
-36.437

> <-TS>
9.860

> <U+W>
-49.850

> <U>
14.465

> <W>
-64.315

> <W(PB)>
-66.407

> <W(SA)>
2.093

> <Valence>
14.072

> <Coulomb>
-0.199

> <VdW>
0.592

> <VdW6>
-5.019

> <VdW12>
5.611

> <Bond>
0.085

> <Angle>
2.748

> <Pdih>
11.238

> <Idih>
0.001

> <Tether>
0.000

$$$$
VeraChem MOL file


 17 16  0  0  0  0  0  0  0  0999 V2000     
   20.3003   18.9745   25.0032 C   0  0  0  0  0  0  0  0  0  0  0  0
   20.1405   20.0642   25.5171 O   0  5  0  0  0  0  0  0  0  0  0  0
   21.3219   18.3251   25.1103 O   0  0  0  0  0  0  0  0  0  0  0  0
   19.1460   18.3776   24.2038 C   0  0  0  0  0  0  0  0  0  0  0  0
   18.2098   18.6997   24.6745 H   0  0  0  0  0  0  0  0  0  0  0  0
   19.1833   17.2883   24.3215 H   0  0  0  0  0  0  0  0  0  0  0  0
   19.1204   18.7302   22.7233 C   0  0  0  0  0  0  0  0  0  0  0  0
   18.2886   18.2939   22.1717 H   0  0  0  0  0  0  0  0  0  0  0  0
   20.0078   19.5003   22.0826 C   0  0  0  0  0  0  0  0  0  0  0  0
   20.8493   19.9478   22.6103 H   0  0  0  0  0  0  0  0  0  0  0  0
   19.9361   19.8217   20.6063 C   0  0  0  0  0  0  0  0  0  0  0  0
   18.9466   19.5650   20.2038 H   0  0  0  0  0  0  0  0  0  0  0  0
   20.0669   20.9018   20.4556 H   0  0  0  0  0  0  0  0  0  0  0  0
   21.0199   19.0584   19.8203 C   0  0  0  0  0  0  0  0  0  0  0  0
   20.9642   19.2964   18.7501 H   0  0  0  0  0  0  0  0  0  0  0  0
   22.0234   19.3254   20.1771 H   0  0  0  0  0  0  0  0  0  0  0  0
   20.8937   17.9737   19.9353 H   0  0  0  0  0  0  0  0  0  0  0  0
  1  2  1  0  0  0  0
  1  3  2  0  0  0  0
  1  4  1  0  0  0  0
  4  5  1  0  0  0  0
  4  6  1  0  0  0  0
  4  7  1  0  0  0  0
  7  8  1  0  0  0  0
  7  9  2  0  0  0  0
  9 10  1  0  0  0  0
  9 11  1  0  0  0  0
 11 12  1  0  0  0  0
 11 13  1  0  0  0  0
 11 14  1  0  0  0  0
 14 15  1  0  0  0  0
 14 16  1  0  0  0  0
 14 17  1  0  0  0  0
M  END
> <VM2 Rank>
3

> <Conf_Id>
66

> <Probability>
11.82

> <Sum Probability>
38.49

> <Delta G>
0.112

> <G>
-26.548

> <E>
-36.409

> <-TS>
9.860

> <U+W>
-49.822

> <U>
14.465

> <W>
-64.287

> <W(PB)>
-66.368

> <W(SA)>
2.081

> <Valence>
14.072

> <Coulomb>
-0.199

> <VdW>
0.592

> <VdW6>
-5.019

> <VdW12>
5.611

> <Bond>
0.085

> <Angle>
2.748

> <Pdih>
11.238

> <Idih>
0.001

> <Tether>
0.000

$$$$
VeraChem MOL file


 17 16  0  0  0  0  0  0  0  0999 V2000     
   20.2303   19.0497   25.1478 C   0  0  0  0  0  0  0  0  0  0  0  0
   21.3844   18.9678   25.5196 O   0  5  0  0  0  0  0  0  0  0  0  0
   19.4243   19.8246   25.6241 O   0  0  0  0  0  0  0  0  0  0  0  0
   19.7683   18.1233   24.0306 C   0  0  0  0  0  0  0  0  0  0  0  0
   18.6809   18.0062   24.1099 H   0  0  0  0  0  0  0  0  0  0  0  0
   20.2107   17.1365   24.2096 H   0  0  0  0  0  0  0  0  0  0  0  0
   20.1637   18.6294   22.6562 C   0  0  0  0  0  0  0  0  0  0  0  0
   21.2342   18.6185   22.4587 H   0  0  0  0  0  0  0  0  0  0  0  0
   19.2894   19.0660   21.7409 C   0  0  0  0  0  0  0  0  0  0  0  0
   18.2256   19.0662   21.9763 H   0  0  0  0  0  0  0  0  0  0  0  0
   19.6148   19.5880   20.3516 C   0  0  0  0  0  0  0  0  0  0  0  0
   19.0775   18.9834   19.6085 H   0  0  0  0  0  0  0  0  0  0  0  0
   19.2133   20.6054   20.2502 H   0  0  0  0  0  0  0  0  0  0  0  0
   21.1179   19.6032   19.9961 C   0  0  0  0  0  0  0  0  0  0  0  0
   21.2694   19.9929   18.9811 H   0  0  0  0  0  0  0  0  0  0  0  0
   21.6801   20.2428   20.6891 H   0  0  0  0  0  0  0  0  0  0  0  0
   21.5420   18.5912   20.0343 H   0  0  0  0  0  0  0  0  0  0  0  0
  1  2  1  0  0  0  0
  1  3  2  0  0  0  0
  1  4  1  0  0  0  0
  4  5  1  0  0  0  0
  4  6  1  0  0  0  0
  4  7  1  0  0  0  0
  7  8  1  0  0  0  0
  7  9  2  0  0  0  0
  9 10  1  0  0  0  0
  9 11  1  0  0  0  0
 11 12  1  0  0  0  0
 11 13  1  0  0  0  0
 11 14  1  0  0  0  0
 14 15  1  0  0  0  0
 14 16  1  0  0  0  0
 14 17  1  0  0  0  0
M  END
> <VM2 Rank>
4

> <Conf_Id>
176

> <Probability>
11.58

> <Sum Probability>
50.07

> <Delta G>
0.125

> <G>
-26.536

> <E>
-36.511

> <-TS>
9.975

> <U+W>
-49.924

> <U>
13.863

> <W>
-63.787

> <W(PB)>
-65.857

> <W(SA)>
2.070

> <Valence>
14.117

> <Coulomb>
-1.228

> <VdW>
0.974

> <VdW6>
-4.885

> <VdW12>
5.859

> <Bond>
0.094

> <Angle>
2.818

> <Pdih>
11.205

> <Idih>
0.000

> <Tether>
0.000

$$$$
VeraChem MOL file


 17 16  0  0  0  0  0  0  0  0999 V2000     
   20.1141   18.9945   25.2590 C   0  0  0  0  0  0  0  0  0  0  0  0
   21.1852   19.4020   25.6634 O   0  5  0  0  0  0  0  0  0  0  0  0
   19.0545   19.2356   25.8033 O   0  0  0  0  0  0  0  0  0  0  0  0
   20.0969   18.1296   24.0055 C   0  0  0  0  0  0  0  0  0  0  0  0
   19.3781   17.3182   24.1683 H   0  0  0  0  0  0  0  0  0  0  0  0
   21.0845   17.6658   23.8951 H   0  0  0  0  0  0  0  0  0  0  0  0
   19.7232   18.9151   22.7629 C   0  0  0  0  0  0  0  0  0  0  0  0
   18.6943   19.2724   22.7306 H   0  0  0  0  0  0  0  0  0  0  0  0
   20.5644   19.1754   21.7576 C   0  0  0  0  0  0  0  0  0  0  0  0
   21.5939   18.8203   21.7920 H   0  0  0  0  0  0  0  0  0  0  0  0
   20.1910   19.9620   20.5210 C   0  0  0  0  0  0  0  0  0  0  0  0
   19.2422   20.4939   20.6757 H   0  0  0  0  0  0  0  0  0  0  0  0
   20.9534   20.7280   20.3247 H   0  0  0  0  0  0  0  0  0  0  0  0
   20.0636   19.0379   19.2943 C   0  0  0  0  0  0  0  0  0  0  0  0
   19.7931   19.6143   18.4001 H   0  0  0  0  0  0  0  0  0  0  0  0
   21.0112   18.5213   19.0928 H   0  0  0  0  0  0  0  0  0  0  0  0
   19.2878   18.2781   19.4574 H   0  0  0  0  0  0  0  0  0  0  0  0
  1  2  1  0  0  0  0
  1  3  2  0  0  0  0
  1  4  1  0  0  0  0
  4  5  1  0  0  0  0
  4  6  1  0  0  0  0
  4  7  1  0  0  0  0
  7  8  1  0  0  0  0
  7  9  2  0  0  0  0
  9 10  1  0  0  0  0
  9 11  1  0  0  0  0
 11 12  1  0  0  0  0
 11 13  1  0  0  0  0
 11 14  1  0  0  0  0
 14 15  1  0  0  0  0
 14 16  1  0  0  0  0
 14 17  1  0  0  0  0
M  END
> <VM2 Rank>
5

> <Conf_Id>
142

> <Probability>
10.78

> <Sum Probability>
60.85

> <Delta G>
0.167

> <G>
-26.493

> <E>
-36.129

> <-TS>
9.636

> <U+W>
-49.543

> <U>
13.666

> <W>
-63.208

> <W(PB)>
-65.296

> <W(SA)>
2.088

> <Valence>
15.227

> <Coulomb>
-1.822

> <VdW>
0.261

> <VdW6>
-4.165

> <VdW12>
4.426

> <Bond>
0.044

> <Angle>
2.229

> <Pdih>
12.953

> <Idih>
0.000

> <Tether>
0.000

$$$$
VeraChem MOL file


 17 16  0  0  0  0  0  0  0  0999 V2000     
   20.0344   18.8557   25.1338 C   0  0  0  0  0  0  0  0  0  0  0  0
   20.0799   17.6769   25.4258 O   0  5  0  0  0  0  0  0  0  0  0  0
   19.2334   19.6356   25.6104 O   0  0  0  0  0  0  0  0  0  0  0  0
   21.0427   19.3843   24.1221 C   0  0  0  0  0  0  0  0  0  0  0  0
   22.0104   18.9174   24.3387 H   0  0  0  0  0  0  0  0  0  0  0  0
   21.1623   20.4617   24.2879 H   0  0  0  0  0  0  0  0  0  0  0  0
   20.6342   19.0950   22.6900 C   0  0  0  0  0  0  0  0  0  0  0  0
   20.6515   18.0414   22.4166 H   0  0  0  0  0  0  0  0  0  0  0  0
   20.2712   20.0381   21.8116 C   0  0  0  0  0  0  0  0  0  0  0  0
   20.2620   21.0822   22.1228 H   0  0  0  0  0  0  0  0  0  0  0  0
   19.8487   19.8199   20.3686 C   0  0  0  0  0  0  0  0  0  0  0  0
   18.8441   20.2401   20.2240 H   0  0  0  0  0  0  0  0  0  0  0  0
   20.5092   20.4018   19.7116 H   0  0  0  0  0  0  0  0  0  0  0  0
   19.8487   18.3465   19.9047 C   0  0  0  0  0  0  0  0  0  0  0  0
   19.5325   18.2731   18.8561 H   0  0  0  0  0  0  0  0  0  0  0  0
   20.8522   17.9083   19.9845 H   0  0  0  0  0  0  0  0  0  0  0  0
   19.1566   17.7438   20.5075 H   0  0  0  0  0  0  0  0  0  0  0  0
  1  2  1  0  0  0  0
  1  3  2  0  0  0  0
  1  4  1  0  0  0  0
  4  5  1  0  0  0  0
  4  6  1  0  0  0  0
  4  7  1  0  0  0  0
  7  8  1  0  0  0  0
  7  9  2  0  0  0  0
  9 10  1  0  0  0  0
  9 11  1  0  0  0  0
 11 12  1  0  0  0  0
 11 13  1  0  0  0  0
 11 14  1  0  0  0  0
 14 15  1  0  0  0  0
 14 16  1  0  0  0  0
 14 17  1  0  0  0  0
M  END
> <VM2 Rank>
6

> <Conf_Id>
91

> <Probability>
10.65

> <Sum Probability>
71.50

> <Delta G>
0.174

> <G>
-26.486

> <E>
-36.460

> <-TS>
9.974

> <U+W>
-49.874

> <U>
13.864

> <W>
-63.738

> <W(PB)>
-65.802

> <W(SA)>
2.064

> <Valence>
14.117

> <Coulomb>
-1.226

> <VdW>
0.974

> <VdW6>
-4.885

> <VdW12>
5.859

> <Bond>
0.094

> <Angle>
2.817

> <Pdih>
11.205

> <Idih>
0.000

> <Tether>
0.000

$$$$
VeraChem MOL file


 17 16  0  0  0  0  0  0  0  0999 V2000     
   20.1102   18.9989   25.2593 C   0  0  0  0  0  0  0  0  0  0  0  0
   20.6755   19.9845   25.6906 O   0  5  0  0  0  0  0  0  0  0  0  0
   20.2328   17.8895   25.7402 O   0  0  0  0  0  0  0  0  0  0  0  0
   19.1937   19.1616   24.0538 C   0  0  0  0  0  0  0  0  0  0  0  0
   18.8614   20.2059   24.0139 H   0  0  0  0  0  0  0  0  0  0  0  0
   18.3019   18.5478   24.2258 H   0  0  0  0  0  0  0  0  0  0  0  0
   19.8637   18.7543   22.7554 C   0  0  0  0  0  0  0  0  0  0  0  0
   20.0786   17.6906   22.6567 H   0  0  0  0  0  0  0  0  0  0  0  0
   20.1873   19.6061   21.7777 C   0  0  0  0  0  0  0  0  0  0  0  0
   19.9751   20.6700   21.8785 H   0  0  0  0  0  0  0  0  0  0  0  0
   20.8591   19.1987   20.4854 C   0  0  0  0  0  0  0  0  0  0  0  0
   21.7102   19.8634   20.2845 H   0  0  0  0  0  0  0  0  0  0  0  0
   21.2661   18.1814   20.5678 H   0  0  0  0  0  0  0  0  0  0  0  0
   19.8706   19.2585   19.3046 C   0  0  0  0  0  0  0  0  0  0  0  0
   20.3639   18.9625   18.3696 H   0  0  0  0  0  0  0  0  0  0  0  0
   19.0225   18.5814   19.4715 H   0  0  0  0  0  0  0  0  0  0  0  0
   19.4765   20.2749   19.1748 H   0  0  0  0  0  0  0  0  0  0  0  0
  1  2  1  0  0  0  0
  1  3  2  0  0  0  0
  1  4  1  0  0  0  0
  4  5  1  0  0  0  0
  4  6  1  0  0  0  0
  4  7  1  0  0  0  0
  7  8  1  0  0  0  0
  7  9  2  0  0  0  0
  9 10  1  0  0  0  0
  9 11  1  0  0  0  0
 11 12  1  0  0  0  0
 11 13  1  0  0  0  0
 11 14  1  0  0  0  0
 14 15  1  0  0  0  0
 14 16  1  0  0  0  0
 14 17  1  0  0  0  0
M  END
> <VM2 Rank>
7

> <Conf_Id>
40

> <Probability>
10.54

> <Sum Probability>
82.04

> <Delta G>
0.181

> <G>
-26.480

> <E>
-36.116

> <-TS>
9.636

> <U+W>
-49.529

> <U>
13.666

> <W>
-63.195

> <W(PB)>
-65.299

> <W(SA)>
2.103

> <Valence>
15.226

> <Coulomb>
-1.822

> <VdW>
0.261

> <VdW6>
-4.165

> <VdW12>
4.426

> <Bond>
0.044

> <Angle>
2.229

> <Pdih>
12.953

> <Idih>
0.000

> <Tether>
0.000

$$$$
VeraChem MOL file


 17 16  0  0  0  0  0  0  0  0999 V2000     
   20.1633   19.1351   25.1460 C   0  0  0  0  0  0  0  0  0  0  0  0
   21.2735   19.5657   25.3887 O   0  5  0  0  0  0  0  0  0  0  0  0
   19.1534   19.5355   25.6907 O   0  0  0  0  0  0  0  0  0  0  0  0
   20.0290   18.0258   24.1109 C   0  0  0  0  0  0  0  0  0  0  0  0
   19.3069   17.2959   24.4946 H   0  0  0  0  0  0  0  0  0  0  0  0
   20.9943   17.5114   24.0320 H   0  0  0  0  0  0  0  0  0  0  0  0
   19.5772   18.5444   22.7590 C   0  0  0  0  0  0  0  0  0  0  0  0
   18.5593   18.9317   22.7260 H   0  0  0  0  0  0  0  0  0  0  0  0
   20.3426   18.5521   21.6634 C   0  0  0  0  0  0  0  0  0  0  0  0
   21.3621   18.1695   21.6982 H   0  0  0  0  0  0  0  0  0  0  0  0
   19.8912   19.0725   20.3170 C   0  0  0  0  0  0  0  0  0  0  0  0
   20.1384   18.3419   19.5350 H   0  0  0  0  0  0  0  0  0  0  0  0
   18.7996   19.1965   20.2991 H   0  0  0  0  0  0  0  0  0  0  0  0
   20.5628   20.4208   19.9914 C   0  0  0  0  0  0  0  0  0  0  0  0
   20.3093   21.1751   20.7480 H   0  0  0  0  0  0  0  0  0  0  0  0
   21.6555   20.3177   19.9643 H   0  0  0  0  0  0  0  0  0  0  0  0
   20.2314   20.7940   19.0137 H   0  0  0  0  0  0  0  0  0  0  0  0
  1  2  1  0  0  0  0
  1  3  2  0  0  0  0
  1  4  1  0  0  0  0
  4  5  1  0  0  0  0
  4  6  1  0  0  0  0
  4  7  1  0  0  0  0
  7  8  1  0  0  0  0
  7  9  2  0  0  0  0
  9 10  1  0  0  0  0
  9 11  1  0  0  0  0
 11 12  1  0  0  0  0
 11 13  1  0  0  0  0
 11 14  1  0  0  0  0
 14 15  1  0  0  0  0
 14 16  1  0  0  0  0
 14 17  1  0  0  0  0
M  END
> <VM2 Rank>
8

> <Conf_Id>
92

> <Probability>
9.35

> <Sum Probability>
91.40

> <Delta G>
0.252

> <G>
-26.409

> <E>
-36.055

> <-TS>
9.646

> <U+W>
-49.469

> <U>
14.121

> <W>
-63.590

> <W(PB)>
-65.661

> <W(SA)>
2.071

> <Valence>
15.230

> <Coulomb>
-1.333

> <VdW>
0.224

> <VdW6>
-4.212

> <VdW12>
4.436

> <Bond>
0.044

> <Angle>
2.230

> <Pdih>
12.956

> <Idih>
0.000

> <Tether>
0.000

$$$$
