VeraChem MOL file


 17 16  0  0  0  0  0  0  0  0999 V2000     
   19.7723   19.0787   25.2791 C   0  0  0  0  0  0  0  0  0  0  0  0
   19.3187   19.9200   26.0302 O   0  5  0  0  0  0  0  0  0  0  0  0
   20.4467   18.1426   25.6658 O   0  0  0  0  0  0  0  0  0  0  0  0
   19.4751   19.2204   23.8280 C   0  0  0  0  0  0  0  0  0  0  0  0
   18.8675   20.0785   23.5497 H   0  0  0  0  0  0  0  0  0  0  0  0
   19.9150   18.3608   22.8811 C   0  0  0  0  0  0  0  0  0  0  0  0
   20.5263   17.4992   23.1486 H   0  0  0  0  0  0  0  0  0  0  0  0
   19.6099   18.5135   21.4070 C   0  0  0  0  0  0  0  0  0  0  0  0
   18.5800   18.8707   21.2716 H   0  0  0  0  0  0  0  0  0  0  0  0
   19.6675   17.5326   20.9160 H   0  0  0  0  0  0  0  0  0  0  0  0
   20.5928   19.4891   20.7279 C   0  0  0  0  0  0  0  0  0  0  0  0
   20.5334   20.4722   21.2153 H   0  0  0  0  0  0  0  0  0  0  0  0
   21.6221   19.1285   20.8628 H   0  0  0  0  0  0  0  0  0  0  0  0
   20.2944   19.6430   19.2229 C   0  0  0  0  0  0  0  0  0  0  0  0
   19.2806   20.0322   19.0613 H   0  0  0  0  0  0  0  0  0  0  0  0
   21.0032   20.3402   18.7575 H   0  0  0  0  0  0  0  0  0  0  0  0
   20.3782   18.6785   18.7050 H   0  0  0  0  0  0  0  0  0  0  0  0
  1  2  1  0  0  0  0
  1  3  2  0  0  0  0
  1  4  1  0  0  0  0
  4  5  1  0  0  0  0
  4  6  2  0  0  0  0
  6  7  1  0  0  0  0
  6  8  1  0  0  0  0
  8  9  1  0  0  0  0
  8 10  1  0  0  0  0
  8 11  1  0  0  0  0
 11 12  1  0  0  0  0
 11 13  1  0  0  0  0
 11 14  1  0  0  0  0
 14 15  1  0  0  0  0
 14 16  1  0  0  0  0
 14 17  1  0  0  0  0
M  END
> <VM2 Rank>
1

> <Conf_Id>
146

> <Probability>
31.51

> <Sum Probability>
31.51

> <Delta G>
0.000

> <G>
-29.180

> <E>
-40.000

> <-TS>
10.820

> <U+W>
-53.414

> <U>
9.048

> <W>
-62.462

> <W(PB)>
-64.544

> <W(SA)>
2.082

> <Valence>
2.652

> <Coulomb>
5.578

> <VdW>
0.818

> <VdW6>
-4.534

> <VdW12>
5.352

> <Bond>
0.063

> <Angle>
2.579

> <Pdih>
0.010

> <Idih>
0.000

> <Tether>
0.000

$$$$
VeraChem MOL file


 17 16  0  0  0  0  0  0  0  0999 V2000     
   19.6586   19.0431   25.2682 C   0  0  0  0  0  0  0  0  0  0  0  0
   19.4178   19.9508   26.0400 O   0  5  0  0  0  0  0  0  0  0  0  0
   19.5761   17.8703   25.5813 O   0  0  0  0  0  0  0  0  0  0  0  0
   20.0724   19.4073   23.8860 C   0  0  0  0  0  0  0  0  0  0  0  0
   20.1264   20.4723   23.6719 H   0  0  0  0  0  0  0  0  0  0  0  0
   20.3693   18.5031   22.9251 C   0  0  0  0  0  0  0  0  0  0  0  0
   20.3163   17.4337   23.1282 H   0  0  0  0  0  0  0  0  0  0  0  0
   20.7875   18.8820   21.5213 C   0  0  0  0  0  0  0  0  0  0  0  0
   21.3816   18.0691   21.0824 H   0  0  0  0  0  0  0  0  0  0  0  0
   21.4395   19.7657   21.5492 H   0  0  0  0  0  0  0  0  0  0  0  0
   19.5629   19.1667   20.6278 C   0  0  0  0  0  0  0  0  0  0  0  0
   18.9134   18.2807   20.5997 H   0  0  0  0  0  0  0  0  0  0  0  0
   18.9695   19.9827   21.0633 H   0  0  0  0  0  0  0  0  0  0  0  0
   19.9804   19.5446   19.1924 C   0  0  0  0  0  0  0  0  0  0  0  0
   20.5489   18.7319   18.7215 H   0  0  0  0  0  0  0  0  0  0  0  0
   19.0966   19.7434   18.5722 H   0  0  0  0  0  0  0  0  0  0  0  0
   20.6059   20.4469   19.1899 H   0  0  0  0  0  0  0  0  0  0  0  0
  1  2  1  0  0  0  0
  1  3  2  0  0  0  0
  1  4  1  0  0  0  0
  4  5  1  0  0  0  0
  4  6  2  0  0  0  0
  6  7  1  0  0  0  0
  6  8  1  0  0  0  0
  8  9  1  0  0  0  0
  8 10  1  0  0  0  0
  8 11  1  0  0  0  0
 11 12  1  0  0  0  0
 11 13  1  0  0  0  0
 11 14  1  0  0  0  0
 14 15  1  0  0  0  0
 14 16  1  0  0  0  0
 14 17  1  0  0  0  0
M  END
> <VM2 Rank>
2

> <Conf_Id>
186

> <Probability>
29.69

> <Sum Probability>
61.20

> <Delta G>
0.035

> <G>
-29.145

> <E>
-39.964

> <-TS>
10.820

> <U+W>
-53.378

> <U>
9.048

> <W>
-62.426

> <W(PB)>
-64.496

> <W(SA)>
2.070

> <Valence>
2.652

> <Coulomb>
5.578

> <VdW>
0.818

> <VdW6>
-4.534

> <VdW12>
5.352

> <Bond>
0.063

> <Angle>
2.579

> <Pdih>
0.010

> <Idih>
0.000

> <Tether>
0.000

$$$$
VeraChem MOL file


 17 16  0  0  0  0  0  0  0  0999 V2000     
   19.6119   18.9988   25.1046 C   0  0  0  0  0  0  0  0  0  0  0  0
   20.0485   20.0911   25.4153 O   0  5  0  0  0  0  0  0  0  0  0  0
   18.9311   18.3234   25.8518 O   0  0  0  0  0  0  0  0  0  0  0  0
   19.9136   18.4420   23.7581 C   0  0  0  0  0  0  0  0  0  0  0  0
   19.4939   17.4617   23.5448 H   0  0  0  0  0  0  0  0  0  0  0  0
   20.6557   19.0828   22.8266 C   0  0  0  0  0  0  0  0  0  0  0  0
   21.0781   20.0669   23.0285 H   0  0  0  0  0  0  0  0  0  0  0  0
   20.9553   18.5115   21.4566 C   0  0  0  0  0  0  0  0  0  0  0  0
   21.1706   17.4380   21.5443 H   0  0  0  0  0  0  0  0  0  0  0  0
   21.8649   18.9740   21.0505 H   0  0  0  0  0  0  0  0  0  0  0  0
   19.7869   18.7143   20.4671 C   0  0  0  0  0  0  0  0  0  0  0  0
   20.0160   18.1907   19.5287 H   0  0  0  0  0  0  0  0  0  0  0  0
   18.8755   18.2514   20.8702 H   0  0  0  0  0  0  0  0  0  0  0  0
   19.5221   20.2041   20.1619 C   0  0  0  0  0  0  0  0  0  0  0  0
   18.7097   20.3098   19.4313 H   0  0  0  0  0  0  0  0  0  0  0  0
   19.2311   20.7487   21.0696 H   0  0  0  0  0  0  0  0  0  0  0  0
   20.4170   20.6848   19.7456 H   0  0  0  0  0  0  0  0  0  0  0  0
  1  2  1  0  0  0  0
  1  3  2  0  0  0  0
  1  4  1  0  0  0  0
  4  5  1  0  0  0  0
  4  6  2  0  0  0  0
  6  7  1  0  0  0  0
  6  8  1  0  0  0  0
  8  9  1  0  0  0  0
  8 10  1  0  0  0  0
  8 11  1  0  0  0  0
 11 12  1  0  0  0  0
 11 13  1  0  0  0  0
 11 14  1  0  0  0  0
 14 15  1  0  0  0  0
 14 16  1  0  0  0  0
 14 17  1  0  0  0  0
M  END
> <VM2 Rank>
3

> <Conf_Id>
182

> <Probability>
9.90

> <Sum Probability>
71.10

> <Delta G>
0.690

> <G>
-28.490

> <E>
-39.464

> <-TS>
10.975

> <U+W>
-52.878

> <U>
10.067

> <W>
-62.946

> <W(PB)>
-64.982

> <W(SA)>
2.037

> <Valence>
2.779

> <Coulomb>
6.474

> <VdW>
0.815

> <VdW6>
-5.088

> <VdW12>
5.902

> <Bond>
0.078

> <Angle>
2.651

> <Pdih>
0.050

> <Idih>
0.000

> <Tether>
0.000

$$$$
VeraChem MOL file


 17 16  0  0  0  0  0  0  0  0999 V2000     
   19.5814   19.0520   25.1001 C   0  0  0  0  0  0  0  0  0  0  0  0
   19.6100   19.8934   25.9770 O   0  5  0  0  0  0  0  0  0  0  0  0
   18.9772   18.0018   25.2120 O   0  0  0  0  0  0  0  0  0  0  0  0
   20.3283   19.3406   23.8459 C   0  0  0  0  0  0  0  0  0  0  0  0
   20.8471   20.2958   23.8115 H   0  0  0  0  0  0  0  0  0  0  0  0
   20.3821   18.4976   22.7898 C   0  0  0  0  0  0  0  0  0  0  0  0
   19.8634   17.5394   22.8124 H   0  0  0  0  0  0  0  0  0  0  0  0
   21.1414   18.7998   21.5150 C   0  0  0  0  0  0  0  0  0  0  0  0
   21.3884   17.8632   20.9972 H   0  0  0  0  0  0  0  0  0  0  0  0
   22.1003   19.2755   21.7615 H   0  0  0  0  0  0  0  0  0  0  0  0
   20.3484   19.7223   20.5634 C   0  0  0  0  0  0  0  0  0  0  0  0
   20.1007   20.6609   21.0784 H   0  0  0  0  0  0  0  0  0  0  0  0
   20.9860   19.9915   19.7101 H   0  0  0  0  0  0  0  0  0  0  0  0
   19.0563   19.0606   20.0387 C   0  0  0  0  0  0  0  0  0  0  0  0
   18.5362   19.7294   19.3408 H   0  0  0  0  0  0  0  0  0  0  0  0
   19.2810   18.1259   19.5087 H   0  0  0  0  0  0  0  0  0  0  0  0
   18.3666   18.8310   20.8615 H   0  0  0  0  0  0  0  0  0  0  0  0
  1  2  1  0  0  0  0
  1  3  2  0  0  0  0
  1  4  1  0  0  0  0
  4  5  1  0  0  0  0
  4  6  2  0  0  0  0
  6  7  1  0  0  0  0
  6  8  1  0  0  0  0
  8  9  1  0  0  0  0
  8 10  1  0  0  0  0
  8 11  1  0  0  0  0
 11 12  1  0  0  0  0
 11 13  1  0  0  0  0
 11 14  1  0  0  0  0
 14 15  1  0  0  0  0
 14 16  1  0  0  0  0
 14 17  1  0  0  0  0
M  END
> <VM2 Rank>
4

> <Conf_Id>
149

> <Probability>
9.87

> <Sum Probability>
80.96

> <Delta G>
0.692

> <G>
-28.488

> <E>
-39.460

> <-TS>
10.972

> <U+W>
-52.874

> <U>
10.067

> <W>
-62.941

> <W(PB)>
-64.976

> <W(SA)>
2.034

> <Valence>
2.779

> <Coulomb>
6.474

> <VdW>
0.815

> <VdW6>
-5.087

> <VdW12>
5.902

> <Bond>
0.078

> <Angle>
2.651

> <Pdih>
0.050

> <Idih>
0.000

> <Tether>
0.000

$$$$
VeraChem MOL file


 17 16  0  0  0  0  0  0  0  0999 V2000     
   19.8302   19.1916   25.0913 C   0  0  0  0  0  0  0  0  0  0  0  0
   19.3134   20.0189   25.8168 O   0  5  0  0  0  0  0  0  0  0  0  0
   20.6961   18.4271   25.4735 O   0  0  0  0  0  0  0  0  0  0  0  0
   19.3643   19.1286   23.6795 C   0  0  0  0  0  0  0  0  0  0  0  0
   18.5888   19.8396   23.4043 H   0  0  0  0  0  0  0  0  0  0  0  0
   19.8516   18.2612   22.7632 C   0  0  0  0  0  0  0  0  0  0  0  0
   20.6313   17.5480   23.0296 H   0  0  0  0  0  0  0  0  0  0  0  0
   19.3772   18.2014   21.3259 C   0  0  0  0  0  0  0  0  0  0  0  0
   18.4118   18.7138   21.2160 H   0  0  0  0  0  0  0  0  0  0  0  0
   19.1996   17.1532   21.0505 H   0  0  0  0  0  0  0  0  0  0  0  0
   20.4026   18.8102   20.3445 C   0  0  0  0  0  0  0  0  0  0  0  0
   21.3694   18.2999   20.4556 H   0  0  0  0  0  0  0  0  0  0  0  0
   20.0667   18.6253   19.3148 H   0  0  0  0  0  0  0  0  0  0  0  0
   20.5896   20.3290   20.5474 C   0  0  0  0  0  0  0  0  0  0  0  0
   19.6359   20.8606   20.4331 H   0  0  0  0  0  0  0  0  0  0  0  0
   20.9868   20.5492   21.5468 H   0  0  0  0  0  0  0  0  0  0  0  0
   21.2940   20.7333   19.8090 H   0  0  0  0  0  0  0  0  0  0  0  0
  1  2  1  0  0  0  0
  1  3  2  0  0  0  0
  1  4  1  0  0  0  0
  4  5  1  0  0  0  0
  4  6  2  0  0  0  0
  6  7  1  0  0  0  0
  6  8  1  0  0  0  0
  8  9  1  0  0  0  0
  8 10  1  0  0  0  0
  8 11  1  0  0  0  0
 11 12  1  0  0  0  0
 11 13  1  0  0  0  0
 11 14  1  0  0  0  0
 14 15  1  0  0  0  0
 14 16  1  0  0  0  0
 14 17  1  0  0  0  0
M  END
> <VM2 Rank>
5

> <Conf_Id>
75

> <Probability>
9.55

> <Sum Probability>
90.51

> <Delta G>
0.712

> <G>
-28.468

> <E>
-39.437

> <-TS>
10.969

> <U+W>
-52.851

> <U>
10.243

> <W>
-63.094

> <W(PB)>
-65.120

> <W(SA)>
2.026

> <Valence>
2.822

> <Coulomb>
6.636

> <VdW>
0.785

> <VdW6>
-5.216

> <VdW12>
6.001

> <Bond>
0.080

> <Angle>
2.678

> <Pdih>
0.064

> <Idih>
0.000

> <Tether>
0.000

$$$$
VeraChem MOL file


 17 16  0  0  0  0  0  0  0  0999 V2000     
   19.5892   19.1221   25.0684 C   0  0  0  0  0  0  0  0  0  0  0  0
   19.4555   20.0595   25.8308 O   0  5  0  0  0  0  0  0  0  0  0  0
   19.2059   17.9976   25.3309 O   0  0  0  0  0  0  0  0  0  0  0  0
   20.2569   19.3861   23.7651 C   0  0  0  0  0  0  0  0  0  0  0  0
   20.5748   20.4120   23.5947 H   0  0  0  0  0  0  0  0  0  0  0  0
   20.4699   18.4398   22.8223 C   0  0  0  0  0  0  0  0  0  0  0  0
   20.1514   17.4102   22.9834 H   0  0  0  0  0  0  0  0  0  0  0  0
   21.1477   18.7121   21.4953 C   0  0  0  0  0  0  0  0  0  0  0  0
   21.8972   17.9314   21.3088 H   0  0  0  0  0  0  0  0  0  0  0  0
   21.6986   19.6619   21.5305 H   0  0  0  0  0  0  0  0  0  0  0  0
   20.1464   18.7362   20.3198 C   0  0  0  0  0  0  0  0  0  0  0  0
   20.7037   18.8089   19.3756 H   0  0  0  0  0  0  0  0  0  0  0  0
   19.5932   17.7874   20.2854 H   0  0  0  0  0  0  0  0  0  0  0  0
   19.1533   19.9146   20.4095 C   0  0  0  0  0  0  0  0  0  0  0  0
   18.4840   19.9225   19.5395 H   0  0  0  0  0  0  0  0  0  0  0  0
   18.5318   19.8410   21.3113 H   0  0  0  0  0  0  0  0  0  0  0  0
   19.6849   20.8746   20.4373 H   0  0  0  0  0  0  0  0  0  0  0  0
  1  2  1  0  0  0  0
  1  3  2  0  0  0  0
  1  4  1  0  0  0  0
  4  5  1  0  0  0  0
  4  6  2  0  0  0  0
  6  7  1  0  0  0  0
  6  8  1  0  0  0  0
  8  9  1  0  0  0  0
  8 10  1  0  0  0  0
  8 11  1  0  0  0  0
 11 12  1  0  0  0  0
 11 13  1  0  0  0  0
 11 14  1  0  0  0  0
 14 15  1  0  0  0  0
 14 16  1  0  0  0  0
 14 17  1  0  0  0  0
M  END
> <VM2 Rank>
6

> <Conf_Id>
165

> <Probability>
9.49

> <Sum Probability>
100.00

> <Delta G>
0.715

> <G>
-28.465

> <E>
-39.432

> <-TS>
10.968

> <U+W>
-52.846

> <U>
10.243

> <W>
-63.089

> <W(PB)>
-65.135

> <W(SA)>
2.046

> <Valence>
2.822

> <Coulomb>
6.636

> <VdW>
0.785

> <VdW6>
-5.215

> <VdW12>
6.000

> <Bond>
0.080

> <Angle>
2.678

> <Pdih>
0.063

> <Idih>
0.000

> <Tether>
0.000

$$$$
