VeraChem MOL file


 25 25  0  0  0  0  0  0  0  0999 V2000     
   21.2649   19.5700   21.1384 C   0  0  0  0  0  0  0  0  0  0  0  0
   22.0469   19.7183   21.8916 H   0  0  0  0  0  0  0  0  0  0  0  0
   21.7746   19.7415   20.1803 H   0  0  0  0  0  0  0  0  0  0  0  0
   20.7595   18.1038   21.1583 C   0  0  0  0  0  0  0  0  0  0  0  0
   19.7152   18.0409   20.8265 H   0  0  0  0  0  0  0  0  0  0  0  0
   21.3327   17.5468   20.4045 H   0  0  0  0  0  0  0  0  0  0  0  0
   20.9530   17.3662   22.5094 C   0  0  0  0  0  0  0  0  0  0  0  0
   22.0134   17.4005   22.7947 H   0  0  0  0  0  0  0  0  0  0  0  0
   20.7266   16.3039   22.3451 H   0  0  0  0  0  0  0  0  0  0  0  0
   20.0858   17.8548   23.7003 C   0  0  0  0  0  0  0  0  0  0  0  0
   19.0203   17.7990   23.4478 H   0  0  0  0  0  0  0  0  0  0  0  0
   20.2246   17.1310   24.5147 H   0  0  0  0  0  0  0  0  0  0  0  0
   20.4544   19.2646   24.2301 C   0  0  0  0  0  0  0  0  0  0  0  0
   21.4703   19.5138   23.9017 H   0  0  0  0  0  0  0  0  0  0  0  0
   19.4858   20.3914   23.7946 C   0  0  0  0  0  0  0  0  0  0  0  0
   18.5769   20.3182   24.4070 H   0  0  0  0  0  0  0  0  0  0  0  0
   19.9398   21.3598   24.0411 H   0  0  0  0  0  0  0  0  0  0  0  0
   19.0436   20.4095   22.3086 C   0  0  0  0  0  0  0  0  0  0  0  0
   18.3091   21.2185   22.1958 H   0  0  0  0  0  0  0  0  0  0  0  0
   18.4890   19.4967   22.0628 H   0  0  0  0  0  0  0  0  0  0  0  0
   20.1645   20.6553   21.2676 C   0  0  0  0  0  0  0  0  0  0  0  0
   20.6411   21.6244   21.4682 H   0  0  0  0  0  0  0  0  0  0  0  0
   19.6822   20.7604   20.2861 H   0  0  0  0  0  0  0  0  0  0  0  0
   20.4524   19.2274   25.6528 O   0  0  0  0  0  0  0  0  0  0  0  0
   20.7316   20.1156   25.9588 H   0  0  0  0  0  0  0  0  0  0  0  0
  1  2  1  0  0  0  0
  1  3  1  0  0  0  0
  1  4  1  0  0  0  0
  4  5  1  0  0  0  0
  4  6  1  0  0  0  0
  4  7  1  0  0  0  0
  7  8  1  0  0  0  0
  7  9  1  0  0  0  0
  7 10  1  0  0  0  0
 10 11  1  0  0  0  0
 10 12  1  0  0  0  0
 10 13  1  0  0  0  0
 13 14  1  0  0  0  0
 13 15  1  0  0  0  0
 15 16  1  0  0  0  0
 15 17  1  0  0  0  0
 15 18  1  0  0  0  0
 18 19  1  0  0  0  0
 18 20  1  0  0  0  0
  1 21  1  0  0  0  0
 18 21  1  0  0  0  0
 21 22  1  0  0  0  0
 21 23  1  0  0  0  0
 13 24  1  0  0  0  0
 24 25  1  0  0  0  0
M  END
> <VM2 Rank>
1

> <Conf_Id>
1482

> <Probability>
4.69

> <Sum Probability>
4.69

> <Delta G>
0.000

> <G>
62.075

> <E>
29.291

> <-TS>
32.785

> <U+W>
8.723

> <U>
10.905

> <W>
-2.182

> <W(PB)>
-4.296

> <W(SA)>
2.114

> <Valence>
16.378

> <Coulomb>
-8.448

> <VdW>
2.976

> <VdW6>
-12.570

> <VdW12>
15.546

> <Bond>
0.439

> <Angle>
5.049

> <Pdih>
10.889

> <Idih>
0.000

> <Tether>
0.000

$$$$
