VeraChem MOL file


 20 19  0  0  0  0  0  0  0  0999 V2000     
   19.8544   19.1510   18.8169 C   0  0  0  0  0  0  0  0  0  0  0  0
   20.0357   20.2331   18.7809 H   0  0  0  0  0  0  0  0  0  0  0  0
   20.3379   18.6999   17.9408 H   0  0  0  0  0  0  0  0  0  0  0  0
   18.7732   18.9827   18.7279 H   0  0  0  0  0  0  0  0  0  0  0  0
   20.4073   18.5375   20.1216 C   0  0  0  0  0  0  0  0  0  0  0  0
   21.4948   18.6913   20.1651 H   0  0  0  0  0  0  0  0  0  0  0  0
   20.2423   17.4507   20.1126 H   0  0  0  0  0  0  0  0  0  0  0  0
   19.7439   19.1542   21.3727 C   0  0  0  0  0  0  0  0  0  0  0  0
   19.9120   20.2394   21.3827 H   0  0  0  0  0  0  0  0  0  0  0  0
   18.6579   18.9970   21.3302 H   0  0  0  0  0  0  0  0  0  0  0  0
   20.3006   18.5374   22.6694 C   0  0  0  0  0  0  0  0  0  0  0  0
   21.3792   18.7056   22.7224 H   0  0  0  0  0  0  0  0  0  0  0  0
   20.1208   17.4593   22.6698 H   0  0  0  0  0  0  0  0  0  0  0  0
   19.6776   19.1133   23.9259 N   0  3  0  0  0  0  0  0  0  0  0  0
   18.6547   18.9807   23.9099 H   0  0  0  0  0  0  0  0  0  0  0  0
   19.8198   20.1345   23.9587 H   0  0  0  0  0  0  0  0  0  0  0  0
   20.2823   18.4506   25.1565 C   0  0  0  0  0  0  0  0  0  0  0  0
   21.3590   18.6331   25.1710 H   0  0  0  0  0  0  0  0  0  0  0  0
   19.8251   18.8744   26.0534 H   0  0  0  0  0  0  0  0  0  0  0  0
   20.0900   17.3762   25.1178 H   0  0  0  0  0  0  0  0  0  0  0  0
  1  2  1  0  0  0  0
  1  3  1  0  0  0  0
  1  4  1  0  0  0  0
  1  5  1  0  0  0  0
  5  6  1  0  0  0  0
  5  7  1  0  0  0  0
  5  8  1  0  0  0  0
  8  9  1  0  0  0  0
  8 10  1  0  0  0  0
  8 11  1  0  0  0  0
 11 12  1  0  0  0  0
 11 13  1  0  0  0  0
 11 14  1  0  0  0  0
 14 15  1  0  0  0  0
 14 16  1  0  0  0  0
 14 17  1  0  0  0  0
 17 18  1  0  0  0  0
 17 19  1  0  0  0  0
 17 20  1  0  0  0  0
M  END
> <VM2 Rank>
1

> <Conf_Id>
67

> <Probability>
13.69

> <Sum Probability>
13.69

> <Delta G>
0.000

> <G>
53.937

> <E>
31.435

> <-TS>
22.502

> <U+W>
15.338

> <U>
69.277

> <W>
-53.938

> <W(PB)>
-55.889

> <W(SA)>
1.950

> <Valence>
0.846

> <Coulomb>
68.557

> <VdW>
-0.127

> <VdW6>
-3.008

> <VdW12>
2.882

> <Bond>
0.088

> <Angle>
0.332

> <Pdih>
0.426

> <Idih>
0.000

> <Tether>
0.000

$$$$
VeraChem MOL file


 20 19  0  0  0  0  0  0  0  0999 V2000     
   20.2447   19.5234   19.0575 C   0  0  0  0  0  0  0  0  0  0  0  0
   21.0844   20.2045   19.2476 H   0  0  0  0  0  0  0  0  0  0  0  0
   20.4069   19.0550   18.0781 H   0  0  0  0  0  0  0  0  0  0  0  0
   19.3266   20.1220   18.9959 H   0  0  0  0  0  0  0  0  0  0  0  0
   20.1366   18.4514   20.1636 C   0  0  0  0  0  0  0  0  0  0  0  0
   21.0549   17.8474   20.1778 H   0  0  0  0  0  0  0  0  0  0  0  0
   19.3109   17.7652   19.9275 H   0  0  0  0  0  0  0  0  0  0  0  0
   19.9075   19.0822   21.5548 C   0  0  0  0  0  0  0  0  0  0  0  0
   20.7341   19.7663   21.7862 H   0  0  0  0  0  0  0  0  0  0  0  0
   18.9878   19.6818   21.5411 H   0  0  0  0  0  0  0  0  0  0  0  0
   19.7994   18.0036   22.6525 C   0  0  0  0  0  0  0  0  0  0  0  0
   20.7302   17.4333   22.7055 H   0  0  0  0  0  0  0  0  0  0  0  0
   18.9938   17.3122   22.3922 H   0  0  0  0  0  0  0  0  0  0  0  0
   19.5006   18.5424   24.0421 N   0  3  0  0  0  0  0  0  0  0  0  0
   19.2825   17.7582   24.6768 H   0  0  0  0  0  0  0  0  0  0  0  0
   18.6431   19.1153   24.0266 H   0  0  0  0  0  0  0  0  0  0  0  0
   20.6773   19.3412   24.5924 C   0  0  0  0  0  0  0  0  0  0  0  0
   20.8595   20.2064   23.9521 H   0  0  0  0  0  0  0  0  0  0  0  0
   20.4392   19.6780   25.6037 H   0  0  0  0  0  0  0  0  0  0  0  0
   21.5643   18.7045   24.6162 H   0  0  0  0  0  0  0  0  0  0  0  0
  1  2  1  0  0  0  0
  1  3  1  0  0  0  0
  1  4  1  0  0  0  0
  1  5  1  0  0  0  0
  5  6  1  0  0  0  0
  5  7  1  0  0  0  0
  5  8  1  0  0  0  0
  8  9  1  0  0  0  0
  8 10  1  0  0  0  0
  8 11  1  0  0  0  0
 11 12  1  0  0  0  0
 11 13  1  0  0  0  0
 11 14  1  0  0  0  0
 14 15  1  0  0  0  0
 14 16  1  0  0  0  0
 14 17  1  0  0  0  0
 17 18  1  0  0  0  0
 17 19  1  0  0  0  0
 17 20  1  0  0  0  0
M  END
> <VM2 Rank>
2

> <Conf_Id>
37

> <Probability>
10.69

> <Sum Probability>
24.38

> <Delta G>
0.147

> <G>
54.084

> <E>
31.414

> <-TS>
22.671

> <U+W>
15.318

> <U>
69.657

> <W>
-54.337

> <W(PB)>
-56.236

> <W(SA)>
1.899

> <Valence>
1.137

> <Coulomb>
68.383

> <VdW>
0.138

> <VdW6>
-3.703

> <VdW12>
3.841

> <Bond>
0.125

> <Angle>
0.468

> <Pdih>
0.543

> <Idih>
0.000

> <Tether>
0.000

$$$$
VeraChem MOL file


 20 19  0  0  0  0  0  0  0  0999 V2000     
   19.4687   18.7548   19.0251 C   0  0  0  0  0  0  0  0  0  0  0  0
   18.8814   19.6810   18.9772 H   0  0  0  0  0  0  0  0  0  0  0  0
   19.9766   18.6286   18.0601 H   0  0  0  0  0  0  0  0  0  0  0  0
   18.7727   17.9152   19.1508 H   0  0  0  0  0  0  0  0  0  0  0  0
   20.4939   18.8051   20.1786 C   0  0  0  0  0  0  0  0  0  0  0  0
   21.1968   19.6326   20.0065 H   0  0  0  0  0  0  0  0  0  0  0  0
   21.0885   17.8806   20.1793 H   0  0  0  0  0  0  0  0  0  0  0  0
   19.8069   18.9826   21.5506 C   0  0  0  0  0  0  0  0  0  0  0  0
   19.2165   19.9083   21.5506 H   0  0  0  0  0  0  0  0  0  0  0  0
   19.1063   18.1544   21.7180 H   0  0  0  0  0  0  0  0  0  0  0  0
   20.8390   19.0334   22.6961 C   0  0  0  0  0  0  0  0  0  0  0  0
   21.5476   19.8419   22.4992 H   0  0  0  0  0  0  0  0  0  0  0  0
   21.3985   18.0953   22.7334 H   0  0  0  0  0  0  0  0  0  0  0  0
   20.2445   19.2793   24.0733 N   0  3  0  0  0  0  0  0  0  0  0  0
   19.6801   20.1425   24.0700 H   0  0  0  0  0  0  0  0  0  0  0  0
   21.0030   19.4624   24.7489 H   0  0  0  0  0  0  0  0  0  0  0  0
   19.4131   18.0889   24.5394 C   0  0  0  0  0  0  0  0  0  0  0  0
   18.5741   17.9426   23.8563 H   0  0  0  0  0  0  0  0  0  0  0  0
   20.0406   17.1951   24.5522 H   0  0  0  0  0  0  0  0  0  0  0  0
   19.0359   18.2879   25.5449 H   0  0  0  0  0  0  0  0  0  0  0  0
  1  2  1  0  0  0  0
  1  3  1  0  0  0  0
  1  4  1  0  0  0  0
  1  5  1  0  0  0  0
  5  6  1  0  0  0  0
  5  7  1  0  0  0  0
  5  8  1  0  0  0  0
  8  9  1  0  0  0  0
  8 10  1  0  0  0  0
  8 11  1  0  0  0  0
 11 12  1  0  0  0  0
 11 13  1  0  0  0  0
 11 14  1  0  0  0  0
 14 15  1  0  0  0  0
 14 16  1  0  0  0  0
 14 17  1  0  0  0  0
 17 18  1  0  0  0  0
 17 19  1  0  0  0  0
 17 20  1  0  0  0  0
M  END
> <VM2 Rank>
3

> <Conf_Id>
394

> <Probability>
9.21

> <Sum Probability>
33.59

> <Delta G>
0.236

> <G>
54.173

> <E>
31.503

> <-TS>
22.670

> <U+W>
15.407

> <U>
69.657

> <W>
-54.250

> <W(PB)>
-56.176

> <W(SA)>
1.926

> <Valence>
1.136

> <Coulomb>
68.383

> <VdW>
0.138

> <VdW6>
-3.703

> <VdW12>
3.841

> <Bond>
0.125

> <Angle>
0.468

> <Pdih>
0.543

> <Idih>
0.000

> <Tether>
0.000

$$$$
VeraChem MOL file


 20 19  0  0  0  0  0  0  0  0999 V2000     
   20.8667   19.3665   19.5194 C   0  0  0  0  0  0  0  0  0  0  0  0
   20.5577   20.4198   19.5220 H   0  0  0  0  0  0  0  0  0  0  0  0
   21.7364   19.2627   20.1804 H   0  0  0  0  0  0  0  0  0  0  0  0
   21.1934   19.1163   18.5017 H   0  0  0  0  0  0  0  0  0  0  0  0
   19.7057   18.4446   19.9580 C   0  0  0  0  0  0  0  0  0  0  0  0
   20.0429   17.3984   19.9527 H   0  0  0  0  0  0  0  0  0  0  0  0
   18.8958   18.5114   19.2180 H   0  0  0  0  0  0  0  0  0  0  0  0
   19.1424   18.8035   21.3530 C   0  0  0  0  0  0  0  0  0  0  0  0
   18.7742   19.8381   21.3461 H   0  0  0  0  0  0  0  0  0  0  0  0
   18.2762   18.1625   21.5643 H   0  0  0  0  0  0  0  0  0  0  0  0
   20.1839   18.6322   22.4760 C   0  0  0  0  0  0  0  0  0  0  0  0
   21.0330   19.2957   22.2953 H   0  0  0  0  0  0  0  0  0  0  0  0
   20.5483   17.6019   22.4844 H   0  0  0  0  0  0  0  0  0  0  0  0
   19.6383   18.9445   23.8556 N   0  3  0  0  0  0  0  0  0  0  0  0
   18.8280   18.3410   24.0637 H   0  0  0  0  0  0  0  0  0  0  0  0
   19.2748   19.9094   23.8852 H   0  0  0  0  0  0  0  0  0  0  0  0
   20.7289   18.7528   24.9011 C   0  0  0  0  0  0  0  0  0  0  0  0
   20.3228   18.9807   25.8891 H   0  0  0  0  0  0  0  0  0  0  0  0
   21.0742   17.7170   24.8752 H   0  0  0  0  0  0  0  0  0  0  0  0
   21.5608   19.4253   24.6810 H   0  0  0  0  0  0  0  0  0  0  0  0
  1  2  1  0  0  0  0
  1  3  1  0  0  0  0
  1  4  1  0  0  0  0
  1  5  1  0  0  0  0
  5  6  1  0  0  0  0
  5  7  1  0  0  0  0
  5  8  1  0  0  0  0
  8  9  1  0  0  0  0
  8 10  1  0  0  0  0
  8 11  1  0  0  0  0
 11 12  1  0  0  0  0
 11 13  1  0  0  0  0
 11 14  1  0  0  0  0
 14 15  1  0  0  0  0
 14 16  1  0  0  0  0
 14 17  1  0  0  0  0
 17 18  1  0  0  0  0
 17 19  1  0  0  0  0
 17 20  1  0  0  0  0
M  END
> <VM2 Rank>
4

> <Conf_Id>
118

> <Probability>
7.40

> <Sum Probability>
40.99

> <Delta G>
0.367

> <G>
54.304

> <E>
31.705

> <-TS>
22.599

> <U+W>
15.609

> <U>
69.798

> <W>
-54.189

> <W(PB)>
-56.121

> <W(SA)>
1.932

> <Valence>
1.134

> <Coulomb>
68.735

> <VdW>
-0.070

> <VdW6>
-3.565

> <VdW12>
3.494

> <Bond>
0.108

> <Angle>
0.456

> <Pdih>
0.569

> <Idih>
0.000

> <Tether>
0.000

$$$$
VeraChem MOL file


 20 19  0  0  0  0  0  0  0  0999 V2000     
   19.6008   18.1121   19.4663 C   0  0  0  0  0  0  0  0  0  0  0  0
   19.6694   17.2145   20.0938 H   0  0  0  0  0  0  0  0  0  0  0  0
   18.5509   18.4313   19.4379 H   0  0  0  0  0  0  0  0  0  0  0  0
   19.8911   17.8258   18.4471 H   0  0  0  0  0  0  0  0  0  0  0  0
   20.5129   19.2445   19.9918 C   0  0  0  0  0  0  0  0  0  0  0  0
   20.4841   20.0853   19.2845 H   0  0  0  0  0  0  0  0  0  0  0  0
   21.5556   18.8973   20.0161 H   0  0  0  0  0  0  0  0  0  0  0  0
   20.1000   19.7524   21.3931 C   0  0  0  0  0  0  0  0  0  0  0  0
   20.7388   20.6025   21.6675 H   0  0  0  0  0  0  0  0  0  0  0  0
   19.0699   20.1311   21.3585 H   0  0  0  0  0  0  0  0  0  0  0  0
   20.2150   18.6631   22.4773 C   0  0  0  0  0  0  0  0  0  0  0  0
   21.2409   18.2881   22.5132 H   0  0  0  0  0  0  0  0  0  0  0  0
   19.5526   17.8292   22.2333 H   0  0  0  0  0  0  0  0  0  0  0  0
   19.8496   19.1536   23.8645 N   0  3  0  0  0  0  0  0  0  0  0  0
   18.8875   19.5257   23.8691 H   0  0  0  0  0  0  0  0  0  0  0  0
   20.4508   19.9482   24.1317 H   0  0  0  0  0  0  0  0  0  0  0  0
   19.9875   18.0183   24.8700 C   0  0  0  0  0  0  0  0  0  0  0  0
   21.0204   17.6634   24.8727 H   0  0  0  0  0  0  0  0  0  0  0  0
   19.7217   18.3850   25.8639 H   0  0  0  0  0  0  0  0  0  0  0  0
   19.3176   17.2035   24.5870 H   0  0  0  0  0  0  0  0  0  0  0  0
  1  2  1  0  0  0  0
  1  3  1  0  0  0  0
  1  4  1  0  0  0  0
  1  5  1  0  0  0  0
  5  6  1  0  0  0  0
  5  7  1  0  0  0  0
  5  8  1  0  0  0  0
  8  9  1  0  0  0  0
  8 10  1  0  0  0  0
  8 11  1  0  0  0  0
 11 12  1  0  0  0  0
 11 13  1  0  0  0  0
 11 14  1  0  0  0  0
 14 15  1  0  0  0  0
 14 16  1  0  0  0  0
 14 17  1  0  0  0  0
 17 18  1  0  0  0  0
 17 19  1  0  0  0  0
 17 20  1  0  0  0  0
M  END
> <VM2 Rank>
5

> <Conf_Id>
34

> <Probability>
7.33

> <Sum Probability>
48.31

> <Delta G>
0.373

> <G>
54.310

> <E>
31.711

> <-TS>
22.599

> <U+W>
15.615

> <U>
69.798

> <W>
-54.184

> <W(PB)>
-56.116

> <W(SA)>
1.933

> <Valence>
1.134

> <Coulomb>
68.735

> <VdW>
-0.070

> <VdW6>
-3.565

> <VdW12>
3.494

> <Bond>
0.108

> <Angle>
0.456

> <Pdih>
0.569

> <Idih>
0.000

> <Tether>
0.000

$$$$
VeraChem MOL file


 20 19  0  0  0  0  0  0  0  0999 V2000     
   19.6844   18.8158   18.9889 C   0  0  0  0  0  0  0  0  0  0  0  0
   20.5413   19.3305   18.5351 H   0  0  0  0  0  0  0  0  0  0  0  0
   19.4592   17.9337   18.3755 H   0  0  0  0  0  0  0  0  0  0  0  0
   18.8179   19.4883   18.9414 H   0  0  0  0  0  0  0  0  0  0  0  0
   19.9896   18.4042   20.4454 C   0  0  0  0  0  0  0  0  0  0  0  0
   20.8400   17.7077   20.4563 H   0  0  0  0  0  0  0  0  0  0  0  0
   19.1275   17.8583   20.8519 H   0  0  0  0  0  0  0  0  0  0  0  0
   20.3101   19.6309   21.3317 C   0  0  0  0  0  0  0  0  0  0  0  0
   21.1482   20.1874   20.8914 H   0  0  0  0  0  0  0  0  0  0  0  0
   19.4537   20.3181   21.3480 H   0  0  0  0  0  0  0  0  0  0  0  0
   20.6879   19.2435   22.7755 C   0  0  0  0  0  0  0  0  0  0  0  0
   20.9885   20.1403   23.3232 H   0  0  0  0  0  0  0  0  0  0  0  0
   21.5357   18.5540   22.7610 H   0  0  0  0  0  0  0  0  0  0  0  0
   19.5633   18.5876   23.5547 N   0  3  0  0  0  0  0  0  0  0  0  0
   19.2485   17.7326   23.0728 H   0  0  0  0  0  0  0  0  0  0  0  0
   18.7396   19.2080   23.5802 H   0  0  0  0  0  0  0  0  0  0  0  0
   20.0307   18.2619   24.9669 C   0  0  0  0  0  0  0  0  0  0  0  0
   20.3277   19.1850   25.4694 H   0  0  0  0  0  0  0  0  0  0  0  0
   19.2125   17.7908   25.5160 H   0  0  0  0  0  0  0  0  0  0  0  0
   20.8813   17.5788   24.9159 H   0  0  0  0  0  0  0  0  0  0  0  0
  1  2  1  0  0  0  0
  1  3  1  0  0  0  0
  1  4  1  0  0  0  0
  1  5  1  0  0  0  0
  5  6  1  0  0  0  0
  5  7  1  0  0  0  0
  5  8  1  0  0  0  0
  8  9  1  0  0  0  0
  8 10  1  0  0  0  0
  8 11  1  0  0  0  0
 11 12  1  0  0  0  0
 11 13  1  0  0  0  0
 11 14  1  0  0  0  0
 14 15  1  0  0  0  0
 14 16  1  0  0  0  0
 14 17  1  0  0  0  0
 17 18  1  0  0  0  0
 17 19  1  0  0  0  0
 17 20  1  0  0  0  0
M  END
> <VM2 Rank>
6

> <Conf_Id>
465

> <Probability>
6.94

> <Sum Probability>
55.26

> <Delta G>
0.405

> <G>
54.342

> <E>
31.753

> <-TS>
22.589

> <U+W>
15.657

> <U>
69.962

> <W>
-54.305

> <W(PB)>
-56.223

> <W(SA)>
1.918

> <Valence>
0.982

> <Coulomb>
69.057

> <VdW>
-0.078

> <VdW6>
-3.548

> <VdW12>
3.471

> <Bond>
0.105

> <Angle>
0.408

> <Pdih>
0.469

> <Idih>
0.000

> <Tether>
0.000

$$$$
VeraChem MOL file


 20 19  0  0  0  0  0  0  0  0999 V2000     
   20.1835   19.3100   19.0098 C   0  0  0  0  0  0  0  0  0  0  0  0
   19.6812   18.4781   18.4990 H   0  0  0  0  0  0  0  0  0  0  0  0
   19.5210   20.1845   18.9707 H   0  0  0  0  0  0  0  0  0  0  0  0
   21.0926   19.5515   18.4440 H   0  0  0  0  0  0  0  0  0  0  0  0
   20.5304   18.9398   20.4681 C   0  0  0  0  0  0  0  0  0  0  0  0
   21.0660   19.7785   20.9332 H   0  0  0  0  0  0  0  0  0  0  0  0
   21.2184   18.0826   20.4723 H   0  0  0  0  0  0  0  0  0  0  0  0
   19.2645   18.5954   21.2879 C   0  0  0  0  0  0  0  0  0  0  0  0
   18.5847   19.4575   21.3115 H   0  0  0  0  0  0  0  0  0  0  0  0
   18.7198   17.7824   20.7897 H   0  0  0  0  0  0  0  0  0  0  0  0
   19.5871   18.1535   22.7294 C   0  0  0  0  0  0  0  0  0  0  0  0
   20.2692   17.2998   22.7079 H   0  0  0  0  0  0  0  0  0  0  0  0
   18.6654   17.8396   23.2259 H   0  0  0  0  0  0  0  0  0  0  0  0
   20.2194   19.2374   23.5822 N   0  3  0  0  0  0  0  0  0  0  0  0
   19.6057   20.0658   23.6166 H   0  0  0  0  0  0  0  0  0  0  0  0
   21.0967   19.5631   23.1501 H   0  0  0  0  0  0  0  0  0  0  0  0
   20.4812   18.7079   24.9857 C   0  0  0  0  0  0  0  0  0  0  0  0
   21.1583   17.8530   24.9274 H   0  0  0  0  0  0  0  0  0  0  0  0
   20.9360   19.4974   25.5881 H   0  0  0  0  0  0  0  0  0  0  0  0
   19.5352   18.3999   25.4363 H   0  0  0  0  0  0  0  0  0  0  0  0
  1  2  1  0  0  0  0
  1  3  1  0  0  0  0
  1  4  1  0  0  0  0
  1  5  1  0  0  0  0
  5  6  1  0  0  0  0
  5  7  1  0  0  0  0
  5  8  1  0  0  0  0
  8  9  1  0  0  0  0
  8 10  1  0  0  0  0
  8 11  1  0  0  0  0
 11 12  1  0  0  0  0
 11 13  1  0  0  0  0
 11 14  1  0  0  0  0
 14 15  1  0  0  0  0
 14 16  1  0  0  0  0
 14 17  1  0  0  0  0
 17 18  1  0  0  0  0
 17 19  1  0  0  0  0
 17 20  1  0  0  0  0
M  END
> <VM2 Rank>
7

> <Conf_Id>
245

> <Probability>
6.48

> <Sum Probability>
61.74

> <Delta G>
0.446

> <G>
54.383

> <E>
31.794

> <-TS>
22.589

> <U+W>
15.698

> <U>
69.962

> <W>
-54.265

> <W(PB)>
-56.166

> <W(SA)>
1.901

> <Valence>
0.982

> <Coulomb>
69.058

> <VdW>
-0.077

> <VdW6>
-3.548

> <VdW12>
3.471

> <Bond>
0.105

> <Angle>
0.408

> <Pdih>
0.469

> <Idih>
0.000

> <Tether>
0.000

$$$$
VeraChem MOL file


 20 19  0  0  0  0  0  0  0  0999 V2000     
   19.9202   18.3276   19.2182 C   0  0  0  0  0  0  0  0  0  0  0  0
   19.1811   17.5278   19.3570 H   0  0  0  0  0  0  0  0  0  0  0  0
   19.4294   19.1592   18.6960 H   0  0  0  0  0  0  0  0  0  0  0  0
   20.7137   17.9422   18.5648 H   0  0  0  0  0  0  0  0  0  0  0  0
   20.5032   18.7869   20.5721 C   0  0  0  0  0  0  0  0  0  0  0  0
   21.2612   19.5637   20.3979 H   0  0  0  0  0  0  0  0  0  0  0  0
   21.0183   17.9405   21.0463 H   0  0  0  0  0  0  0  0  0  0  0  0
   19.4037   19.3331   21.5132 C   0  0  0  0  0  0  0  0  0  0  0  0
   18.8681   20.1490   21.0102 H   0  0  0  0  0  0  0  0  0  0  0  0
   18.6581   18.5526   21.7124 H   0  0  0  0  0  0  0  0  0  0  0  0
   19.9678   19.8725   22.8464 C   0  0  0  0  0  0  0  0  0  0  0  0
   19.1519   20.2797   23.4490 H   0  0  0  0  0  0  0  0  0  0  0  0
   20.6647   20.6870   22.6329 H   0  0  0  0  0  0  0  0  0  0  0  0
   20.7069   18.8541   23.7014 N   0  3  0  0  0  0  0  0  0  0  0  0
   21.1548   19.3331   24.4984 H   0  0  0  0  0  0  0  0  0  0  0  0
   21.4863   18.4409   23.1686 H   0  0  0  0  0  0  0  0  0  0  0  0
   19.7642   17.7698   24.2117 C   0  0  0  0  0  0  0  0  0  0  0  0
   20.3229   17.0805   24.8486 H   0  0  0  0  0  0  0  0  0  0  0  0
   18.9609   18.2339   24.7878 H   0  0  0  0  0  0  0  0  0  0  0  0
   19.3449   17.2259   23.3629 H   0  0  0  0  0  0  0  0  0  0  0  0
  1  2  1  0  0  0  0
  1  3  1  0  0  0  0
  1  4  1  0  0  0  0
  1  5  1  0  0  0  0
  5  6  1  0  0  0  0
  5  7  1  0  0  0  0
  5  8  1  0  0  0  0
  8  9  1  0  0  0  0
  8 10  1  0  0  0  0
  8 11  1  0  0  0  0
 11 12  1  0  0  0  0
 11 13  1  0  0  0  0
 11 14  1  0  0  0  0
 14 15  1  0  0  0  0
 14 16  1  0  0  0  0
 14 17  1  0  0  0  0
 17 18  1  0  0  0  0
 17 19  1  0  0  0  0
 17 20  1  0  0  0  0
M  END
> <VM2 Rank>
8

> <Conf_Id>
463

> <Probability>
5.35

> <Sum Probability>
67.09

> <Delta G>
0.560

> <G>
54.497

> <E>
31.685

> <-TS>
22.812

> <U+W>
15.589

> <U>
70.298

> <W>
-54.709

> <W(PB)>
-56.586

> <W(SA)>
1.877

> <Valence>
1.245

> <Coulomb>
68.933

> <VdW>
0.120

> <VdW6>
-4.430

> <VdW12>
4.550

> <Bond>
0.148

> <Angle>
0.587

> <Pdih>
0.509

> <Idih>
0.000

> <Tether>
0.000

$$$$
