VeraChem MOL file


 22 21  0  0  0  0  0  0  0  0999 V2000     
   19.8314   19.1341   26.1875 C   0  0  0  0  0  0  0  0  0  0  0  0
   20.0589   20.2373   26.6431 O   0  5  0  0  0  0  0  0  0  0  0  0
   20.1743   18.0999   26.7254 O   0  0  0  0  0  0  0  0  0  0  0  0
   19.0946   19.0431   24.8559 C   0  0  0  0  0  0  0  0  0  0  0  0
   18.3978   19.8876   24.7937 H   0  0  0  0  0  0  0  0  0  0  0  0
   18.4931   18.1261   24.8613 H   0  0  0  0  0  0  0  0  0  0  0  0
   20.0506   19.0480   23.6377 C   0  0  0  0  0  0  0  0  0  0  0  0
   20.6546   19.9659   23.6541 H   0  0  0  0  0  0  0  0  0  0  0  0
   20.7498   18.2045   23.7217 H   0  0  0  0  0  0  0  0  0  0  0  0
   19.2808   18.9552   22.3025 C   0  0  0  0  0  0  0  0  0  0  0  0
   18.5819   19.7991   22.2223 H   0  0  0  0  0  0  0  0  0  0  0  0
   18.6771   18.0373   22.2898 H   0  0  0  0  0  0  0  0  0  0  0  0
   20.2363   18.9604   21.0900 C   0  0  0  0  0  0  0  0  0  0  0  0
   20.8403   19.8781   21.1024 H   0  0  0  0  0  0  0  0  0  0  0  0
   20.9354   18.1165   21.1698 H   0  0  0  0  0  0  0  0  0  0  0  0
   19.4677   18.8678   19.7552 C   0  0  0  0  0  0  0  0  0  0  0  0
   18.7687   19.7115   19.6708 H   0  0  0  0  0  0  0  0  0  0  0  0
   18.8638   17.9499   19.7382 H   0  0  0  0  0  0  0  0  0  0  0  0
   20.4254   18.8732   18.5468 C   0  0  0  0  0  0  0  0  0  0  0  0
   21.0203   19.7956   18.5212 H   0  0  0  0  0  0  0  0  0  0  0  0
   19.8624   18.8068   17.6067 H   0  0  0  0  0  0  0  0  0  0  0  0
   21.1161   18.0208   18.5892 H   0  0  0  0  0  0  0  0  0  0  0  0
  1  2  1  0  0  0  0
  1  3  2  0  0  0  0
  1  4  1  0  0  0  0
  4  5  1  0  0  0  0
  4  6  1  0  0  0  0
  4  7  1  0  0  0  0
  7  8  1  0  0  0  0
  7  9  1  0  0  0  0
  7 10  1  0  0  0  0
 10 11  1  0  0  0  0
 10 12  1  0  0  0  0
 10 13  1  0  0  0  0
 13 14  1  0  0  0  0
 13 15  1  0  0  0  0
 13 16  1  0  0  0  0
 16 17  1  0  0  0  0
 16 18  1  0  0  0  0
 16 19  1  0  0  0  0
 19 20  1  0  0  0  0
 19 21  1  0  0  0  0
 19 22  1  0  0  0  0
M  END
> <VM2 Rank>
1

> <Conf_Id>
202

> <Probability>
32.02

> <Sum Probability>
32.02

> <Delta G>
0.000

> <G>
-16.999

> <E>
-36.566

> <-TS>
19.568

> <U+W>
-54.451

> <U>
5.779

> <W>
-60.229

> <W(PB)>
-62.557

> <W(SA)>
2.328

> <Valence>
7.101

> <Coulomb>
-2.079

> <VdW>
0.757

> <VdW6>
-6.496

> <VdW12>
7.253

> <Bond>
0.100

> <Angle>
2.262

> <Pdih>
4.738

> <Idih>
0.001

> <Tether>
0.000

$$$$
VeraChem MOL file


 22 21  0  0  0  0  0  0  0  0999 V2000     
   19.7290   18.8549   25.9655 C   0  0  0  0  0  0  0  0  0  0  0  0
   19.2131   19.6430   26.7332 O   0  5  0  0  0  0  0  0  0  0  0  0
   20.5232   18.0021   26.3099 O   0  0  0  0  0  0  0  0  0  0  0  0
   19.3783   18.9570   24.4854 C   0  0  0  0  0  0  0  0  0  0  0  0
   18.3434   19.3104   24.4047 H   0  0  0  0  0  0  0  0  0  0  0  0
   19.4107   17.9456   24.0649 H   0  0  0  0  0  0  0  0  0  0  0  0
   20.3292   19.9035   23.7076 C   0  0  0  0  0  0  0  0  0  0  0  0
   20.3429   20.8804   24.2104 H   0  0  0  0  0  0  0  0  0  0  0  0
   21.3556   19.5146   23.7577 H   0  0  0  0  0  0  0  0  0  0  0  0
   19.9206   20.1122   22.2300 C   0  0  0  0  0  0  0  0  0  0  0  0
   20.5734   20.8804   21.7933 H   0  0  0  0  0  0  0  0  0  0  0  0
   18.8978   20.5106   22.1839 H   0  0  0  0  0  0  0  0  0  0  0  0
   20.0179   18.8259   21.3776 C   0  0  0  0  0  0  0  0  0  0  0  0
   21.0268   18.4006   21.4683 H   0  0  0  0  0  0  0  0  0  0  0  0
   19.3161   18.0713   21.7558 H   0  0  0  0  0  0  0  0  0  0  0  0
   19.7077   19.1023   19.8914 C   0  0  0  0  0  0  0  0  0  0  0  0
   20.4102   19.8505   19.4987 H   0  0  0  0  0  0  0  0  0  0  0  0
   18.6999   19.5299   19.7970 H   0  0  0  0  0  0  0  0  0  0  0  0
   19.8011   17.8181   19.0433 C   0  0  0  0  0  0  0  0  0  0  0  0
   20.8089   17.3856   19.0951 H   0  0  0  0  0  0  0  0  0  0  0  0
   19.5782   18.0329   17.9901 H   0  0  0  0  0  0  0  0  0  0  0  0
   19.0854   17.0629   19.3939 H   0  0  0  0  0  0  0  0  0  0  0  0
  1  2  1  0  0  0  0
  1  3  2  0  0  0  0
  1  4  1  0  0  0  0
  4  5  1  0  0  0  0
  4  6  1  0  0  0  0
  4  7  1  0  0  0  0
  7  8  1  0  0  0  0
  7  9  1  0  0  0  0
  7 10  1  0  0  0  0
 10 11  1  0  0  0  0
 10 12  1  0  0  0  0
 10 13  1  0  0  0  0
 13 14  1  0  0  0  0
 13 15  1  0  0  0  0
 13 16  1  0  0  0  0
 16 17  1  0  0  0  0
 16 18  1  0  0  0  0
 16 19  1  0  0  0  0
 19 20  1  0  0  0  0
 19 21  1  0  0  0  0
 19 22  1  0  0  0  0
M  END
> <VM2 Rank>
2

> <Conf_Id>
313

> <Probability>
8.24

> <Sum Probability>
40.27

> <Delta G>
0.809

> <G>
-16.190

> <E>
-35.867

> <-TS>
19.677

> <U+W>
-53.752

> <U>
6.782

> <W>
-60.534

> <W(PB)>
-62.847

> <W(SA)>
2.313

> <Valence>
7.621

> <Coulomb>
-1.711

> <VdW>
0.872

> <VdW6>
-7.188

> <VdW12>
8.060

> <Bond>
0.142

> <Angle>
2.504

> <Pdih>
4.974

> <Idih>
0.001

> <Tether>
0.000

$$$$
VeraChem MOL file


 22 21  0  0  0  0  0  0  0  0999 V2000     
   20.1334   19.1303   25.9560 C   0  0  0  0  0  0  0  0  0  0  0  0
   19.6139   19.9160   26.7236 O   0  5  0  0  0  0  0  0  0  0  0  0
   20.6478   18.0869   26.3070 O   0  0  0  0  0  0  0  0  0  0  0  0
   20.1189   19.4613   24.4679 C   0  0  0  0  0  0  0  0  0  0  0  0
   21.0341   19.0511   24.0264 H   0  0  0  0  0  0  0  0  0  0  0  0
   20.1661   20.5517   24.3615 H   0  0  0  0  0  0  0  0  0  0  0  0
   18.8655   18.9067   23.7423 C   0  0  0  0  0  0  0  0  0  0  0  0
   18.8533   17.8106   23.8170 H   0  0  0  0  0  0  0  0  0  0  0  0
   17.9680   19.2632   24.2667 H   0  0  0  0  0  0  0  0  0  0  0  0
   18.7730   19.3307   22.2572 C   0  0  0  0  0  0  0  0  0  0  0  0
   18.7753   20.4271   22.1868 H   0  0  0  0  0  0  0  0  0  0  0  0
   17.8054   18.9957   21.8589 H   0  0  0  0  0  0  0  0  0  0  0  0
   19.9060   18.7496   21.3802 C   0  0  0  0  0  0  0  0  0  0  0  0
   20.8770   19.1337   21.7189 H   0  0  0  0  0  0  0  0  0  0  0  0
   19.9351   17.6573   21.4940 H   0  0  0  0  0  0  0  0  0  0  0  0
   19.7144   19.1070   19.8913 C   0  0  0  0  0  0  0  0  0  0  0  0
   19.6828   20.1991   19.7738 H   0  0  0  0  0  0  0  0  0  0  0  0
   18.7487   18.7196   19.5380 H   0  0  0  0  0  0  0  0  0  0  0  0
   20.8472   18.5304   19.0184 C   0  0  0  0  0  0  0  0  0  0  0  0
   21.8229   18.9265   19.3290 H   0  0  0  0  0  0  0  0  0  0  0  0
   20.6948   18.7934   17.9636 H   0  0  0  0  0  0  0  0  0  0  0  0
   20.8820   17.4356   19.0932 H   0  0  0  0  0  0  0  0  0  0  0  0
  1  2  1  0  0  0  0
  1  3  2  0  0  0  0
  1  4  1  0  0  0  0
  4  5  1  0  0  0  0
  4  6  1  0  0  0  0
  4  7  1  0  0  0  0
  7  8  1  0  0  0  0
  7  9  1  0  0  0  0
  7 10  1  0  0  0  0
 10 11  1  0  0  0  0
 10 12  1  0  0  0  0
 10 13  1  0  0  0  0
 13 14  1  0  0  0  0
 13 15  1  0  0  0  0
 13 16  1  0  0  0  0
 16 17  1  0  0  0  0
 16 18  1  0  0  0  0
 16 19  1  0  0  0  0
 19 20  1  0  0  0  0
 19 21  1  0  0  0  0
 19 22  1  0  0  0  0
M  END
> <VM2 Rank>
3

> <Conf_Id>
324

> <Probability>
7.40

> <Sum Probability>
47.67

> <Delta G>
0.873

> <G>
-16.125

> <E>
-35.803

> <-TS>
19.678

> <U+W>
-53.688

> <U>
6.782

> <W>
-60.470

> <W(PB)>
-62.789

> <W(SA)>
2.320

> <Valence>
7.621

> <Coulomb>
-1.711

> <VdW>
0.872

> <VdW6>
-7.188

> <VdW12>
8.060

> <Bond>
0.142

> <Angle>
2.504

> <Pdih>
4.974

> <Idih>
0.001

> <Tether>
0.000

$$$$
VeraChem MOL file


 22 21  0  0  0  0  0  0  0  0999 V2000     
   19.9962   19.0329   25.9874 C   0  0  0  0  0  0  0  0  0  0  0  0
   20.3227   20.0802   26.5099 O   0  5  0  0  0  0  0  0  0  0  0  0
   20.4206   17.9478   26.3322 O   0  0  0  0  0  0  0  0  0  0  0  0
   19.0155   19.0851   24.8213 C   0  0  0  0  0  0  0  0  0  0  0  0
   18.3316   19.9258   24.9890 H   0  0  0  0  0  0  0  0  0  0  0  0
   18.4137   18.1685   24.8409 H   0  0  0  0  0  0  0  0  0  0  0  0
   19.7190   19.2327   23.4497 C   0  0  0  0  0  0  0  0  0  0  0  0
   20.3242   20.1498   23.4493 H   0  0  0  0  0  0  0  0  0  0  0  0
   20.4117   18.3917   23.3143 H   0  0  0  0  0  0  0  0  0  0  0  0
   18.7020   19.2782   22.2857 C   0  0  0  0  0  0  0  0  0  0  0  0
   17.9731   20.0769   22.4798 H   0  0  0  0  0  0  0  0  0  0  0  0
   18.1329   18.3390   22.2536 H   0  0  0  0  0  0  0  0  0  0  0  0
   19.3546   19.5354   20.9068 C   0  0  0  0  0  0  0  0  0  0  0  0
   18.5566   19.6771   20.1652 H   0  0  0  0  0  0  0  0  0  0  0  0
   19.9207   20.4765   20.9373 H   0  0  0  0  0  0  0  0  0  0  0  0
   20.2770   18.3877   20.4375 C   0  0  0  0  0  0  0  0  0  0  0  0
   19.7258   17.4374   20.4575 H   0  0  0  0  0  0  0  0  0  0  0  0
   21.1268   18.2801   21.1243 H   0  0  0  0  0  0  0  0  0  0  0  0
   20.8124   18.6391   19.0135 C   0  0  0  0  0  0  0  0  0  0  0  0
   21.4678   17.8176   18.6960 H   0  0  0  0  0  0  0  0  0  0  0  0
   21.3917   19.5708   18.9709 H   0  0  0  0  0  0  0  0  0  0  0  0
   19.9890   18.7139   18.2911 H   0  0  0  0  0  0  0  0  0  0  0  0
  1  2  1  0  0  0  0
  1  3  2  0  0  0  0
  1  4  1  0  0  0  0
  4  5  1  0  0  0  0
  4  6  1  0  0  0  0
  4  7  1  0  0  0  0
  7  8  1  0  0  0  0
  7  9  1  0  0  0  0
  7 10  1  0  0  0  0
 10 11  1  0  0  0  0
 10 12  1  0  0  0  0
 10 13  1  0  0  0  0
 13 14  1  0  0  0  0
 13 15  1  0  0  0  0
 13 16  1  0  0  0  0
 16 17  1  0  0  0  0
 16 18  1  0  0  0  0
 16 19  1  0  0  0  0
 19 20  1  0  0  0  0
 19 21  1  0  0  0  0
 19 22  1  0  0  0  0
M  END
> <VM2 Rank>
4

> <Conf_Id>
567

> <Probability>
7.32

> <Sum Probability>
54.98

> <Delta G>
0.880

> <G>
-16.118

> <E>
-35.792

> <-TS>
19.674

> <U+W>
-53.677

> <U>
7.026

> <W>
-60.703

> <W(PB)>
-63.007

> <W(SA)>
2.304

> <Valence>
7.638

> <Coulomb>
-1.488

> <VdW>
0.877

> <VdW6>
-7.165

> <VdW12>
8.042

> <Bond>
0.134

> <Angle>
2.513

> <Pdih>
4.990

> <Idih>
0.001

> <Tether>
0.000

$$$$
VeraChem MOL file


 22 21  0  0  0  0  0  0  0  0999 V2000     
   19.6003   19.0275   25.9802 C   0  0  0  0  0  0  0  0  0  0  0  0
   19.2276   20.0654   26.4906 O   0  5  0  0  0  0  0  0  0  0  0  0
   19.1931   17.9312   26.3099 O   0  0  0  0  0  0  0  0  0  0  0  0
   20.6207   19.1067   24.8502 C   0  0  0  0  0  0  0  0  0  0  0  0
   21.2459   18.2067   24.8919 H   0  0  0  0  0  0  0  0  0  0  0  0
   21.2751   19.9655   25.0421 H   0  0  0  0  0  0  0  0  0  0  0  0
   19.9633   19.2360   23.4540 C   0  0  0  0  0  0  0  0  0  0  0  0
   19.2989   18.3766   23.2941 H   0  0  0  0  0  0  0  0  0  0  0  0
   19.3339   20.1364   23.4315 H   0  0  0  0  0  0  0  0  0  0  0  0
   21.0200   19.3097   22.3275 C   0  0  0  0  0  0  0  0  0  0  0  0
   21.6152   18.3863   22.3164 H   0  0  0  0  0  0  0  0  0  0  0  0
   21.7195   20.1278   22.5473 H   0  0  0  0  0  0  0  0  0  0  0  0
   20.4107   19.5498   20.9258 C   0  0  0  0  0  0  0  0  0  0  0  0
   19.8186   20.4751   20.9354 H   0  0  0  0  0  0  0  0  0  0  0  0
   21.2308   19.7134   20.2134 H   0  0  0  0  0  0  0  0  0  0  0  0
   19.5374   18.3776   20.4241 C   0  0  0  0  0  0  0  0  0  0  0  0
   18.6667   18.2466   21.0799 H   0  0  0  0  0  0  0  0  0  0  0  0
   20.1131   17.4427   20.4644 H   0  0  0  0  0  0  0  0  0  0  0  0
   19.0470   18.6151   18.9816 C   0  0  0  0  0  0  0  0  0  0  0  0
   18.4444   19.5307   18.9177 H   0  0  0  0  0  0  0  0  0  0  0  0
   18.4262   17.7763   18.6411 H   0  0  0  0  0  0  0  0  0  0  0  0
   19.8936   18.7127   18.2894 H   0  0  0  0  0  0  0  0  0  0  0  0
  1  2  1  0  0  0  0
  1  3  2  0  0  0  0
  1  4  1  0  0  0  0
  4  5  1  0  0  0  0
  4  6  1  0  0  0  0
  4  7  1  0  0  0  0
  7  8  1  0  0  0  0
  7  9  1  0  0  0  0
  7 10  1  0  0  0  0
 10 11  1  0  0  0  0
 10 12  1  0  0  0  0
 10 13  1  0  0  0  0
 13 14  1  0  0  0  0
 13 15  1  0  0  0  0
 13 16  1  0  0  0  0
 16 17  1  0  0  0  0
 16 18  1  0  0  0  0
 16 19  1  0  0  0  0
 19 20  1  0  0  0  0
 19 21  1  0  0  0  0
 19 22  1  0  0  0  0
M  END
> <VM2 Rank>
5

> <Conf_Id>
523

> <Probability>
7.08

> <Sum Probability>
62.07

> <Delta G>
0.899

> <G>
-16.099

> <E>
-35.773

> <-TS>
19.674

> <U+W>
-53.658

> <U>
7.026

> <W>
-60.684

> <W(PB)>
-62.976

> <W(SA)>
2.292

> <Valence>
7.638

> <Coulomb>
-1.489

> <VdW>
0.877

> <VdW6>
-7.165

> <VdW12>
8.042

> <Bond>
0.134

> <Angle>
2.513

> <Pdih>
4.990

> <Idih>
0.001

> <Tether>
0.000

$$$$
VeraChem MOL file


 22 21  0  0  0  0  0  0  0  0999 V2000     
   19.7329   19.2233   26.0947 C   0  0  0  0  0  0  0  0  0  0  0  0
   20.1388   20.2915   26.5079 O   0  5  0  0  0  0  0  0  0  0  0  0
   19.7906   18.1897   26.7309 O   0  0  0  0  0  0  0  0  0  0  0  0
   19.1379   19.1730   24.6920 C   0  0  0  0  0  0  0  0  0  0  0  0
   18.6463   20.1334   24.4957 H   0  0  0  0  0  0  0  0  0  0  0  0
   18.3586   18.4015   24.6798 H   0  0  0  0  0  0  0  0  0  0  0  0
   20.1959   18.8810   23.5996 C   0  0  0  0  0  0  0  0  0  0  0  0
   20.9752   19.6551   23.6329 H   0  0  0  0  0  0  0  0  0  0  0  0
   20.6880   17.9231   23.8182 H   0  0  0  0  0  0  0  0  0  0  0  0
   19.5687   18.8351   22.1893 C   0  0  0  0  0  0  0  0  0  0  0  0
   19.0740   19.7935   21.9842 H   0  0  0  0  0  0  0  0  0  0  0  0
   18.7917   18.0591   22.1583 H   0  0  0  0  0  0  0  0  0  0  0  0
   20.6295   18.5473   21.1021 C   0  0  0  0  0  0  0  0  0  0  0  0
   21.3808   19.3488   21.0964 H   0  0  0  0  0  0  0  0  0  0  0  0
   21.1634   17.6223   21.3597 H   0  0  0  0  0  0  0  0  0  0  0  0
   20.0307   18.3899   19.6851 C   0  0  0  0  0  0  0  0  0  0  0  0
   19.2832   17.5845   19.6854 H   0  0  0  0  0  0  0  0  0  0  0  0
   20.8280   18.0729   18.9988 H   0  0  0  0  0  0  0  0  0  0  0  0
   19.3951   19.6882   19.1424 C   0  0  0  0  0  0  0  0  0  0  0  0
   20.1158   20.5161   19.1607 H   0  0  0  0  0  0  0  0  0  0  0  0
   18.5177   19.9819   19.7321 H   0  0  0  0  0  0  0  0  0  0  0  0
   19.0660   19.5496   18.1044 H   0  0  0  0  0  0  0  0  0  0  0  0
  1  2  1  0  0  0  0
  1  3  2  0  0  0  0
  1  4  1  0  0  0  0
  4  5  1  0  0  0  0
  4  6  1  0  0  0  0
  4  7  1  0  0  0  0
  7  8  1  0  0  0  0
  7  9  1  0  0  0  0
  7 10  1  0  0  0  0
 10 11  1  0  0  0  0
 10 12  1  0  0  0  0
 10 13  1  0  0  0  0
 13 14  1  0  0  0  0
 13 15  1  0  0  0  0
 13 16  1  0  0  0  0
 16 17  1  0  0  0  0
 16 18  1  0  0  0  0
 16 19  1  0  0  0  0
 19 20  1  0  0  0  0
 19 21  1  0  0  0  0
 19 22  1  0  0  0  0
M  END
> <VM2 Rank>
6

> <Conf_Id>
38

> <Probability>
6.37

> <Sum Probability>
68.44

> <Delta G>
0.962

> <G>
-16.036

> <E>
-35.714

> <-TS>
19.677

> <U+W>
-53.598

> <U>
6.751

> <W>
-60.350

> <W(PB)>
-62.659

> <W(SA)>
2.309

> <Valence>
7.602

> <Coulomb>
-1.744

> <VdW>
0.893

> <VdW6>
-7.110

> <VdW12>
8.004

> <Bond>
0.131

> <Angle>
2.489

> <Pdih>
4.981

> <Idih>
0.001

> <Tether>
0.000

$$$$
VeraChem MOL file


 22 21  0  0  0  0  0  0  0  0999 V2000     
   19.7434   19.0279   26.1022 C   0  0  0  0  0  0  0  0  0  0  0  0
   19.6871   20.1073   26.6574 O   0  5  0  0  0  0  0  0  0  0  0  0
   20.2602   18.0443   26.5940 O   0  0  0  0  0  0  0  0  0  0  0  0
   19.1522   18.9067   24.7022 C   0  0  0  0  0  0  0  0  0  0  0  0
   18.2946   19.5868   24.6344 H   0  0  0  0  0  0  0  0  0  0  0  0
   18.7676   17.8868   24.5819 H   0  0  0  0  0  0  0  0  0  0  0  0
   20.1773   19.2265   23.5863 C   0  0  0  0  0  0  0  0  0  0  0  0
   20.5625   20.2456   23.7291 H   0  0  0  0  0  0  0  0  0  0  0  0
   21.0352   18.5455   23.6755 H   0  0  0  0  0  0  0  0  0  0  0  0
   19.5545   19.0968   22.1793 C   0  0  0  0  0  0  0  0  0  0  0  0
   18.6987   19.7800   22.0923 H   0  0  0  0  0  0  0  0  0  0  0  0
   19.1667   18.0779   22.0500 H   0  0  0  0  0  0  0  0  0  0  0  0
   20.5827   19.4132   21.0689 C   0  0  0  0  0  0  0  0  0  0  0  0
   21.0129   20.4072   21.2529 H   0  0  0  0  0  0  0  0  0  0  0  0
   21.4159   18.6991   21.1214 H   0  0  0  0  0  0  0  0  0  0  0  0
   19.9763   19.3965   19.6465 C   0  0  0  0  0  0  0  0  0  0  0  0
   20.7377   19.7441   18.9347 H   0  0  0  0  0  0  0  0  0  0  0  0
   19.1465   20.1145   19.5884 H   0  0  0  0  0  0  0  0  0  0  0  0
   19.4863   17.9997   19.2072 C   0  0  0  0  0  0  0  0  0  0  0  0
   19.1486   18.0224   18.1630 H   0  0  0  0  0  0  0  0  0  0  0  0
   18.6433   17.6592   19.8212 H   0  0  0  0  0  0  0  0  0  0  0  0
   20.2919   17.2581   19.2857 H   0  0  0  0  0  0  0  0  0  0  0  0
  1  2  1  0  0  0  0
  1  3  2  0  0  0  0
  1  4  1  0  0  0  0
  4  5  1  0  0  0  0
  4  6  1  0  0  0  0
  4  7  1  0  0  0  0
  7  8  1  0  0  0  0
  7  9  1  0  0  0  0
  7 10  1  0  0  0  0
 10 11  1  0  0  0  0
 10 12  1  0  0  0  0
 10 13  1  0  0  0  0
 13 14  1  0  0  0  0
 13 15  1  0  0  0  0
 13 16  1  0  0  0  0
 16 17  1  0  0  0  0
 16 18  1  0  0  0  0
 16 19  1  0  0  0  0
 19 20  1  0  0  0  0
 19 21  1  0  0  0  0
 19 22  1  0  0  0  0
M  END
> <VM2 Rank>
7

> <Conf_Id>
539

> <Probability>
6.02

> <Sum Probability>
74.46

> <Delta G>
0.996

> <G>
-16.002

> <E>
-35.680

> <-TS>
19.677

> <U+W>
-53.565

> <U>
6.751

> <W>
-60.316

> <W(PB)>
-62.637

> <W(SA)>
2.321

> <Valence>
7.602

> <Coulomb>
-1.744

> <VdW>
0.893

> <VdW6>
-7.110

> <VdW12>
8.004

> <Bond>
0.131

> <Angle>
2.489

> <Pdih>
4.981

> <Idih>
0.001

> <Tether>
0.000

$$$$
VeraChem MOL file


 22 21  0  0  0  0  0  0  0  0999 V2000     
   19.9960   19.0181   25.8023 C   0  0  0  0  0  0  0  0  0  0  0  0
   20.5947   19.9818   26.2379 O   0  5  0  0  0  0  0  0  0  0  0  0
   20.3757   17.8720   25.9402 O   0  0  0  0  0  0  0  0  0  0  0  0
   18.6863   19.2617   25.0576 C   0  0  0  0  0  0  0  0  0  0  0  0
   18.1021   19.9780   25.6473 H   0  0  0  0  0  0  0  0  0  0  0  0
   18.1150   18.3257   25.0383 H   0  0  0  0  0  0  0  0  0  0  0  0
   18.8715   19.8058   23.6172 C   0  0  0  0  0  0  0  0  0  0  0  0
   17.8887   20.0805   23.2109 H   0  0  0  0  0  0  0  0  0  0  0  0
   19.4690   20.7275   23.6504 H   0  0  0  0  0  0  0  0  0  0  0  0
   19.5431   18.7803   22.6764 C   0  0  0  0  0  0  0  0  0  0  0  0
   18.9492   17.8562   22.6571 H   0  0  0  0  0  0  0  0  0  0  0  0
   20.5347   18.5134   23.0674 H   0  0  0  0  0  0  0  0  0  0  0  0
   19.6887   19.3308   21.2414 C   0  0  0  0  0  0  0  0  0  0  0  0
   18.6981   19.5958   20.8472 H   0  0  0  0  0  0  0  0  0  0  0  0
   20.2827   20.2549   21.2616 H   0  0  0  0  0  0  0  0  0  0  0  0
   20.3600   18.3076   20.3015 C   0  0  0  0  0  0  0  0  0  0  0  0
   19.7678   17.3824   20.2775 H   0  0  0  0  0  0  0  0  0  0  0  0
   21.3522   18.0416   20.6917 H   0  0  0  0  0  0  0  0  0  0  0  0
   20.5041   18.8610   18.8695 C   0  0  0  0  0  0  0  0  0  0  0  0
   19.5227   19.1061   18.4426 H   0  0  0  0  0  0  0  0  0  0  0  0
   20.9830   18.1210   18.2152 H   0  0  0  0  0  0  0  0  0  0  0  0
   21.1191   19.7704   18.8599 H   0  0  0  0  0  0  0  0  0  0  0  0
  1  2  1  0  0  0  0
  1  3  2  0  0  0  0
  1  4  1  0  0  0  0
  4  5  1  0  0  0  0
  4  6  1  0  0  0  0
  4  7  1  0  0  0  0
  7  8  1  0  0  0  0
  7  9  1  0  0  0  0
  7 10  1  0  0  0  0
 10 11  1  0  0  0  0
 10 12  1  0  0  0  0
 10 13  1  0  0  0  0
 13 14  1  0  0  0  0
 13 15  1  0  0  0  0
 13 16  1  0  0  0  0
 16 17  1  0  0  0  0
 16 18  1  0  0  0  0
 16 19  1  0  0  0  0
 19 20  1  0  0  0  0
 19 21  1  0  0  0  0
 19 22  1  0  0  0  0
M  END
> <VM2 Rank>
8

> <Conf_Id>
134

> <Probability>
2.84

> <Sum Probability>
77.31

> <Delta G>
1.444

> <G>
-15.555

> <E>
-35.435

> <-TS>
19.880

> <U+W>
-53.320

> <U>
7.937

> <W>
-61.257

> <W(PB)>
-63.561

> <W(SA)>
2.304

> <Valence>
7.358

> <Coulomb>
-0.021

> <VdW>
0.600

> <VdW6>
-7.363

> <VdW12>
7.964

> <Bond>
0.121

> <Angle>
2.425

> <Pdih>
4.811

> <Idih>
0.001

> <Tether>
0.000

$$$$
