VeraChem MOL file


 20 19  0  0  0  0  0  0  0  0999 V2000     
   20.4455   18.0660   18.7399 C   0  0  0  0  0  0  0  0  0  0  0  0
   20.6597   17.7974   17.7069 H   0  0  0  0  0  0  0  0  0  0  0  0
   20.5833   17.2883   19.4880 H   0  0  0  0  0  0  0  0  0  0  0  0
   20.0332   19.2995   19.0536 C   0  0  0  0  0  0  0  0  0  0  0  0
   19.9135   20.0362   18.2595 H   0  0  0  0  0  0  0  0  0  0  0  0
   19.6972   19.8197   20.4413 C   0  0  0  0  0  0  0  0  0  0  0  0
   18.6643   20.1928   20.4377 H   0  0  0  0  0  0  0  0  0  0  0  0
   20.3272   20.6942   20.6523 H   0  0  0  0  0  0  0  0  0  0  0  0
   19.8605   18.7897   21.5834 C   0  0  0  0  0  0  0  0  0  0  0  0
   19.2167   17.9209   21.3889 H   0  0  0  0  0  0  0  0  0  0  0  0
   20.8976   18.4278   21.6057 H   0  0  0  0  0  0  0  0  0  0  0  0
   19.5003   19.3966   22.9571 C   0  0  0  0  0  0  0  0  0  0  0  0
   18.4636   19.7607   22.9413 H   0  0  0  0  0  0  0  0  0  0  0  0
   20.1410   20.2665   23.1577 H   0  0  0  0  0  0  0  0  0  0  0  0
   19.6630   18.3671   24.1025 C   0  0  0  0  0  0  0  0  0  0  0  0
   19.0193   17.4973   23.9243 H   0  0  0  0  0  0  0  0  0  0  0  0
   20.6968   18.0032   24.1406 H   0  0  0  0  0  0  0  0  0  0  0  0
   19.3130   18.9430   25.4699 C   0  0  0  0  0  0  0  0  0  0  0  0
   20.1971   19.4751   26.1116 O   0  5  0  0  0  0  0  0  0  0  0  0
   18.1613   18.8613   25.8489 O   0  0  0  0  0  0  0  0  0  0  0  0
  1  2  1  0  0  0  0
  1  3  1  0  0  0  0
  1  4  2  0  0  0  0
  4  5  1  0  0  0  0
  4  6  1  0  0  0  0
  6  7  1  0  0  0  0
  6  8  1  0  0  0  0
  6  9  1  0  0  0  0
  9 10  1  0  0  0  0
  9 11  1  0  0  0  0
  9 12  1  0  0  0  0
 12 13  1  0  0  0  0
 12 14  1  0  0  0  0
 12 15  1  0  0  0  0
 15 16  1  0  0  0  0
 15 17  1  0  0  0  0
 15 18  1  0  0  0  0
 18 19  1  0  0  0  0
 18 20  2  0  0  0  0
M  END
> <VM2 Rank>
1

> <Conf_Id>
236

> <Probability>
13.93

> <Sum Probability>
13.93

> <Delta G>
0.000

> <G>
-21.888

> <E>
-37.136

> <-TS>
15.247

> <U+W>
-53.232

> <U>
6.572

> <W>
-59.803

> <W(PB)>
-62.038

> <W(SA)>
2.234

> <Valence>
7.989

> <Coulomb>
-2.698

> <VdW>
1.281

> <VdW6>
-6.467

> <VdW12>
7.748

> <Bond>
0.136

> <Angle>
2.854

> <Pdih>
4.998

> <Idih>
0.001

> <Tether>
0.000

$$$$
VeraChem MOL file


 20 19  0  0  0  0  0  0  0  0999 V2000     
   19.7355   18.4519   18.2412 C   0  0  0  0  0  0  0  0  0  0  0  0
   20.2194   18.0464   17.3543 H   0  0  0  0  0  0  0  0  0  0  0  0
   18.6526   18.3594   18.3076 H   0  0  0  0  0  0  0  0  0  0  0  0
   20.4463   19.0371   19.2086 C   0  0  0  0  0  0  0  0  0  0  0  0
   21.5296   19.1190   19.1230 H   0  0  0  0  0  0  0  0  0  0  0  0
   19.8446   19.6233   20.4664 C   0  0  0  0  0  0  0  0  0  0  0  0
   18.7575   19.7332   20.3524 H   0  0  0  0  0  0  0  0  0  0  0  0
   20.2484   20.6312   20.6317 H   0  0  0  0  0  0  0  0  0  0  0  0
   20.1458   18.7373   21.6932 C   0  0  0  0  0  0  0  0  0  0  0  0
   19.7434   17.7294   21.5212 H   0  0  0  0  0  0  0  0  0  0  0  0
   21.2332   18.6313   21.8095 H   0  0  0  0  0  0  0  0  0  0  0  0
   19.5410   19.3233   22.9876 C   0  0  0  0  0  0  0  0  0  0  0  0
   18.4530   19.4286   22.8737 H   0  0  0  0  0  0  0  0  0  0  0  0
   19.9425   20.3314   23.1611 H   0  0  0  0  0  0  0  0  0  0  0  0
   19.8425   18.4339   24.2188 C   0  0  0  0  0  0  0  0  0  0  0  0
   19.4361   17.4267   24.0671 H   0  0  0  0  0  0  0  0  0  0  0  0
   20.9256   18.3295   24.3547 H   0  0  0  0  0  0  0  0  0  0  0  0
   19.2549   18.9920   25.5101 C   0  0  0  0  0  0  0  0  0  0  0  0
   19.9341   19.7575   26.1654 O   0  5  0  0  0  0  0  0  0  0  0  0
   18.1264   18.6616   25.8166 O   0  0  0  0  0  0  0  0  0  0  0  0
  1  2  1  0  0  0  0
  1  3  1  0  0  0  0
  1  4  2  0  0  0  0
  4  5  1  0  0  0  0
  4  6  1  0  0  0  0
  6  7  1  0  0  0  0
  6  8  1  0  0  0  0
  6  9  1  0  0  0  0
  9 10  1  0  0  0  0
  9 11  1  0  0  0  0
  9 12  1  0  0  0  0
 12 13  1  0  0  0  0
 12 14  1  0  0  0  0
 12 15  1  0  0  0  0
 15 16  1  0  0  0  0
 15 17  1  0  0  0  0
 15 18  1  0  0  0  0
 18 19  1  0  0  0  0
 18 20  2  0  0  0  0
M  END
> <VM2 Rank>
2

> <Conf_Id>
273

> <Probability>
13.77

> <Sum Probability>
27.70

> <Delta G>
0.007

> <G>
-21.881

> <E>
-36.773

> <-TS>
14.892

> <U+W>
-52.869

> <U>
6.632

> <W>
-59.502

> <W(PB)>
-61.759

> <W(SA)>
2.257

> <Valence>
9.076

> <Coulomb>
-3.008

> <VdW>
0.564

> <VdW6>
-5.773

> <VdW12>
6.337

> <Bond>
0.084

> <Angle>
2.239

> <Pdih>
6.752

> <Idih>
0.001

> <Tether>
0.000

$$$$
VeraChem MOL file


 20 19  0  0  0  0  0  0  0  0999 V2000     
   19.8356   18.3569   18.2569 C   0  0  0  0  0  0  0  0  0  0  0  0
   19.5625   18.6708   17.2508 H   0  0  0  0  0  0  0  0  0  0  0  0
   19.7742   17.2938   18.4840 H   0  0  0  0  0  0  0  0  0  0  0  0
   20.2277   19.2448   19.1742 C   0  0  0  0  0  0  0  0  0  0  0  0
   20.2816   20.3047   18.9267 H   0  0  0  0  0  0  0  0  0  0  0  0
   20.6226   18.8838   20.5890 C   0  0  0  0  0  0  0  0  0  0  0  0
   21.5742   19.3710   20.8405 H   0  0  0  0  0  0  0  0  0  0  0  0
   20.7899   17.8013   20.6726 H   0  0  0  0  0  0  0  0  0  0  0  0
   19.5375   19.3155   21.5975 C   0  0  0  0  0  0  0  0  0  0  0  0
   19.3736   20.3989   21.5167 H   0  0  0  0  0  0  0  0  0  0  0  0
   18.5869   18.8287   21.3391 H   0  0  0  0  0  0  0  0  0  0  0  0
   19.9263   18.9569   23.0483 C   0  0  0  0  0  0  0  0  0  0  0  0
   20.8770   19.4429   23.3082 H   0  0  0  0  0  0  0  0  0  0  0  0
   20.0888   17.8732   23.1313 H   0  0  0  0  0  0  0  0  0  0  0  0
   18.8373   19.3896   24.0606 C   0  0  0  0  0  0  0  0  0  0  0  0
   18.6722   20.4720   23.9999 H   0  0  0  0  0  0  0  0  0  0  0  0
   17.8841   18.9023   23.8228 H   0  0  0  0  0  0  0  0  0  0  0  0
   19.1983   19.0458   25.5013 C   0  0  0  0  0  0  0  0  0  0  0  0
   19.8214   19.8648   26.1474 O   0  5  0  0  0  0  0  0  0  0  0  0
   18.8643   17.9600   25.9328 O   0  0  0  0  0  0  0  0  0  0  0  0
  1  2  1  0  0  0  0
  1  3  1  0  0  0  0
  1  4  2  0  0  0  0
  4  5  1  0  0  0  0
  4  6  1  0  0  0  0
  6  7  1  0  0  0  0
  6  8  1  0  0  0  0
  6  9  1  0  0  0  0
  9 10  1  0  0  0  0
  9 11  1  0  0  0  0
  9 12  1  0  0  0  0
 12 13  1  0  0  0  0
 12 14  1  0  0  0  0
 12 15  1  0  0  0  0
 15 16  1  0  0  0  0
 15 17  1  0  0  0  0
 15 18  1  0  0  0  0
 18 19  1  0  0  0  0
 18 20  2  0  0  0  0
M  END
> <VM2 Rank>
3

> <Conf_Id>
549

> <Probability>
12.47

> <Sum Probability>
40.17

> <Delta G>
0.066

> <G>
-21.822

> <E>
-36.714

> <-TS>
14.892

> <U+W>
-52.810

> <U>
6.633

> <W>
-59.443

> <W(PB)>
-61.702

> <W(SA)>
2.259

> <Valence>
9.076

> <Coulomb>
-3.007

> <VdW>
0.564

> <VdW6>
-5.773

> <VdW12>
6.337

> <Bond>
0.084

> <Angle>
2.239

> <Pdih>
6.752

> <Idih>
0.001

> <Tether>
0.000

$$$$
VeraChem MOL file


 20 19  0  0  0  0  0  0  0  0999 V2000     
   19.2309   18.4037   18.7287 C   0  0  0  0  0  0  0  0  0  0  0  0
   18.2505   18.2556   18.2791 H   0  0  0  0  0  0  0  0  0  0  0  0
   20.0631   17.8369   18.3143 H   0  0  0  0  0  0  0  0  0  0  0  0
   19.4013   19.2464   19.7507 C   0  0  0  0  0  0  0  0  0  0  0  0
   18.5552   19.8062   20.1482 H   0  0  0  0  0  0  0  0  0  0  0  0
   20.7334   19.5075   20.4208 C   0  0  0  0  0  0  0  0  0  0  0  0
   20.8636   20.5852   20.5874 H   0  0  0  0  0  0  0  0  0  0  0  0
   21.5500   19.1989   19.7541 H   0  0  0  0  0  0  0  0  0  0  0  0
   20.8758   18.7515   21.7610 C   0  0  0  0  0  0  0  0  0  0  0  0
   20.7292   17.6760   21.5905 H   0  0  0  0  0  0  0  0  0  0  0  0
   21.9037   18.8744   22.1288 H   0  0  0  0  0  0  0  0  0  0  0  0
   19.8879   19.2504   22.8405 C   0  0  0  0  0  0  0  0  0  0  0  0
   18.8540   19.0972   22.5022 H   0  0  0  0  0  0  0  0  0  0  0  0
   20.0180   20.3310   22.9911 H   0  0  0  0  0  0  0  0  0  0  0  0
   20.0917   18.5178   24.1895 C   0  0  0  0  0  0  0  0  0  0  0  0
   19.9533   17.4379   24.0582 H   0  0  0  0  0  0  0  0  0  0  0  0
   21.1145   18.6720   24.5539 H   0  0  0  0  0  0  0  0  0  0  0  0
   19.1276   18.9910   25.2714 C   0  0  0  0  0  0  0  0  0  0  0  0
   19.4621   19.9295   25.9671 O   0  5  0  0  0  0  0  0  0  0  0  0
   18.0602   18.4201   25.3784 O   0  0  0  0  0  0  0  0  0  0  0  0
  1  2  1  0  0  0  0
  1  3  1  0  0  0  0
  1  4  2  0  0  0  0
  4  5  1  0  0  0  0
  4  6  1  0  0  0  0
  6  7  1  0  0  0  0
  6  8  1  0  0  0  0
  6  9  1  0  0  0  0
  9 10  1  0  0  0  0
  9 11  1  0  0  0  0
  9 12  1  0  0  0  0
 12 13  1  0  0  0  0
 12 14  1  0  0  0  0
 12 15  1  0  0  0  0
 15 16  1  0  0  0  0
 15 17  1  0  0  0  0
 15 18  1  0  0  0  0
 18 19  1  0  0  0  0
 18 20  2  0  0  0  0
M  END
> <VM2 Rank>
4

> <Conf_Id>
516

> <Probability>
4.98

> <Sum Probability>
45.15

> <Delta G>
0.613

> <G>
-21.275

> <E>
-36.308

> <-TS>
15.032

> <U+W>
-52.404

> <U>
7.828

> <W>
-60.232

> <W(PB)>
-62.486

> <W(SA)>
2.254

> <Valence>
9.301

> <Coulomb>
-2.080

> <VdW>
0.608

> <VdW6>
-6.341

> <VdW12>
6.949

> <Bond>
0.103

> <Angle>
2.334

> <Pdih>
6.862

> <Idih>
0.001

> <Tether>
0.000

$$$$
VeraChem MOL file


 20 19  0  0  0  0  0  0  0  0999 V2000     
   21.2428   19.0105   18.9880 C   0  0  0  0  0  0  0  0  0  0  0  0
   20.9773   18.1129   18.4319 H   0  0  0  0  0  0  0  0  0  0  0  0
   22.2181   19.4521   18.7906 H   0  0  0  0  0  0  0  0  0  0  0  0
   20.4088   19.5501   19.8806 C   0  0  0  0  0  0  0  0  0  0  0  0
   20.6932   20.4507   20.4241 H   0  0  0  0  0  0  0  0  0  0  0  0
   19.0371   18.9960   20.2020 C   0  0  0  0  0  0  0  0  0  0  0  0
   18.7024   18.3402   19.3869 H   0  0  0  0  0  0  0  0  0  0  0  0
   18.3067   19.8142   20.2576 H   0  0  0  0  0  0  0  0  0  0  0  0
   19.0218   18.1925   21.5219 C   0  0  0  0  0  0  0  0  0  0  0  0
   18.0411   17.7095   21.6306 H   0  0  0  0  0  0  0  0  0  0  0  0
   19.7654   17.3854   21.4662 H   0  0  0  0  0  0  0  0  0  0  0  0
   19.2948   19.0715   22.7640 C   0  0  0  0  0  0  0  0  0  0  0  0
   18.5665   19.8933   22.8038 H   0  0  0  0  0  0  0  0  0  0  0  0
   20.2900   19.5302   22.6875 H   0  0  0  0  0  0  0  0  0  0  0  0
   19.2152   18.2535   24.0764 C   0  0  0  0  0  0  0  0  0  0  0  0
   18.2223   17.7999   24.1809 H   0  0  0  0  0  0  0  0  0  0  0  0
   19.9453   17.4355   24.0572 H   0  0  0  0  0  0  0  0  0  0  0  0
   19.4824   19.0980   25.3172 C   0  0  0  0  0  0  0  0  0  0  0  0
   20.6283   19.1944   25.7098 O   0  5  0  0  0  0  0  0  0  0  0  0
   18.5397   19.6515   25.8480 O   0  0  0  0  0  0  0  0  0  0  0  0
  1  2  1  0  0  0  0
  1  3  1  0  0  0  0
  1  4  2  0  0  0  0
  4  5  1  0  0  0  0
  4  6  1  0  0  0  0
  6  7  1  0  0  0  0
  6  8  1  0  0  0  0
  6  9  1  0  0  0  0
  9 10  1  0  0  0  0
  9 11  1  0  0  0  0
  9 12  1  0  0  0  0
 12 13  1  0  0  0  0
 12 14  1  0  0  0  0
 12 15  1  0  0  0  0
 15 16  1  0  0  0  0
 15 17  1  0  0  0  0
 15 18  1  0  0  0  0
 18 19  1  0  0  0  0
 18 20  2  0  0  0  0
M  END
> <VM2 Rank>
5

> <Conf_Id>
132

> <Probability>
4.79

> <Sum Probability>
49.94

> <Delta G>
0.636

> <G>
-21.252

> <E>
-36.284

> <-TS>
15.032

> <U+W>
-52.381

> <U>
7.828

> <W>
-60.209

> <W(PB)>
-62.451

> <W(SA)>
2.242

> <Valence>
9.300

> <Coulomb>
-2.080

> <VdW>
0.608

> <VdW6>
-6.341

> <VdW12>
6.949

> <Bond>
0.103

> <Angle>
2.334

> <Pdih>
6.862

> <Idih>
0.001

> <Tether>
0.000

$$$$
VeraChem MOL file


 20 19  0  0  0  0  0  0  0  0999 V2000     
   19.7216   18.9158   18.3063 C   0  0  0  0  0  0  0  0  0  0  0  0
   18.7429   19.3926   18.3239 H   0  0  0  0  0  0  0  0  0  0  0  0
   20.2153   18.8209   17.3406 H   0  0  0  0  0  0  0  0  0  0  0  0
   20.2985   18.4656   19.4235 C   0  0  0  0  0  0  0  0  0  0  0  0
   21.2793   17.9921   19.3843 H   0  0  0  0  0  0  0  0  0  0  0  0
   19.6745   18.5614   20.7980 C   0  0  0  0  0  0  0  0  0  0  0  0
   19.7373   17.5830   21.2907 H   0  0  0  0  0  0  0  0  0  0  0  0
   18.6071   18.8069   20.7140 H   0  0  0  0  0  0  0  0  0  0  0  0
   20.3831   19.6339   21.6555 C   0  0  0  0  0  0  0  0  0  0  0  0
   21.4373   19.3581   21.7953 H   0  0  0  0  0  0  0  0  0  0  0  0
   20.3819   20.5846   21.1044 H   0  0  0  0  0  0  0  0  0  0  0  0
   19.7172   19.8616   23.0335 C   0  0  0  0  0  0  0  0  0  0  0  0
   18.6662   20.1506   22.8948 H   0  0  0  0  0  0  0  0  0  0  0  0
   20.2097   20.7111   23.5266 H   0  0  0  0  0  0  0  0  0  0  0  0
   19.7959   18.6282   23.9702 C   0  0  0  0  0  0  0  0  0  0  0  0
   19.2360   17.7859   23.5485 H   0  0  0  0  0  0  0  0  0  0  0  0
   20.8373   18.3038   24.0825 H   0  0  0  0  0  0  0  0  0  0  0  0
   19.2353   18.9074   25.3601 C   0  0  0  0  0  0  0  0  0  0  0  0
   19.9947   19.3261   26.2114 O   0  5  0  0  0  0  0  0  0  0  0  0
   18.0500   18.7179   25.5495 O   0  0  0  0  0  0  0  0  0  0  0  0
  1  2  1  0  0  0  0
  1  3  1  0  0  0  0
  1  4  2  0  0  0  0
  4  5  1  0  0  0  0
  4  6  1  0  0  0  0
  6  7  1  0  0  0  0
  6  8  1  0  0  0  0
  6  9  1  0  0  0  0
  9 10  1  0  0  0  0
  9 11  1  0  0  0  0
  9 12  1  0  0  0  0
 12 13  1  0  0  0  0
 12 14  1  0  0  0  0
 12 15  1  0  0  0  0
 15 16  1  0  0  0  0
 15 17  1  0  0  0  0
 15 18  1  0  0  0  0
 18 19  1  0  0  0  0
 18 20  2  0  0  0  0
M  END
> <VM2 Rank>
6

> <Conf_Id>
559

> <Probability>
4.05

> <Sum Probability>
53.99

> <Delta G>
0.736

> <G>
-21.152

> <E>
-36.159

> <-TS>
15.007

> <U+W>
-52.255

> <U>
7.491

> <W>
-59.747

> <W(PB)>
-61.973

> <W(SA)>
2.226

> <Valence>
9.604

> <Coulomb>
-2.799

> <VdW>
0.686

> <VdW6>
-6.435

> <VdW12>
7.121

> <Bond>
0.124

> <Angle>
2.493

> <Pdih>
6.986

> <Idih>
0.001

> <Tether>
0.000

$$$$
VeraChem MOL file


 20 19  0  0  0  0  0  0  0  0999 V2000     
   18.6393   19.5606   19.3943 C   0  0  0  0  0  0  0  0  0  0  0  0
   17.7308   19.2233   18.8984 H   0  0  0  0  0  0  0  0  0  0  0  0
   18.7041   20.6147   19.6591 H   0  0  0  0  0  0  0  0  0  0  0  0
   19.6322   18.7103   19.6688 C   0  0  0  0  0  0  0  0  0  0  0  0
   19.5464   17.6585   19.3975 H   0  0  0  0  0  0  0  0  0  0  0  0
   20.9227   19.1046   20.3552 C   0  0  0  0  0  0  0  0  0  0  0  0
   21.0142   20.1980   20.4080 H   0  0  0  0  0  0  0  0  0  0  0  0
   21.7711   18.7517   19.7539 H   0  0  0  0  0  0  0  0  0  0  0  0
   21.0364   18.5082   21.7762 C   0  0  0  0  0  0  0  0  0  0  0  0
   20.9442   17.4146   21.7233 H   0  0  0  0  0  0  0  0  0  0  0  0
   22.0395   18.7206   22.1708 H   0  0  0  0  0  0  0  0  0  0  0  0
   19.9773   19.0766   22.7481 C   0  0  0  0  0  0  0  0  0  0  0  0
   18.9685   18.8471   22.3780 H   0  0  0  0  0  0  0  0  0  0  0  0
   20.0601   20.1716   22.7864 H   0  0  0  0  0  0  0  0  0  0  0  0
   20.1376   18.5005   24.1765 C   0  0  0  0  0  0  0  0  0  0  0  0
   20.0448   17.4080   24.1563 H   0  0  0  0  0  0  0  0  0  0  0  0
   21.1341   18.7343   24.5699 H   0  0  0  0  0  0  0  0  0  0  0  0
   19.1032   19.0462   25.1544 C   0  0  0  0  0  0  0  0  0  0  0  0
   19.3629   20.0731   25.7500 O   0  5  0  0  0  0  0  0  0  0  0  0
   18.0593   18.4379   25.2845 O   0  0  0  0  0  0  0  0  0  0  0  0
  1  2  1  0  0  0  0
  1  3  1  0  0  0  0
  1  4  2  0  0  0  0
  4  5  1  0  0  0  0
  4  6  1  0  0  0  0
  6  7  1  0  0  0  0
  6  8  1  0  0  0  0
  6  9  1  0  0  0  0
  9 10  1  0  0  0  0
  9 11  1  0  0  0  0
  9 12  1  0  0  0  0
 12 13  1  0  0  0  0
 12 14  1  0  0  0  0
 12 15  1  0  0  0  0
 15 16  1  0  0  0  0
 15 17  1  0  0  0  0
 15 18  1  0  0  0  0
 18 19  1  0  0  0  0
 18 20  2  0  0  0  0
M  END
> <VM2 Rank>
7

> <Conf_Id>
233

> <Probability>
3.96

> <Sum Probability>
57.96

> <Delta G>
0.749

> <G>
-21.139

> <E>
-36.251

> <-TS>
15.112

> <U+W>
-52.347

> <U>
8.428

> <W>
-60.775

> <W(PB)>
-62.983

> <W(SA)>
2.208

> <Valence>
9.231

> <Coulomb>
-1.304

> <VdW>
0.501

> <VdW6>
-6.515

> <VdW12>
7.016

> <Bond>
0.103

> <Angle>
2.328

> <Pdih>
6.799

> <Idih>
0.001

> <Tether>
0.000

$$$$
VeraChem MOL file


 20 19  0  0  0  0  0  0  0  0999 V2000     
   20.3969   17.5037   19.6232 C   0  0  0  0  0  0  0  0  0  0  0  0
   19.9730   16.5991   19.1906 H   0  0  0  0  0  0  0  0  0  0  0  0
   21.4123   17.4452   20.0118 H   0  0  0  0  0  0  0  0  0  0  0  0
   19.6939   18.6381   19.6769 C   0  0  0  0  0  0  0  0  0  0  0  0
   18.6780   18.6747   19.2846 H   0  0  0  0  0  0  0  0  0  0  0  0
   20.2147   19.9332   20.2630 C   0  0  0  0  0  0  0  0  0  0  0  0
   20.0717   20.7406   19.5327 H   0  0  0  0  0  0  0  0  0  0  0  0
   21.2961   19.8680   20.4448 H   0  0  0  0  0  0  0  0  0  0  0  0
   19.4931   20.3144   21.5753 C   0  0  0  0  0  0  0  0  0  0  0  0
   19.8209   21.3171   21.8819 H   0  0  0  0  0  0  0  0  0  0  0  0
   18.4115   20.3788   21.3935 H   0  0  0  0  0  0  0  0  0  0  0  0
   19.7730   19.3157   22.7215 C   0  0  0  0  0  0  0  0  0  0  0  0
   20.8561   19.2399   22.8901 H   0  0  0  0  0  0  0  0  0  0  0  0
   19.4248   18.3131   22.4375 H   0  0  0  0  0  0  0  0  0  0  0  0
   19.0780   19.7406   24.0386 C   0  0  0  0  0  0  0  0  0  0  0  0
   19.4260   20.7336   24.3475 H   0  0  0  0  0  0  0  0  0  0  0  0
   17.9938   19.8085   23.8893 H   0  0  0  0  0  0  0  0  0  0  0  0
   19.3389   18.7703   25.1851 C   0  0  0  0  0  0  0  0  0  0  0  0
   20.3234   18.9490   25.8748 O   0  5  0  0  0  0  0  0  0  0  0  0
   18.5590   17.8531   25.3495 O   0  0  0  0  0  0  0  0  0  0  0  0
  1  2  1  0  0  0  0
  1  3  1  0  0  0  0
  1  4  2  0  0  0  0
  4  5  1  0  0  0  0
  4  6  1  0  0  0  0
  6  7  1  0  0  0  0
  6  8  1  0  0  0  0
  6  9  1  0  0  0  0
  9 10  1  0  0  0  0
  9 11  1  0  0  0  0
  9 12  1  0  0  0  0
 12 13  1  0  0  0  0
 12 14  1  0  0  0  0
 12 15  1  0  0  0  0
 15 16  1  0  0  0  0
 15 17  1  0  0  0  0
 15 18  1  0  0  0  0
 18 19  1  0  0  0  0
 18 20  2  0  0  0  0
M  END
> <VM2 Rank>
8

> <Conf_Id>
120

> <Probability>
3.90

> <Sum Probability>
61.85

> <Delta G>
0.760

> <G>
-21.129

> <E>
-36.241

> <-TS>
15.112

> <U+W>
-52.337

> <U>
8.428

> <W>
-60.765

> <W(PB)>
-62.976

> <W(SA)>
2.211

> <Valence>
9.230

> <Coulomb>
-1.304

> <VdW>
0.501

> <VdW6>
-6.515

> <VdW12>
7.017

> <Bond>
0.103

> <Angle>
2.328

> <Pdih>
6.799

> <Idih>
0.000

> <Tether>
0.000

$$$$
