VeraChem MOL file


 17 16  0  0  0  0  0  0  0  0999 V2000     
   19.6262   18.8414   24.1383 N   0  3  0  0  0  0  0  0  0  0  0  0
   20.0581   19.1907   24.9999 H   0  0  0  0  0  0  0  0  0  0  0  0
   19.6530   17.8183   24.1874 H   0  0  0  0  0  0  0  0  0  0  0  0
   18.6402   19.1181   24.1682 H   0  0  0  0  0  0  0  0  0  0  0  0
   20.3271   19.3692   22.9024 C   0  0  0  0  0  0  0  0  0  0  0  0
   21.3758   19.0639   22.9527 H   0  0  0  0  0  0  0  0  0  0  0  0
   20.2866   20.4615   22.9320 H   0  0  0  0  0  0  0  0  0  0  0  0
   19.7035   18.8637   21.5888 C   0  0  0  0  0  0  0  0  0  0  0  0
   19.7321   17.7660   21.5695 H   0  0  0  0  0  0  0  0  0  0  0  0
   18.6464   19.1588   21.5489 H   0  0  0  0  0  0  0  0  0  0  0  0
   20.4461   19.4243   20.3560 C   0  0  0  0  0  0  0  0  0  0  0  0
   21.5050   19.1321   20.3971 H   0  0  0  0  0  0  0  0  0  0  0  0
   20.4207   20.5231   20.3764 H   0  0  0  0  0  0  0  0  0  0  0  0
   19.8261   18.9214   19.0345 C   0  0  0  0  0  0  0  0  0  0  0  0
   20.3674   19.3306   18.1716 H   0  0  0  0  0  0  0  0  0  0  0  0
   18.7755   19.2283   18.9487 H   0  0  0  0  0  0  0  0  0  0  0  0
   19.8684   17.8263   18.9695 H   0  0  0  0  0  0  0  0  0  0  0  0
  1  2  1  0  0  0  0
  1  3  1  0  0  0  0
  1  4  1  0  0  0  0
  1  5  1  0  0  0  0
  5  6  1  0  0  0  0
  5  7  1  0  0  0  0
  5  8  1  0  0  0  0
  8  9  1  0  0  0  0
  8 10  1  0  0  0  0
  8 11  1  0  0  0  0
 11 12  1  0  0  0  0
 11 13  1  0  0  0  0
 11 14  1  0  0  0  0
 14 15  1  0  0  0  0
 14 16  1  0  0  0  0
 14 17  1  0  0  0  0
M  END
> <VM2 Rank>
1

> <Conf_Id>
88

> <Probability>
28.06

> <Sum Probability>
28.06

> <Delta G>
0.000

> <G>
15.404

> <E>
-2.454

> <-TS>
17.858

> <U+W>
-15.867

> <U>
44.664

> <W>
-60.532

> <W(PB)>
-62.309

> <W(SA)>
1.777

> <Valence>
0.872

> <Coulomb>
43.648

> <VdW>
0.144

> <VdW6>
-2.370

> <VdW12>
2.515

> <Bond>
0.080

> <Angle>
0.376

> <Pdih>
0.416

> <Idih>
0.000

> <Tether>
0.000

$$$$
