VeraChem MOL file


 29 28  0  0  0  0  0  0  0  0999 V2000     
   19.5303   19.9313   18.7440 C   0  0  0  0  0  0  0  0  0  0  0  0
   18.5900   20.4919   18.8259 H   0  0  0  0  0  0  0  0  0  0  0  0
   20.3579   20.6524   18.7241 H   0  0  0  0  0  0  0  0  0  0  0  0
   19.5233   19.3998   17.7835 H   0  0  0  0  0  0  0  0  0  0  0  0
   19.6880   18.9385   19.9150 C   0  0  0  0  0  0  0  0  0  0  0  0
   20.6196   18.3695   19.7877 H   0  0  0  0  0  0  0  0  0  0  0  0
   18.8653   18.2102   19.8888 H   0  0  0  0  0  0  0  0  0  0  0  0
   19.7010   19.6615   21.2799 C   0  0  0  0  0  0  0  0  0  0  0  0
   20.5234   20.3899   21.3006 H   0  0  0  0  0  0  0  0  0  0  0  0
   18.7690   20.2308   21.4016 H   0  0  0  0  0  0  0  0  0  0  0  0
   19.8586   18.6705   22.4551 C   0  0  0  0  0  0  0  0  0  0  0  0
   20.7902   18.1010   22.3314 H   0  0  0  0  0  0  0  0  0  0  0  0
   19.0357   17.9426   22.4338 H   0  0  0  0  0  0  0  0  0  0  0  0
   19.8724   19.3942   23.8204 C   0  0  0  0  0  0  0  0  0  0  0  0
   20.6979   20.1193   23.8422 H   0  0  0  0  0  0  0  0  0  0  0  0
   18.9416   19.9659   23.9336 H   0  0  0  0  0  0  0  0  0  0  0  0
   20.0290   18.3990   24.9958 C   0  0  0  0  0  0  0  0  0  0  0  0
   20.9356   17.8004   24.8354 H   0  0  0  0  0  0  0  0  0  0  0  0
   19.1857   17.6956   25.0018 H   0  0  0  0  0  0  0  0  0  0  0  0
   20.1314   19.0989   26.3682 C   0  0  2  0  0  0  0  0  0  0  0  0
   20.9619   19.8105   26.3293 H   0  0  0  0  0  0  0  0  0  0  0  0
   20.4279   18.0709   27.4716 C   0  0  0  0  0  0  0  0  0  0  0  0
   19.6207   17.3322   27.5534 H   0  0  0  0  0  0  0  0  0  0  0  0
   21.3621   17.5344   27.2637 H   0  0  0  0  0  0  0  0  0  0  0  0
   20.5382   18.5660   28.4442 H   0  0  0  0  0  0  0  0  0  0  0  0
   18.8975   19.8912   26.7040 N   0  3  0  0  0  0  0  0  0  0  0  0
   18.0710   19.2898   26.7564 H   0  0  0  0  0  0  0  0  0  0  0  0
   18.7120   20.6104   25.9997 H   0  0  0  0  0  0  0  0  0  0  0  0
   18.9908   20.3639   27.6076 H   0  0  0  0  0  0  0  0  0  0  0  0
  1  2  1  0  0  0  0
  1  3  1  0  0  0  0
  1  4  1  0  0  0  0
  1  5  1  0  0  0  0
  5  6  1  0  0  0  0
  5  7  1  0  0  0  0
  5  8  1  0  0  0  0
  8  9  1  0  0  0  0
  8 10  1  0  0  0  0
  8 11  1  0  0  0  0
 11 12  1  0  0  0  0
 11 13  1  0  0  0  0
 11 14  1  0  0  0  0
 14 15  1  0  0  0  0
 14 16  1  0  0  0  0
 14 17  1  0  0  0  0
 17 18  1  0  0  0  0
 17 19  1  0  0  0  0
 17 20  1  0  0  0  0
 20 21  1  0  0  0  0
 20 22  1  0  0  0  0
 22 23  1  0  0  0  0
 22 24  1  0  0  0  0
 22 25  1  0  0  0  0
 20 26  1  0  0  0  0
 26 27  1  0  0  0  0
 26 28  1  0  0  0  0
 26 29  1  0  0  0  0
M  END
> <VM2 Rank>
1

> <Conf_Id>
718

> <Probability>
10.36

> <Sum Probability>
10.36

> <Delta G>
0.000

> <G>
33.702

> <E>
-3.682

> <-TS>
37.384

> <U+W>
-27.827

> <U>
23.963

> <W>
-51.787

> <W(PB)>
-54.343

> <W(SA)>
2.556

> <Valence>
3.166

> <Coulomb>
19.734

> <VdW>
1.063

> <VdW6>
-7.939

> <VdW12>
9.001

> <Bond>
0.188

> <Angle>
0.880

> <Pdih>
2.098

> <Idih>
0.000

> <Tether>
0.000

$$$$
VeraChem MOL file


 29 28  0  0  0  0  0  0  0  0999 V2000     
   19.0307   19.3523   18.8498 C   0  0  0  0  0  0  0  0  0  0  0  0
   18.5002   18.3915   18.8267 H   0  0  0  0  0  0  0  0  0  0  0  0
   18.2858   20.1518   18.9554 H   0  0  0  0  0  0  0  0  0  0  0  0
   19.5318   19.4841   17.8820 H   0  0  0  0  0  0  0  0  0  0  0  0
   20.0549   19.3927   20.0036 C   0  0  0  0  0  0  0  0  0  0  0  0
   20.5927   20.3509   19.9804 H   0  0  0  0  0  0  0  0  0  0  0  0
   20.8054   18.6041   19.8528 H   0  0  0  0  0  0  0  0  0  0  0  0
   19.3751   19.2095   21.3785 C   0  0  0  0  0  0  0  0  0  0  0  0
   18.6244   19.9987   21.5238 H   0  0  0  0  0  0  0  0  0  0  0  0
   18.8369   18.2517   21.3960 H   0  0  0  0  0  0  0  0  0  0  0  0
   20.3977   19.2492   22.5364 C   0  0  0  0  0  0  0  0  0  0  0  0
   20.9356   20.2071   22.5173 H   0  0  0  0  0  0  0  0  0  0  0  0
   21.1481   18.4599   22.3898 H   0  0  0  0  0  0  0  0  0  0  0  0
   19.7173   19.0656   23.9118 C   0  0  0  0  0  0  0  0  0  0  0  0
   18.9681   19.8560   24.0512 H   0  0  0  0  0  0  0  0  0  0  0  0
   19.1790   18.1088   23.9191 H   0  0  0  0  0  0  0  0  0  0  0  0
   20.7490   19.1030   25.0692 C   0  0  0  0  0  0  0  0  0  0  0  0
   21.3132   20.0436   25.0189 H   0  0  0  0  0  0  0  0  0  0  0  0
   21.4853   18.3013   24.9249 H   0  0  0  0  0  0  0  0  0  0  0  0
   20.1434   18.9722   26.4866 C   0  0  2  0  0  0  0  0  0  0  0  0
   20.9693   19.0446   27.2010 H   0  0  0  0  0  0  0  0  0  0  0  0
   19.4612   17.6099   26.7012 C   0  0  0  0  0  0  0  0  0  0  0  0
   20.1452   16.7882   26.4551 H   0  0  0  0  0  0  0  0  0  0  0  0
   19.1631   17.4915   27.7502 H   0  0  0  0  0  0  0  0  0  0  0  0
   18.5611   17.5050   26.0839 H   0  0  0  0  0  0  0  0  0  0  0  0
   19.2067   20.1015   26.8169 N   0  3  0  0  0  0  0  0  0  0  0  0
   19.6666   21.0113   26.7196 H   0  0  0  0  0  0  0  0  0  0  0  0
   18.8633   20.0333   27.7792 H   0  0  0  0  0  0  0  0  0  0  0  0
   18.3914   20.1001   26.1990 H   0  0  0  0  0  0  0  0  0  0  0  0
  1  2  1  0  0  0  0
  1  3  1  0  0  0  0
  1  4  1  0  0  0  0
  1  5  1  0  0  0  0
  5  6  1  0  0  0  0
  5  7  1  0  0  0  0
  5  8  1  0  0  0  0
  8  9  1  0  0  0  0
  8 10  1  0  0  0  0
  8 11  1  0  0  0  0
 11 12  1  0  0  0  0
 11 13  1  0  0  0  0
 11 14  1  0  0  0  0
 14 15  1  0  0  0  0
 14 16  1  0  0  0  0
 14 17  1  0  0  0  0
 17 18  1  0  0  0  0
 17 19  1  0  0  0  0
 17 20  1  0  0  0  0
 20 21  1  0  0  0  0
 20 22  1  0  0  0  0
 22 23  1  0  0  0  0
 22 24  1  0  0  0  0
 22 25  1  0  0  0  0
 20 26  1  0  0  0  0
 26 27  1  0  0  0  0
 26 28  1  0  0  0  0
 26 29  1  0  0  0  0
M  END
> <VM2 Rank>
2

> <Conf_Id>
441

> <Probability>
5.08

> <Sum Probability>
15.44

> <Delta G>
0.425

> <G>
34.127

> <E>
-3.403

> <-TS>
37.530

> <U+W>
-27.548

> <U>
24.513

> <W>
-52.061

> <W(PB)>
-54.558

> <W(SA)>
2.497

> <Valence>
3.677

> <Coulomb>
19.662

> <VdW>
1.174

> <VdW6>
-8.569

> <VdW12>
9.743

> <Bond>
0.224

> <Angle>
1.211

> <Pdih>
2.243

> <Idih>
0.000

> <Tether>
0.000

$$$$
VeraChem MOL file


 29 28  0  0  0  0  0  0  0  0999 V2000     
   20.2031   19.4674   18.6904 C   0  0  0  0  0  0  0  0  0  0  0  0
   20.5985   20.4914   18.7045 H   0  0  0  0  0  0  0  0  0  0  0  0
   21.0525   18.7734   18.6438 H   0  0  0  0  0  0  0  0  0  0  0  0
   19.6169   19.3449   17.7704 H   0  0  0  0  0  0  0  0  0  0  0  0
   19.3302   19.1928   19.9333 C   0  0  0  0  0  0  0  0  0  0  0  0
   18.9221   18.1741   19.8744 H   0  0  0  0  0  0  0  0  0  0  0  0
   18.4716   19.8789   19.9345 H   0  0  0  0  0  0  0  0  0  0  0  0
   20.1320   19.3585   21.2431 C   0  0  0  0  0  0  0  0  0  0  0  0
   20.9904   18.6726   21.2361 H   0  0  0  0  0  0  0  0  0  0  0  0
   20.5398   20.3775   21.2964 H   0  0  0  0  0  0  0  0  0  0  0  0
   19.2613   19.0843   22.4899 C   0  0  0  0  0  0  0  0  0  0  0  0
   18.8542   18.0651   22.4360 H   0  0  0  0  0  0  0  0  0  0  0  0
   18.4026   19.7700   22.4947 H   0  0  0  0  0  0  0  0  0  0  0  0
   20.0638   19.2507   23.8002 C   0  0  0  0  0  0  0  0  0  0  0  0
   20.9233   18.5679   23.7813 H   0  0  0  0  0  0  0  0  0  0  0  0
   20.4665   20.2716   23.8563 H   0  0  0  0  0  0  0  0  0  0  0  0
   19.1902   18.9708   25.0478 C   0  0  0  0  0  0  0  0  0  0  0  0
   18.8392   17.9305   25.0284 H   0  0  0  0  0  0  0  0  0  0  0  0
   18.2937   19.6027   24.9953 H   0  0  0  0  0  0  0  0  0  0  0  0
   19.9086   19.2524   26.3872 C   0  0  2  0  0  0  0  0  0  0  0  0
   20.2850   20.2797   26.3655 H   0  0  0  0  0  0  0  0  0  0  0  0
   21.0972   18.3024   26.6195 C   0  0  0  0  0  0  0  0  0  0  0  0
   20.7790   17.2530   26.5862 H   0  0  0  0  0  0  0  0  0  0  0  0
   21.8787   18.4492   25.8651 H   0  0  0  0  0  0  0  0  0  0  0  0
   21.5542   18.4882   27.5994 H   0  0  0  0  0  0  0  0  0  0  0  0
   18.9495   19.1766   27.5426 N   0  3  0  0  0  0  0  0  0  0  0  0
   19.4123   19.4013   28.4281 H   0  0  0  0  0  0  0  0  0  0  0  0
   18.5499   18.2389   27.6361 H   0  0  0  0  0  0  0  0  0  0  0  0
   18.1715   19.8332   27.4306 H   0  0  0  0  0  0  0  0  0  0  0  0
  1  2  1  0  0  0  0
  1  3  1  0  0  0  0
  1  4  1  0  0  0  0
  1  5  1  0  0  0  0
  5  6  1  0  0  0  0
  5  7  1  0  0  0  0
  5  8  1  0  0  0  0
  8  9  1  0  0  0  0
  8 10  1  0  0  0  0
  8 11  1  0  0  0  0
 11 12  1  0  0  0  0
 11 13  1  0  0  0  0
 11 14  1  0  0  0  0
 14 15  1  0  0  0  0
 14 16  1  0  0  0  0
 14 17  1  0  0  0  0
 17 18  1  0  0  0  0
 17 19  1  0  0  0  0
 17 20  1  0  0  0  0
 20 21  1  0  0  0  0
 20 22  1  0  0  0  0
 22 23  1  0  0  0  0
 22 24  1  0  0  0  0
 22 25  1  0  0  0  0
 20 26  1  0  0  0  0
 26 27  1  0  0  0  0
 26 28  1  0  0  0  0
 26 29  1  0  0  0  0
M  END
> <VM2 Rank>
3

> <Conf_Id>
58

> <Probability>
5.06

> <Sum Probability>
20.50

> <Delta G>
0.427

> <G>
34.129

> <E>
-3.270

> <-TS>
37.399

> <U+W>
-27.414

> <U>
24.279

> <W>
-51.694

> <W(PB)>
-54.271

> <W(SA)>
2.577

> <Valence>
3.709

> <Coulomb>
19.380

> <VdW>
1.191

> <VdW6>
-8.093

> <VdW12>
9.284

> <Bond>
0.200

> <Angle>
1.161

> <Pdih>
2.348

> <Idih>
0.000

> <Tether>
0.000

$$$$
VeraChem MOL file


 29 28  0  0  0  0  0  0  0  0999 V2000     
   18.8287   18.7944   19.4038 C   0  0  0  0  0  0  0  0  0  0  0  0
   18.8815   18.5120   18.3443 H   0  0  0  0  0  0  0  0  0  0  0  0
   18.6829   17.8743   19.9832 H   0  0  0  0  0  0  0  0  0  0  0  0
   17.9438   19.4300   19.5382 H   0  0  0  0  0  0  0  0  0  0  0  0
   20.1156   19.5361   19.8304 C   0  0  0  0  0  0  0  0  0  0  0  0
   20.2824   20.3786   19.1448 H   0  0  0  0  0  0  0  0  0  0  0  0
   20.9818   18.8697   19.7152 H   0  0  0  0  0  0  0  0  0  0  0  0
   20.0615   20.0783   21.2791 C   0  0  0  0  0  0  0  0  0  0  0  0
   20.9617   20.6821   21.4590 H   0  0  0  0  0  0  0  0  0  0  0  0
   19.2060   20.7597   21.3838 H   0  0  0  0  0  0  0  0  0  0  0  0
   19.9771   18.9654   22.3510 C   0  0  0  0  0  0  0  0  0  0  0  0
   20.8048   18.2569   22.2094 H   0  0  0  0  0  0  0  0  0  0  0  0
   19.0456   18.3975   22.2275 H   0  0  0  0  0  0  0  0  0  0  0  0
   20.0308   19.5438   23.7832 C   0  0  0  0  0  0  0  0  0  0  0  0
   20.9657   20.1056   23.9168 H   0  0  0  0  0  0  0  0  0  0  0  0
   19.2070   20.2581   23.9130 H   0  0  0  0  0  0  0  0  0  0  0  0
   19.9408   18.4306   24.8552 C   0  0  0  0  0  0  0  0  0  0  0  0
   20.7389   17.6983   24.6739 H   0  0  0  0  0  0  0  0  0  0  0  0
   18.9903   17.8906   24.7512 H   0  0  0  0  0  0  0  0  0  0  0  0
   20.0775   18.9690   26.2957 C   0  0  2  0  0  0  0  0  0  0  0  0
   21.0191   19.5222   26.3673 H   0  0  0  0  0  0  0  0  0  0  0  0
   20.1236   17.8056   27.2990 C   0  0  0  0  0  0  0  0  0  0  0  0
   20.9623   17.1335   27.0784 H   0  0  0  0  0  0  0  0  0  0  0  0
   20.2573   18.1797   28.3216 H   0  0  0  0  0  0  0  0  0  0  0  0
   19.1976   17.2178   27.2682 H   0  0  0  0  0  0  0  0  0  0  0  0
   18.9804   19.9329   26.6566 N   0  3  0  0  0  0  0  0  0  0  0  0
   18.0609   19.4857   26.6100 H   0  0  0  0  0  0  0  0  0  0  0  0
   18.9655   20.7364   26.0227 H   0  0  0  0  0  0  0  0  0  0  0  0
   19.0980   20.2946   27.6073 H   0  0  0  0  0  0  0  0  0  0  0  0
  1  2  1  0  0  0  0
  1  3  1  0  0  0  0
  1  4  1  0  0  0  0
  1  5  1  0  0  0  0
  5  6  1  0  0  0  0
  5  7  1  0  0  0  0
  5  8  1  0  0  0  0
  8  9  1  0  0  0  0
  8 10  1  0  0  0  0
  8 11  1  0  0  0  0
 11 12  1  0  0  0  0
 11 13  1  0  0  0  0
 11 14  1  0  0  0  0
 14 15  1  0  0  0  0
 14 16  1  0  0  0  0
 14 17  1  0  0  0  0
 17 18  1  0  0  0  0
 17 19  1  0  0  0  0
 17 20  1  0  0  0  0
 20 21  1  0  0  0  0
 20 22  1  0  0  0  0
 22 23  1  0  0  0  0
 22 24  1  0  0  0  0
 22 25  1  0  0  0  0
 20 26  1  0  0  0  0
 26 27  1  0  0  0  0
 26 28  1  0  0  0  0
 26 29  1  0  0  0  0
M  END
> <VM2 Rank>
4

> <Conf_Id>
1220

> <Probability>
3.90

> <Sum Probability>
24.40

> <Delta G>
0.582

> <G>
34.284

> <E>
-3.211

> <-TS>
37.495

> <U+W>
-27.356

> <U>
24.589

> <W>
-51.945

> <W(PB)>
-54.480

> <W(SA)>
2.535

> <Valence>
3.670

> <Coulomb>
19.723

> <VdW>
1.196

> <VdW6>
-8.561

> <VdW12>
9.757

> <Bond>
0.223

> <Angle>
1.119

> <Pdih>
2.329

> <Idih>
0.000

> <Tether>
0.000

$$$$
VeraChem MOL file


 29 28  0  0  0  0  0  0  0  0999 V2000     
   20.4857   18.8973   19.3013 C   0  0  0  0  0  0  0  0  0  0  0  0
   20.3542   18.5905   18.2556 H   0  0  0  0  0  0  0  0  0  0  0  0
   21.2783   19.6563   19.3313 H   0  0  0  0  0  0  0  0  0  0  0  0
   20.8287   18.0189   19.8618 H   0  0  0  0  0  0  0  0  0  0  0  0
   19.1617   19.4538   19.8720 C   0  0  0  0  0  0  0  0  0  0  0  0
   18.3942   18.6673   19.8591 H   0  0  0  0  0  0  0  0  0  0  0  0
   18.7971   20.2502   19.2083 H   0  0  0  0  0  0  0  0  0  0  0  0
   19.3010   20.0256   21.3035 C   0  0  0  0  0  0  0  0  0  0  0  0
   20.0548   20.8250   21.3073 H   0  0  0  0  0  0  0  0  0  0  0  0
   18.3491   20.4969   21.5845 H   0  0  0  0  0  0  0  0  0  0  0  0
   19.6677   18.9572   22.3612 C   0  0  0  0  0  0  0  0  0  0  0  0
   20.6510   18.5265   22.1311 H   0  0  0  0  0  0  0  0  0  0  0  0
   18.9405   18.1347   22.3190 H   0  0  0  0  0  0  0  0  0  0  0  0
   19.6950   19.5492   23.7885 C   0  0  0  0  0  0  0  0  0  0  0  0
   20.4226   20.3718   23.8294 H   0  0  0  0  0  0  0  0  0  0  0  0
   18.7116   19.9803   24.0183 H   0  0  0  0  0  0  0  0  0  0  0  0
   20.0645   18.4806   24.8459 C   0  0  0  0  0  0  0  0  0  0  0  0
   21.0241   18.0241   24.5688 H   0  0  0  0  0  0  0  0  0  0  0  0
   19.3190   17.6742   24.8352 H   0  0  0  0  0  0  0  0  0  0  0  0
   20.1827   19.0600   26.2722 C   0  0  2  0  0  0  0  0  0  0  0  0
   20.9120   19.8757   26.2516 H   0  0  0  0  0  0  0  0  0  0  0  0
   20.6892   17.9840   27.2458 C   0  0  0  0  0  0  0  0  0  0  0  0
   19.9896   17.1408   27.3046 H   0  0  0  0  0  0  0  0  0  0  0  0
   21.6647   17.5969   26.9259 H   0  0  0  0  0  0  0  0  0  0  0  0
   20.8104   18.3987   28.2541 H   0  0  0  0  0  0  0  0  0  0  0  0
   18.8884   19.6483   26.7637 N   0  3  0  0  0  0  0  0  0  0  0  0
   18.1503   18.9406   26.8083 H   0  0  0  0  0  0  0  0  0  0  0  0
   18.5611   20.3977   26.1483 H   0  0  0  0  0  0  0  0  0  0  0  0
   18.9905   20.0450   27.7023 H   0  0  0  0  0  0  0  0  0  0  0  0
  1  2  1  0  0  0  0
  1  3  1  0  0  0  0
  1  4  1  0  0  0  0
  1  5  1  0  0  0  0
  5  6  1  0  0  0  0
  5  7  1  0  0  0  0
  5  8  1  0  0  0  0
  8  9  1  0  0  0  0
  8 10  1  0  0  0  0
  8 11  1  0  0  0  0
 11 12  1  0  0  0  0
 11 13  1  0  0  0  0
 11 14  1  0  0  0  0
 14 15  1  0  0  0  0
 14 16  1  0  0  0  0
 14 17  1  0  0  0  0
 17 18  1  0  0  0  0
 17 19  1  0  0  0  0
 17 20  1  0  0  0  0
 20 21  1  0  0  0  0
 20 22  1  0  0  0  0
 22 23  1  0  0  0  0
 22 24  1  0  0  0  0
 22 25  1  0  0  0  0
 20 26  1  0  0  0  0
 26 27  1  0  0  0  0
 26 28  1  0  0  0  0
 26 29  1  0  0  0  0
M  END
> <VM2 Rank>
5

> <Conf_Id>
1303

> <Probability>
3.79

> <Sum Probability>
28.19

> <Delta G>
0.600

> <G>
34.302

> <E>
-3.193

> <-TS>
37.495

> <U+W>
-27.338

> <U>
24.574

> <W>
-51.911

> <W(PB)>
-54.448

> <W(SA)>
2.537

> <Valence>
3.669

> <Coulomb>
19.705

> <VdW>
1.200

> <VdW6>
-8.560

> <VdW12>
9.760

> <Bond>
0.223

> <Angle>
1.119

> <Pdih>
2.327

> <Idih>
0.000

> <Tether>
0.000

$$$$
VeraChem MOL file


 29 28  0  0  0  0  0  0  0  0999 V2000     
   20.6748   18.9869   19.1354 C   0  0  0  0  0  0  0  0  0  0  0  0
   21.2748   18.1130   19.4208 H   0  0  0  0  0  0  0  0  0  0  0  0
   20.3353   18.8396   18.1019 H   0  0  0  0  0  0  0  0  0  0  0  0
   21.3266   19.8701   19.1535 H   0  0  0  0  0  0  0  0  0  0  0  0
   19.4707   19.1668   20.0840 C   0  0  0  0  0  0  0  0  0  0  0  0
   18.8205   18.2831   20.0197 H   0  0  0  0  0  0  0  0  0  0  0  0
   18.8713   20.0263   19.7525 H   0  0  0  0  0  0  0  0  0  0  0  0
   19.9211   19.3771   21.5465 C   0  0  0  0  0  0  0  0  0  0  0  0
   20.5263   18.5168   21.8604 H   0  0  0  0  0  0  0  0  0  0  0  0
   20.5685   20.2628   21.6059 H   0  0  0  0  0  0  0  0  0  0  0  0
   18.7139   19.5530   22.4990 C   0  0  0  0  0  0  0  0  0  0  0  0
   18.0961   18.6444   22.4867 H   0  0  0  0  0  0  0  0  0  0  0  0
   18.0767   20.3638   22.1197 H   0  0  0  0  0  0  0  0  0  0  0  0
   19.1148   19.8884   23.9567 C   0  0  0  0  0  0  0  0  0  0  0  0
   19.7303   20.7986   23.9681 H   0  0  0  0  0  0  0  0  0  0  0  0
   18.1991   20.1275   24.5132 H   0  0  0  0  0  0  0  0  0  0  0  0
   19.8699   18.7381   24.6715 C   0  0  0  0  0  0  0  0  0  0  0  0
   20.7968   18.5193   24.1273 H   0  0  0  0  0  0  0  0  0  0  0  0
   19.2645   17.8224   24.6438 H   0  0  0  0  0  0  0  0  0  0  0  0
   20.2342   19.0749   26.1339 C   0  0  2  0  0  0  0  0  0  0  0  0
   20.8048   20.0087   26.1390 H   0  0  0  0  0  0  0  0  0  0  0  0
   21.1157   17.9676   26.7334 C   0  0  0  0  0  0  0  0  0  0  0  0
   20.5876   17.0060   26.7517 H   0  0  0  0  0  0  0  0  0  0  0  0
   22.0353   17.8413   26.1484 H   0  0  0  0  0  0  0  0  0  0  0  0
   21.4073   18.2171   27.7611 H   0  0  0  0  0  0  0  0  0  0  0  0
   19.0210   19.3033   26.9936 N   0  3  0  0  0  0  0  0  0  0  0  0
   19.2829   19.5422   27.9543 H   0  0  0  0  0  0  0  0  0  0  0  0
   18.4309   18.4680   27.0353 H   0  0  0  0  0  0  0  0  0  0  0  0
   18.4462   20.0698   26.6335 H   0  0  0  0  0  0  0  0  0  0  0  0
  1  2  1  0  0  0  0
  1  3  1  0  0  0  0
  1  4  1  0  0  0  0
  1  5  1  0  0  0  0
  5  6  1  0  0  0  0
  5  7  1  0  0  0  0
  5  8  1  0  0  0  0
  8  9  1  0  0  0  0
  8 10  1  0  0  0  0
  8 11  1  0  0  0  0
 11 12  1  0  0  0  0
 11 13  1  0  0  0  0
 11 14  1  0  0  0  0
 14 15  1  0  0  0  0
 14 16  1  0  0  0  0
 14 17  1  0  0  0  0
 17 18  1  0  0  0  0
 17 19  1  0  0  0  0
 17 20  1  0  0  0  0
 20 21  1  0  0  0  0
 20 22  1  0  0  0  0
 22 23  1  0  0  0  0
 22 24  1  0  0  0  0
 22 25  1  0  0  0  0
 20 26  1  0  0  0  0
 26 27  1  0  0  0  0
 26 28  1  0  0  0  0
 26 29  1  0  0  0  0
M  END
> <VM2 Rank>
6

> <Conf_Id>
1308

> <Probability>
3.48

> <Sum Probability>
31.67

> <Delta G>
0.650

> <G>
34.352

> <E>
-3.103

> <-TS>
37.455

> <U+W>
-27.248

> <U>
24.710

> <W>
-51.958

> <W(PB)>
-54.513

> <W(SA)>
2.555

> <Valence>
3.735

> <Coulomb>
19.760

> <VdW>
1.216

> <VdW6>
-8.624

> <VdW12>
9.840

> <Bond>
0.236

> <Angle>
1.168

> <Pdih>
2.330

> <Idih>
0.000

> <Tether>
0.000

$$$$
VeraChem MOL file


 29 28  0  0  0  0  0  0  0  0999 V2000     
   19.7044   20.0255   19.0213 C   0  0  0  0  0  0  0  0  0  0  0  0
   20.4610   20.3917   18.3152 H   0  0  0  0  0  0  0  0  0  0  0  0
   19.2423   19.1300   18.5858 H   0  0  0  0  0  0  0  0  0  0  0  0
   18.9302   20.7980   19.1164 H   0  0  0  0  0  0  0  0  0  0  0  0
   20.3439   19.7098   20.3899 C   0  0  0  0  0  0  0  0  0  0  0  0
   20.8267   20.6150   20.7842 H   0  0  0  0  0  0  0  0  0  0  0  0
   21.1363   18.9597   20.2578 H   0  0  0  0  0  0  0  0  0  0  0  0
   19.2995   19.1920   21.4033 C   0  0  0  0  0  0  0  0  0  0  0  0
   18.5086   19.9441   21.5305 H   0  0  0  0  0  0  0  0  0  0  0  0
   18.8180   18.2889   21.0033 H   0  0  0  0  0  0  0  0  0  0  0  0
   19.9363   18.8743   22.7749 C   0  0  0  0  0  0  0  0  0  0  0  0
   20.4224   19.7790   23.1635 H   0  0  0  0  0  0  0  0  0  0  0  0
   20.7243   18.1193   22.6462 H   0  0  0  0  0  0  0  0  0  0  0  0
   18.8872   18.3578   23.7884 C   0  0  0  0  0  0  0  0  0  0  0  0
   18.1091   19.1180   23.9389 H   0  0  0  0  0  0  0  0  0  0  0  0
   18.3773   17.4826   23.3625 H   0  0  0  0  0  0  0  0  0  0  0  0
   19.5033   17.9514   25.1516 C   0  0  0  0  0  0  0  0  0  0  0  0
   20.2037   17.1214   24.9890 H   0  0  0  0  0  0  0  0  0  0  0  0
   18.7090   17.5593   25.8006 H   0  0  0  0  0  0  0  0  0  0  0  0
   20.2407   19.0965   25.8814 C   0  0  2  0  0  0  0  0  0  0  0  0
   21.0408   19.4616   25.2308 H   0  0  0  0  0  0  0  0  0  0  0  0
   20.8786   18.5795   27.1805 C   0  0  0  0  0  0  0  0  0  0  0  0
   21.4368   19.3786   27.6837 H   0  0  0  0  0  0  0  0  0  0  0  0
   20.1166   18.2048   27.8754 H   0  0  0  0  0  0  0  0  0  0  0  0
   21.5813   17.7632   26.9713 H   0  0  0  0  0  0  0  0  0  0  0  0
   19.3421   20.2693   26.1627 N   0  3  0  0  0  0  0  0  0  0  0  0
   18.5656   20.0051   26.7749 H   0  0  0  0  0  0  0  0  0  0  0  0
   18.9410   20.6448   25.2990 H   0  0  0  0  0  0  0  0  0  0  0  0
   19.8510   21.0297   26.6225 H   0  0  0  0  0  0  0  0  0  0  0  0
  1  2  1  0  0  0  0
  1  3  1  0  0  0  0
  1  4  1  0  0  0  0
  1  5  1  0  0  0  0
  5  6  1  0  0  0  0
  5  7  1  0  0  0  0
  5  8  1  0  0  0  0
  8  9  1  0  0  0  0
  8 10  1  0  0  0  0
  8 11  1  0  0  0  0
 11 12  1  0  0  0  0
 11 13  1  0  0  0  0
 11 14  1  0  0  0  0
 14 15  1  0  0  0  0
 14 16  1  0  0  0  0
 14 17  1  0  0  0  0
 17 18  1  0  0  0  0
 17 19  1  0  0  0  0
 17 20  1  0  0  0  0
 20 21  1  0  0  0  0
 20 22  1  0  0  0  0
 22 23  1  0  0  0  0
 22 24  1  0  0  0  0
 22 25  1  0  0  0  0
 20 26  1  0  0  0  0
 26 27  1  0  0  0  0
 26 28  1  0  0  0  0
 26 29  1  0  0  0  0
M  END
> <VM2 Rank>
7

> <Conf_Id>
694

> <Probability>
3.42

> <Sum Probability>
35.08

> <Delta G>
0.661

> <G>
34.363

> <E>
-3.215

> <-TS>
37.578

> <U+W>
-27.360

> <U>
24.672

> <W>
-52.032

> <W(PB)>
-54.582

> <W(SA)>
2.550

> <Valence>
3.465

> <Coulomb>
20.280

> <VdW>
0.927

> <VdW6>
-8.843

> <VdW12>
9.770

> <Bond>
0.217

> <Angle>
1.094

> <Pdih>
2.153

> <Idih>
0.000

> <Tether>
0.000

$$$$
VeraChem MOL file


 29 28  0  0  0  0  0  0  0  0999 V2000     
   18.6215   18.9173   19.2919 C   0  0  0  0  0  0  0  0  0  0  0  0
   18.8571   18.8317   18.2232 H   0  0  0  0  0  0  0  0  0  0  0  0
   18.1663   17.9714   19.6135 H   0  0  0  0  0  0  0  0  0  0  0  0
   17.8749   19.7136   19.4098 H   0  0  0  0  0  0  0  0  0  0  0  0
   19.8948   19.2258   20.1076 C   0  0  0  0  0  0  0  0  0  0  0  0
   20.3457   20.1582   19.7401 H   0  0  0  0  0  0  0  0  0  0  0  0
   20.6346   18.4296   19.9440 H   0  0  0  0  0  0  0  0  0  0  0  0
   19.5905   19.3522   21.6168 C   0  0  0  0  0  0  0  0  0  0  0  0
   18.8522   20.1503   21.7754 H   0  0  0  0  0  0  0  0  0  0  0  0
   19.1327   18.4185   21.9688 H   0  0  0  0  0  0  0  0  0  0  0  0
   20.8674   19.6574   22.4361 C   0  0  0  0  0  0  0  0  0  0  0  0
   21.3528   20.5520   22.0221 H   0  0  0  0  0  0  0  0  0  0  0  0
   21.5871   18.8352   22.3211 H   0  0  0  0  0  0  0  0  0  0  0  0
   20.5929   19.9005   23.9404 C   0  0  0  0  0  0  0  0  0  0  0  0
   21.5314   20.2130   24.4191 H   0  0  0  0  0  0  0  0  0  0  0  0
   19.8943   20.7410   24.0481 H   0  0  0  0  0  0  0  0  0  0  0  0
   20.0437   18.6516   24.6762 C   0  0  0  0  0  0  0  0  0  0  0  0
   20.7002   17.7971   24.4649 H   0  0  0  0  0  0  0  0  0  0  0  0
   19.0507   18.3900   24.2894 H   0  0  0  0  0  0  0  0  0  0  0  0
   19.9584   18.8476   26.2052 C   0  0  2  0  0  0  0  0  0  0  0  0
   20.9520   19.1232   26.5717 H   0  0  0  0  0  0  0  0  0  0  0  0
   19.5376   17.5374   26.8898 C   0  0  0  0  0  0  0  0  0  0  0  0
   18.5421   17.2175   26.5573 H   0  0  0  0  0  0  0  0  0  0  0  0
   20.2485   16.7332   26.6628 H   0  0  0  0  0  0  0  0  0  0  0  0
   19.5110   17.6600   27.9796 H   0  0  0  0  0  0  0  0  0  0  0  0
   19.0293   19.9663   26.5899 N   0  3  0  0  0  0  0  0  0  0  0  0
   18.0724   19.7803   26.2780 H   0  0  0  0  0  0  0  0  0  0  0  0
   19.3225   20.8546   26.1742 H   0  0  0  0  0  0  0  0  0  0  0  0
   19.0015   20.0972   27.6051 H   0  0  0  0  0  0  0  0  0  0  0  0
  1  2  1  0  0  0  0
  1  3  1  0  0  0  0
  1  4  1  0  0  0  0
  1  5  1  0  0  0  0
  5  6  1  0  0  0  0
  5  7  1  0  0  0  0
  5  8  1  0  0  0  0
  8  9  1  0  0  0  0
  8 10  1  0  0  0  0
  8 11  1  0  0  0  0
 11 12  1  0  0  0  0
 11 13  1  0  0  0  0
 11 14  1  0  0  0  0
 14 15  1  0  0  0  0
 14 16  1  0  0  0  0
 14 17  1  0  0  0  0
 17 18  1  0  0  0  0
 17 19  1  0  0  0  0
 17 20  1  0  0  0  0
 20 21  1  0  0  0  0
 20 22  1  0  0  0  0
 22 23  1  0  0  0  0
 22 24  1  0  0  0  0
 22 25  1  0  0  0  0
 20 26  1  0  0  0  0
 26 27  1  0  0  0  0
 26 28  1  0  0  0  0
 26 29  1  0  0  0  0
M  END
> <VM2 Rank>
8

> <Conf_Id>
985

> <Probability>
3.41

> <Sum Probability>
38.49

> <Delta G>
0.663

> <G>
34.365

> <E>
-3.137

> <-TS>
37.502

> <U+W>
-27.282

> <U>
24.741

> <W>
-52.023

> <W(PB)>
-54.548

> <W(SA)>
2.525

> <Valence>
3.693

> <Coulomb>
19.919

> <VdW>
1.129

> <VdW6>
-8.666

> <VdW12>
9.794

> <Bond>
0.229

> <Angle>
1.104

> <Pdih>
2.361

> <Idih>
0.000

> <Tether>
0.000

$$$$
