@<TRIPOS>MOLECULE
guest-s10_vm2.mol2 : vm2 ligand conformer 1
          20          19           1
SMALL
USER_CHARGES
 
@<TRIPOS>ATOM
       1    N1      20.391203   20.173136   24.127944 N.4        1 MOL1        -0.5937
       2    H1      20.006962   20.937992   23.567642 H          1 MOL1         0.3684
       3    H2      21.389534   20.106959   23.914636 H          1 MOL1         0.3684
       4    H3      20.306587   20.444601   25.111205 H          1 MOL1         0.3684
       5    C1      19.681082   18.875236   23.851804 C.3        1 MOL1         0.1270
       6    H4      18.627124   19.033878   24.100588 H          1 MOL1         0.0960
       7    C2      20.226141   17.758229   24.756889 C.3        1 MOL1        -0.2382
       8    H5      20.131921   18.034286   25.814329 H          1 MOL1         0.1009
       9    H6      21.284814   17.559066   24.548705 H          1 MOL1         0.1009
      10    H7      19.667286   16.826266   24.606012 H          1 MOL1         0.1009
      11    C3      19.768773   18.454700   22.368024 C.3        1 MOL1        -0.1392
      12    H8      20.820323   18.311644   22.085725 H          1 MOL1         0.0998
      13    H9      19.276986   17.480312   22.246440 H          1 MOL1         0.0998
      14    C4      19.103647   19.471995   21.409778 C.3        1 MOL1        -0.1302
      15    H10     19.614889   20.442183   21.471371 H          1 MOL1         0.0998
      16    H11     18.061348   19.641418   21.714984 H          1 MOL1         0.0998
      17    C5      19.134153   18.980704   19.946561 C.3        1 MOL1        -0.2317
      18    H12     18.595782   18.030241   19.836975 H          1 MOL1         0.1009
      19    H13     20.165593   18.830947   19.601652 H          1 MOL1         0.1009
      20    H14     18.660108   19.714093   19.281350 H          1 MOL1         0.1009
@<TRIPOS>BOND
    1     1     2    1
    2     1     3    1
    3     1     4    1
    4     1     5    1
    5     5     6    1
    6     5     7    1
    7     7     8    1
    8     7     9    1
    9     7    10    1
   10     5    11    1
   11    11    12    1
   12    11    13    1
   13    11    14    1
   14    14    15    1
   15    14    16    1
   16    14    17    1
   17    17    18    1
   18    17    19    1
   19    17    20    1
@<TRIPOS>SUBSTRUCTURE
       1 MOL1            1 RESIDUE      1      MOL     
@<SCITEGIC>MOL_PROPERTY
VM2 Rank
SciTegic.value.IntegerValue
1

@<SCITEGIC>MOL_PROPERTY
Conf_Id
SciTegic.value.IntegerValue
154

@<SCITEGIC>MOL_PROPERTY
Probability
SciTegic.value.DoubleValue
40.79

@<SCITEGIC>MOL_PROPERTY
Sum Probability
SciTegic.value.DoubleValue
40.79

@<SCITEGIC>MOL_PROPERTY
Delta G
SciTegic.value.DoubleValue
0.000

@<SCITEGIC>MOL_PROPERTY
G
SciTegic.value.DoubleValue
2.706

@<SCITEGIC>MOL_PROPERTY
E
SciTegic.value.DoubleValue
-20.181

@<SCITEGIC>MOL_PROPERTY
-TS
SciTegic.value.DoubleValue
22.887

@<SCITEGIC>MOL_PROPERTY
U+W
SciTegic.value.DoubleValue
-36.277

@<SCITEGIC>MOL_PROPERTY
U
SciTegic.value.DoubleValue
22.080

@<SCITEGIC>MOL_PROPERTY
W
SciTegic.value.DoubleValue
-58.356

@<SCITEGIC>MOL_PROPERTY
W(PB)
SciTegic.value.DoubleValue
-60.289

@<SCITEGIC>MOL_PROPERTY
W(SA)
SciTegic.value.DoubleValue
1.932

@<SCITEGIC>MOL_PROPERTY
Valence
SciTegic.value.DoubleValue
1.884

@<SCITEGIC>MOL_PROPERTY
Coulomb
SciTegic.value.DoubleValue
19.559

@<SCITEGIC>MOL_PROPERTY
VdW
SciTegic.value.DoubleValue
0.637

@<SCITEGIC>MOL_PROPERTY
VdW6
SciTegic.value.DoubleValue
-4.482

@<SCITEGIC>MOL_PROPERTY
VdW12
SciTegic.value.DoubleValue
5.119

@<SCITEGIC>MOL_PROPERTY
Bond
SciTegic.value.DoubleValue
0.136

@<SCITEGIC>MOL_PROPERTY
Angle
SciTegic.value.DoubleValue
0.867

@<SCITEGIC>MOL_PROPERTY
Pdih
SciTegic.value.DoubleValue
0.882

@<SCITEGIC>MOL_PROPERTY
Idih
SciTegic.value.DoubleValue
0.000

@<SCITEGIC>MOL_PROPERTY
Tether
SciTegic.value.DoubleValue
0.000

