@<TRIPOS>MOLECULE
guest-s13_vm2.mol2 : vm2 ligand conformer 1
          26          25           1
SMALL
USER_CHARGES
 
@<TRIPOS>ATOM
       1    C1      20.241435   18.656177   18.805977 C.3        1 MOL1        -0.2398
       2    H1      19.604248   19.496788   18.501659 H          1 MOL1         0.0972
       3    H2      21.055731   18.568760   18.075000 H          1 MOL1         0.0972
       4    H3      19.642765   17.737354   18.754996 H          1 MOL1         0.0972
       5    C2      20.805059   18.873015   20.226345 C.3        1 MOL1        -0.1383
       6    H4      21.426119   19.779709   20.237526 H          1 MOL1         0.0961
       7    H5      21.464459   18.033811   20.488734 H          1 MOL1         0.0961
       8    C3      19.678466   18.999408   21.275706 C.3        1 MOL1        -0.1407
       9    H6      19.020548   19.837409   21.006703 H          1 MOL1         0.0961
      10    H7      19.059450   18.091632   21.259491 H          1 MOL1         0.0961
      11    C4      20.238914   19.217397   22.699420 C.3        1 MOL1        -0.1407
      12    H8      20.854854   20.127395   22.714975 H          1 MOL1         0.0961
      13    H9      20.900047   18.379469   22.957587 H          1 MOL1         0.0961
      14    C5      19.107589   19.342280   23.748810 C.3        1 MOL1        -0.1472
      15    H10     18.427912   20.149037   23.443371 H          1 MOL1         0.0961
      16    H11     18.511899   18.419835   23.764565 H          1 MOL1         0.0961
      17    C6      19.633140   19.645572   25.168773 C.3        1 MOL1         0.1190
      18    H12     20.241878   20.553862   25.122252 H          1 MOL1         0.0923
      19    C7      18.460542   19.899582   26.129608 C.3        1 MOL1        -0.2463
      20    H13     17.844663   20.737681   25.780300 H          1 MOL1         0.0972
      21    H14     18.827572   20.152016   27.132077 H          1 MOL1         0.0972
      22    H15     17.817260   19.014703   26.213806 H          1 MOL1         0.0972
      23    N1      20.522855   18.554569   25.699361 N.4        1 MOL1        -0.5974
      24    H16     20.021677   17.665086   25.769650 H          1 MOL1         0.3625
      25    H17     21.333696   18.404901   25.093119 H          1 MOL1         0.3625
      26    H18     20.876880   18.781406   26.632976 H          1 MOL1         0.3625
@<TRIPOS>BOND
    1     1     2    1
    2     1     3    1
    3     1     4    1
    4     1     5    1
    5     5     6    1
    6     5     7    1
    7     5     8    1
    8     8     9    1
    9     8    10    1
   10     8    11    1
   11    11    12    1
   12    11    13    1
   13    11    14    1
   14    14    15    1
   15    14    16    1
   16    14    17    1
   17    17    18    1
   18    17    19    1
   19    19    20    1
   20    19    21    1
   21    19    22    1
   22    17    23    1
   23    23    24    1
   24    23    25    1
   25    23    26    1
@<TRIPOS>SUBSTRUCTURE
       1 MOL1            1 RESIDUE      1      MOL     
@<SCITEGIC>MOL_PROPERTY
VM2 Rank
SciTegic.value.IntegerValue
1

@<SCITEGIC>MOL_PROPERTY
Conf_Id
SciTegic.value.IntegerValue
613

@<SCITEGIC>MOL_PROPERTY
Probability
SciTegic.value.DoubleValue
16.98

@<SCITEGIC>MOL_PROPERTY
Sum Probability
SciTegic.value.DoubleValue
16.98

@<SCITEGIC>MOL_PROPERTY
Delta G
SciTegic.value.DoubleValue
0.000

@<SCITEGIC>MOL_PROPERTY
G
SciTegic.value.DoubleValue
23.712

@<SCITEGIC>MOL_PROPERTY
E
SciTegic.value.DoubleValue
-8.840

@<SCITEGIC>MOL_PROPERTY
-TS
SciTegic.value.DoubleValue
32.553

@<SCITEGIC>MOL_PROPERTY
U+W
SciTegic.value.DoubleValue
-30.302

@<SCITEGIC>MOL_PROPERTY
U
SciTegic.value.DoubleValue
23.517

@<SCITEGIC>MOL_PROPERTY
W
SciTegic.value.DoubleValue
-53.817

@<SCITEGIC>MOL_PROPERTY
W(PB)
SciTegic.value.DoubleValue
-56.163

@<SCITEGIC>MOL_PROPERTY
W(SA)
SciTegic.value.DoubleValue
2.346

@<SCITEGIC>MOL_PROPERTY
Valence
SciTegic.value.DoubleValue
2.737

@<SCITEGIC>MOL_PROPERTY
Coulomb
SciTegic.value.DoubleValue
19.862

@<SCITEGIC>MOL_PROPERTY
VdW
SciTegic.value.DoubleValue
0.919

@<SCITEGIC>MOL_PROPERTY
VdW6
SciTegic.value.DoubleValue
-6.793

@<SCITEGIC>MOL_PROPERTY
VdW12
SciTegic.value.DoubleValue
7.712

@<SCITEGIC>MOL_PROPERTY
Bond
SciTegic.value.DoubleValue
0.171

@<SCITEGIC>MOL_PROPERTY
Angle
SciTegic.value.DoubleValue
0.873

@<SCITEGIC>MOL_PROPERTY
Pdih
SciTegic.value.DoubleValue
1.693

@<SCITEGIC>MOL_PROPERTY
Idih
SciTegic.value.DoubleValue
0.000

@<SCITEGIC>MOL_PROPERTY
Tether
SciTegic.value.DoubleValue
0.000

