@<TRIPOS>MOLECULE
guest-s19_vm2.mol2 : vm2 ligand conformer 1
          17          16           1
SMALL
USER_CHARGES
 
@<TRIPOS>ATOM
       1    C1      19.772348   19.078651   25.279146 C.2        1 MOL1         0.6173
       2    O1      19.318694   19.919969   26.030203 O.co2      1 MOL1        -0.6755
       3    O2      20.446723   18.142625   25.665754 O.co2      1 MOL1        -0.6755
       4    C2      19.475116   19.220414   23.828035 C.2        1 MOL1        -0.1504
       5    H1      18.867511   20.078451   23.549654 H          1 MOL1         0.0814
       6    C3      19.914966   18.360838   22.881067 C.2        1 MOL1        -0.1394
       7    H2      20.526343   17.499215   23.148643 H          1 MOL1         0.0817
       8    C4      19.609947   18.513463   21.406987 C.3        1 MOL1        -0.1849
       9    H3      18.579975   18.870729   21.271614 H          1 MOL1         0.0736
      10    H4      19.667512   17.532645   20.915998 H          1 MOL1         0.0736
      11    C5      20.592802   19.489072   20.727867 C.3        1 MOL1        -0.1866
      12    H5      20.533443   20.472158   21.215286 H          1 MOL1         0.0738
      13    H6      21.622053   19.128521   20.862819 H          1 MOL1         0.0738
      14    C6      20.294404   19.642968   19.222941 C.3        1 MOL1        -0.2879
      15    H7      19.280583   20.032152   19.061268 H          1 MOL1         0.0750
      16    H8      21.003175   20.340172   18.757451 H          1 MOL1         0.0750
      17    H9      20.378189   18.678503   18.705042 H          1 MOL1         0.0750
@<TRIPOS>BOND
    1     1     2    1
    2     1     3    2
    3     1     4    1
    4     4     5    1
    5     4     6    2
    6     6     7    1
    7     6     8    1
    8     8     9    1
    9     8    10    1
   10     8    11    1
   11    11    12    1
   12    11    13    1
   13    11    14    1
   14    14    15    1
   15    14    16    1
   16    14    17    1
@<TRIPOS>SUBSTRUCTURE
       1 MOL1            1 RESIDUE      1      MOL     
@<SCITEGIC>MOL_PROPERTY
VM2 Rank
SciTegic.value.IntegerValue
1

@<SCITEGIC>MOL_PROPERTY
Conf_Id
SciTegic.value.IntegerValue
146

@<SCITEGIC>MOL_PROPERTY
Probability
SciTegic.value.DoubleValue
31.51

@<SCITEGIC>MOL_PROPERTY
Sum Probability
SciTegic.value.DoubleValue
31.51

@<SCITEGIC>MOL_PROPERTY
Delta G
SciTegic.value.DoubleValue
0.000

@<SCITEGIC>MOL_PROPERTY
G
SciTegic.value.DoubleValue
-29.180

@<SCITEGIC>MOL_PROPERTY
E
SciTegic.value.DoubleValue
-40.000

@<SCITEGIC>MOL_PROPERTY
-TS
SciTegic.value.DoubleValue
10.820

@<SCITEGIC>MOL_PROPERTY
U+W
SciTegic.value.DoubleValue
-53.414

@<SCITEGIC>MOL_PROPERTY
U
SciTegic.value.DoubleValue
9.048

@<SCITEGIC>MOL_PROPERTY
W
SciTegic.value.DoubleValue
-62.462

@<SCITEGIC>MOL_PROPERTY
W(PB)
SciTegic.value.DoubleValue
-64.544

@<SCITEGIC>MOL_PROPERTY
W(SA)
SciTegic.value.DoubleValue
2.082

@<SCITEGIC>MOL_PROPERTY
Valence
SciTegic.value.DoubleValue
2.652

@<SCITEGIC>MOL_PROPERTY
Coulomb
SciTegic.value.DoubleValue
5.578

@<SCITEGIC>MOL_PROPERTY
VdW
SciTegic.value.DoubleValue
0.818

@<SCITEGIC>MOL_PROPERTY
VdW6
SciTegic.value.DoubleValue
-4.534

@<SCITEGIC>MOL_PROPERTY
VdW12
SciTegic.value.DoubleValue
5.352

@<SCITEGIC>MOL_PROPERTY
Bond
SciTegic.value.DoubleValue
0.063

@<SCITEGIC>MOL_PROPERTY
Angle
SciTegic.value.DoubleValue
2.579

@<SCITEGIC>MOL_PROPERTY
Pdih
SciTegic.value.DoubleValue
0.010

@<SCITEGIC>MOL_PROPERTY
Idih
SciTegic.value.DoubleValue
0.000

@<SCITEGIC>MOL_PROPERTY
Tether
SciTegic.value.DoubleValue
0.000

