VeraChem MOL file


 20 19  0  0  0  0  0  0  0  0999 V2000     
   19.7357   18.9392   25.6479 N   0  3  0  0  0  0  0  0  0  0  0  0
   18.8387   19.4316   25.7040 H   0  0  0  0  0  0  0  0  0  0  0  0
   19.5330   17.9363   25.7060 H   0  0  0  0  0  0  0  0  0  0  0  0
   20.2631   19.1852   26.4922 H   0  0  0  0  0  0  0  0  0  0  0  0
   20.4973   19.2911   24.3858 C   0  0  0  0  0  0  0  0  0  0  0  0
   21.4511   18.7569   24.4071 H   0  0  0  0  0  0  0  0  0  0  0  0
   20.7046   20.3645   24.4050 H   0  0  0  0  0  0  0  0  0  0  0  0
   19.7326   18.9344   23.0985 C   0  0  0  0  0  0  0  0  0  0  0  0
   19.5127   17.8584   23.0910 H   0  0  0  0  0  0  0  0  0  0  0  0
   18.7686   19.4604   23.0890 H   0  0  0  0  0  0  0  0  0  0  0  0
   20.5421   19.3089   21.8371 C   0  0  0  0  0  0  0  0  0  0  0  0
   21.5081   18.7850   21.8525 H   0  0  0  0  0  0  0  0  0  0  0  0
   20.7648   20.3851   21.8505 H   0  0  0  0  0  0  0  0  0  0  0  0
   19.7839   18.9551   20.5381 C   0  0  0  0  0  0  0  0  0  0  0  0
   19.5612   17.8790   20.5195 H   0  0  0  0  0  0  0  0  0  0  0  0
   18.8177   19.4787   20.5177 H   0  0  0  0  0  0  0  0  0  0  0  0
   20.5964   19.3312   19.2806 C   0  0  0  0  0  0  0  0  0  0  0  0
   21.5547   18.7964   19.2548 H   0  0  0  0  0  0  0  0  0  0  0  0
   20.0420   19.0726   18.3691 H   0  0  0  0  0  0  0  0  0  0  0  0
   20.8054   20.4086   19.2530 H   0  0  0  0  0  0  0  0  0  0  0  0
  1  2  1  0  0  0  0
  1  3  1  0  0  0  0
  1  4  1  0  0  0  0
  1  5  1  0  0  0  0
  5  6  1  0  0  0  0
  5  7  1  0  0  0  0
  5  8  1  0  0  0  0
  8  9  1  0  0  0  0
  8 10  1  0  0  0  0
  8 11  1  0  0  0  0
 11 12  1  0  0  0  0
 11 13  1  0  0  0  0
 11 14  1  0  0  0  0
 14 15  1  0  0  0  0
 14 16  1  0  0  0  0
 14 17  1  0  0  0  0
 17 18  1  0  0  0  0
 17 19  1  0  0  0  0
 17 20  1  0  0  0  0
M  END
> <VM2 Rank>
1

> <Conf_Id>
371

> <Probability>
19.94

> <Sum Probability>
19.94

> <Delta G>
0.000

> <G>
27.004

> <E>
4.315

> <-TS>
22.689

> <U+W>
-11.781

> <U>
45.772

> <W>
-57.552

> <W(PB)>
-59.512

> <W(SA)>
1.960

> <Valence>
1.299

> <Coulomb>
44.177

> <VdW>
0.297

> <VdW6>
-3.490

> <VdW12>
3.786

> <Bond>
0.096

> <Angle>
0.381

> <Pdih>
0.822

> <Idih>
0.000

> <Tether>
0.000

$$$$
VeraChem MOL file


 20 19  0  0  0  0  0  0  0  0999 V2000     
   20.6069   18.3920   25.0324 N   0  3  0  0  0  0  0  0  0  0  0  0
   20.9677   18.5359   25.9814 H   0  0  0  0  0  0  0  0  0  0  0  0
   19.9890   17.5753   25.0695 H   0  0  0  0  0  0  0  0  0  0  0  0
   21.4068   18.1400   24.4443 H   0  0  0  0  0  0  0  0  0  0  0  0
   19.8879   19.6214   24.5113 C   0  0  0  0  0  0  0  0  0  0  0  0
   20.5933   20.4567   24.5202 H   0  0  0  0  0  0  0  0  0  0  0  0
   19.0785   19.8525   25.2092 H   0  0  0  0  0  0  0  0  0  0  0  0
   19.3062   19.4490   23.0944 C   0  0  0  0  0  0  0  0  0  0  0  0
   18.6022   18.6062   23.0873 H   0  0  0  0  0  0  0  0  0  0  0  0
   18.7228   20.3460   22.8474 H   0  0  0  0  0  0  0  0  0  0  0  0
   20.3992   19.2368   22.0200 C   0  0  0  0  0  0  0  0  0  0  0  0
   20.9648   18.3209   22.2377 H   0  0  0  0  0  0  0  0  0  0  0  0
   21.1153   20.0696   22.0565 H   0  0  0  0  0  0  0  0  0  0  0  0
   19.7980   19.1368   20.6002 C   0  0  0  0  0  0  0  0  0  0  0  0
   19.0802   18.3055   20.5588 H   0  0  0  0  0  0  0  0  0  0  0  0
   19.2354   20.0524   20.3695 H   0  0  0  0  0  0  0  0  0  0  0  0
   20.8898   18.9241   19.5298 C   0  0  0  0  0  0  0  0  0  0  0  0
   21.4475   17.9965   19.7131 H   0  0  0  0  0  0  0  0  0  0  0  0
   20.4436   18.8562   18.5291 H   0  0  0  0  0  0  0  0  0  0  0  0
   21.6046   19.7572   19.5237 H   0  0  0  0  0  0  0  0  0  0  0  0
  1  2  1  0  0  0  0
  1  3  1  0  0  0  0
  1  4  1  0  0  0  0
  1  5  1  0  0  0  0
  5  6  1  0  0  0  0
  5  7  1  0  0  0  0
  5  8  1  0  0  0  0
  8  9  1  0  0  0  0
  8 10  1  0  0  0  0
  8 11  1  0  0  0  0
 11 12  1  0  0  0  0
 11 13  1  0  0  0  0
 11 14  1  0  0  0  0
 14 15  1  0  0  0  0
 14 16  1  0  0  0  0
 14 17  1  0  0  0  0
 17 18  1  0  0  0  0
 17 19  1  0  0  0  0
 17 20  1  0  0  0  0
M  END
> <VM2 Rank>
2

> <Conf_Id>
117

> <Probability>
12.00

> <Sum Probability>
31.94

> <Delta G>
0.303

> <G>
27.307

> <E>
4.518

> <-TS>
22.789

> <U+W>
-11.579

> <U>
46.423

> <W>
-58.002

> <W(PB)>
-59.940

> <W(SA)>
1.939

> <Valence>
1.410

> <Coulomb>
44.613

> <VdW>
0.400

> <VdW6>
-4.001

> <VdW12>
4.401

> <Bond>
0.117

> <Angle>
0.430

> <Pdih>
0.863

> <Idih>
0.000

> <Tether>
0.000

$$$$
VeraChem MOL file


 20 19  0  0  0  0  0  0  0  0999 V2000     
   19.8798   19.9563   25.0305 N   0  3  0  0  0  0  0  0  0  0  0  0
   18.8570   20.0103   25.0664 H   0  0  0  0  0  0  0  0  0  0  0  0
   20.2214   20.1412   25.9794 H   0  0  0  0  0  0  0  0  0  0  0  0
   20.2033   20.7290   24.4411 H   0  0  0  0  0  0  0  0  0  0  0  0
   20.3566   18.6131   24.5125 C   0  0  0  0  0  0  0  0  0  0  0  0
   20.0109   17.8467   25.2116 H   0  0  0  0  0  0  0  0  0  0  0  0
   21.4499   18.6139   24.5225 H   0  0  0  0  0  0  0  0  0  0  0  0
   19.8512   18.2766   23.0959 C   0  0  0  0  0  0  0  0  0  0  0  0
   20.1612   17.2519   22.8512 H   0  0  0  0  0  0  0  0  0  0  0  0
   18.7531   18.2817   23.0877 H   0  0  0  0  0  0  0  0  0  0  0  0
   20.3946   19.2469   22.0200 C   0  0  0  0  0  0  0  0  0  0  0  0
   21.4928   19.2575   22.0575 H   0  0  0  0  0  0  0  0  0  0  0  0
   20.0587   20.2700   22.2353 H   0  0  0  0  0  0  0  0  0  0  0  0
   19.9318   18.8488   20.6005 C   0  0  0  0  0  0  0  0  0  0  0  0
   20.2693   17.8280   20.3722 H   0  0  0  0  0  0  0  0  0  0  0  0
   18.8336   18.8359   20.5582 H   0  0  0  0  0  0  0  0  0  0  0  0
   20.4740   19.8184   19.5287 C   0  0  0  0  0  0  0  0  0  0  0  0
   21.5718   19.8277   19.5235 H   0  0  0  0  0  0  0  0  0  0  0  0
   20.1354   19.5191   18.5283 H   0  0  0  0  0  0  0  0  0  0  0  0
   20.1244   20.8432   19.7097 H   0  0  0  0  0  0  0  0  0  0  0  0
  1  2  1  0  0  0  0
  1  3  1  0  0  0  0
  1  4  1  0  0  0  0
  1  5  1  0  0  0  0
  5  6  1  0  0  0  0
  5  7  1  0  0  0  0
  5  8  1  0  0  0  0
  8  9  1  0  0  0  0
  8 10  1  0  0  0  0
  8 11  1  0  0  0  0
 11 12  1  0  0  0  0
 11 13  1  0  0  0  0
 11 14  1  0  0  0  0
 14 15  1  0  0  0  0
 14 16  1  0  0  0  0
 14 17  1  0  0  0  0
 17 18  1  0  0  0  0
 17 19  1  0  0  0  0
 17 20  1  0  0  0  0
M  END
> <VM2 Rank>
3

> <Conf_Id>
430

> <Probability>
11.21

> <Sum Probability>
43.15

> <Delta G>
0.343

> <G>
27.347

> <E>
4.558

> <-TS>
22.789

> <U+W>
-11.538

> <U>
46.423

> <W>
-57.961

> <W(PB)>
-59.894

> <W(SA)>
1.932

> <Valence>
1.410

> <Coulomb>
44.613

> <VdW>
0.400

> <VdW6>
-4.001

> <VdW12>
4.401

> <Bond>
0.117

> <Angle>
0.430

> <Pdih>
0.863

> <Idih>
0.000

> <Tether>
0.000

$$$$
VeraChem MOL file


 20 19  0  0  0  0  0  0  0  0999 V2000     
   19.9686   18.6227   25.4434 N   0  3  0  0  0  0  0  0  0  0  0  0
   19.0580   18.1528   25.4596 H   0  0  0  0  0  0  0  0  0  0  0  0
   20.6123   18.0427   25.9918 H   0  0  0  0  0  0  0  0  0  0  0  0
   19.8602   19.5068   25.9504 H   0  0  0  0  0  0  0  0  0  0  0  0
   20.4698   18.8383   24.0296 C   0  0  0  0  0  0  0  0  0  0  0  0
   20.5905   17.8571   23.5635 H   0  0  0  0  0  0  0  0  0  0  0  0
   21.4525   19.3141   24.0887 H   0  0  0  0  0  0  0  0  0  0  0  0
   19.5241   19.7072   23.1787 C   0  0  0  0  0  0  0  0  0  0  0  0
   18.5368   19.2300   23.1201 H   0  0  0  0  0  0  0  0  0  0  0  0
   19.3768   20.6733   23.6797 H   0  0  0  0  0  0  0  0  0  0  0  0
   20.0653   19.9595   21.7515 C   0  0  0  0  0  0  0  0  0  0  0  0
   21.0416   20.4601   21.8126 H   0  0  0  0  0  0  0  0  0  0  0  0
   19.3907   20.6578   21.2369 H   0  0  0  0  0  0  0  0  0  0  0  0
   20.1938   18.6663   20.9118 C   0  0  0  0  0  0  0  0  0  0  0  0
   20.9045   17.9755   21.3854 H   0  0  0  0  0  0  0  0  0  0  0  0
   19.2246   18.1494   20.8760 H   0  0  0  0  0  0  0  0  0  0  0  0
   20.6663   18.9659   19.4730 C   0  0  0  0  0  0  0  0  0  0  0  0
   20.7528   18.0384   18.8923 H   0  0  0  0  0  0  0  0  0  0  0  0
   19.9576   19.6234   18.9529 H   0  0  0  0  0  0  0  0  0  0  0  0
   21.6490   19.4553   19.4740 H   0  0  0  0  0  0  0  0  0  0  0  0
  1  2  1  0  0  0  0
  1  3  1  0  0  0  0
  1  4  1  0  0  0  0
  1  5  1  0  0  0  0
  5  6  1  0  0  0  0
  5  7  1  0  0  0  0
  5  8  1  0  0  0  0
  8  9  1  0  0  0  0
  8 10  1  0  0  0  0
  8 11  1  0  0  0  0
 11 12  1  0  0  0  0
 11 13  1  0  0  0  0
 11 14  1  0  0  0  0
 14 15  1  0  0  0  0
 14 16  1  0  0  0  0
 14 17  1  0  0  0  0
 17 18  1  0  0  0  0
 17 19  1  0  0  0  0
 17 20  1  0  0  0  0
M  END
> <VM2 Rank>
4

> <Conf_Id>
602

> <Probability>
8.60

> <Sum Probability>
51.76

> <Delta G>
0.501

> <G>
27.505

> <E>
4.721

> <-TS>
22.784

> <U+W>
-11.375

> <U>
46.508

> <W>
-57.883

> <W(PB)>
-59.814

> <W(SA)>
1.931

> <Valence>
1.610

> <Coulomb>
44.536

> <VdW>
0.363

> <VdW6>
-4.056

> <VdW12>
4.419

> <Bond>
0.118

> <Angle>
0.515

> <Pdih>
0.977

> <Idih>
0.000

> <Tether>
0.000

$$$$
VeraChem MOL file


 20 19  0  0  0  0  0  0  0  0999 V2000     
   19.4823   19.4057   25.4133 N   0  3  0  0  0  0  0  0  0  0  0  0
   19.0969   20.3465   25.2838 H   0  0  0  0  0  0  0  0  0  0  0  0
   18.6901   18.7559   25.4357 H   0  0  0  0  0  0  0  0  0  0  0  0
   19.9097   19.3853   26.3453 H   0  0  0  0  0  0  0  0  0  0  0  0
   20.4786   19.0472   24.3291 C   0  0  0  0  0  0  0  0  0  0  0  0
   20.8694   18.0495   24.5466 H   0  0  0  0  0  0  0  0  0  0  0  0
   21.3066   19.7593   24.3827 H   0  0  0  0  0  0  0  0  0  0  0  0
   19.8689   19.0678   22.9160 C   0  0  0  0  0  0  0  0  0  0  0  0
   19.0278   18.3631   22.8713 H   0  0  0  0  0  0  0  0  0  0  0  0
   19.4644   20.0679   22.7155 H   0  0  0  0  0  0  0  0  0  0  0  0
   20.9189   18.6940   21.8432 C   0  0  0  0  0  0  0  0  0  0  0  0
   21.3667   17.7247   22.1033 H   0  0  0  0  0  0  0  0  0  0  0  0
   21.7385   19.4259   21.8567 H   0  0  0  0  0  0  0  0  0  0  0  0
   20.3340   18.5983   20.4130 C   0  0  0  0  0  0  0  0  0  0  0  0
   21.1168   18.2285   19.7359 H   0  0  0  0  0  0  0  0  0  0  0  0
   19.5295   17.8500   20.3895 H   0  0  0  0  0  0  0  0  0  0  0  0
   19.8053   19.9470   19.8734 C   0  0  0  0  0  0  0  0  0  0  0  0
   20.5832   20.7205   19.9125 H   0  0  0  0  0  0  0  0  0  0  0  0
   19.4872   19.8441   18.8278 H   0  0  0  0  0  0  0  0  0  0  0  0
   18.9396   20.2999   20.4474 H   0  0  0  0  0  0  0  0  0  0  0  0
  1  2  1  0  0  0  0
  1  3  1  0  0  0  0
  1  4  1  0  0  0  0
  1  5  1  0  0  0  0
  5  6  1  0  0  0  0
  5  7  1  0  0  0  0
  5  8  1  0  0  0  0
  8  9  1  0  0  0  0
  8 10  1  0  0  0  0
  8 11  1  0  0  0  0
 11 12  1  0  0  0  0
 11 13  1  0  0  0  0
 11 14  1  0  0  0  0
 14 15  1  0  0  0  0
 14 16  1  0  0  0  0
 14 17  1  0  0  0  0
 17 18  1  0  0  0  0
 17 19  1  0  0  0  0
 17 20  1  0  0  0  0
M  END
> <VM2 Rank>
5

> <Conf_Id>
510

> <Probability>
7.08

> <Sum Probability>
58.84

> <Delta G>
0.617

> <G>
27.621

> <E>
4.823

> <-TS>
22.798

> <U+W>
-11.274

> <U>
46.486

> <W>
-57.760

> <W(PB)>
-59.707

> <W(SA)>
1.947

> <Valence>
1.806

> <Coulomb>
44.248

> <VdW>
0.433

> <VdW6>
-4.089

> <VdW12>
4.522

> <Bond>
0.131

> <Angle>
0.628

> <Pdih>
1.047

> <Idih>
0.000

> <Tether>
0.000

$$$$
VeraChem MOL file


 20 19  0  0  0  0  0  0  0  0999 V2000     
   19.9289   18.4438   25.4144 N   0  3  0  0  0  0  0  0  0  0  0  0
   20.1882   18.7853   26.3459 H   0  0  0  0  0  0  0  0  0  0  0  0
   18.9214   18.2577   25.4361 H   0  0  0  0  0  0  0  0  0  0  0  0
   20.3993   17.5422   25.2871 H   0  0  0  0  0  0  0  0  0  0  0  0
   20.2988   19.4343   24.3287 C   0  0  0  0  0  0  0  0  0  0  0  0
   21.3770   19.6076   24.3829 H   0  0  0  0  0  0  0  0  0  0  0  0
   19.7884   20.3769   24.5439 H   0  0  0  0  0  0  0  0  0  0  0  0
   19.9224   18.9524   22.9161 C   0  0  0  0  0  0  0  0  0  0  0  0
   20.4257   17.9976   22.7180 H   0  0  0  0  0  0  0  0  0  0  0  0
   18.8415   18.7645   22.8707 H   0  0  0  0  0  0  0  0  0  0  0  0
   20.3157   19.9936   21.8416 C   0  0  0  0  0  0  0  0  0  0  0  0
   21.4037   20.1473   21.8559 H   0  0  0  0  0  0  0  0  0  0  0  0
   19.8640   20.9617   22.0994 H   0  0  0  0  0  0  0  0  0  0  0  0
   19.8665   19.6057   20.4118 C   0  0  0  0  0  0  0  0  0  0  0  0
   18.7756   19.4744   20.3874 H   0  0  0  0  0  0  0  0  0  0  0  0
   20.0901   20.4409   19.7332 H   0  0  0  0  0  0  0  0  0  0  0  0
   20.5557   18.3302   19.8755 C   0  0  0  0  0  0  0  0  0  0  0  0
   20.2657   17.4424   20.4509 H   0  0  0  0  0  0  0  0  0  0  0  0
   20.2730   18.1517   18.8299 H   0  0  0  0  0  0  0  0  0  0  0  0
   21.6486   18.4249   19.9156 H   0  0  0  0  0  0  0  0  0  0  0  0
  1  2  1  0  0  0  0
  1  3  1  0  0  0  0
  1  4  1  0  0  0  0
  1  5  1  0  0  0  0
  5  6  1  0  0  0  0
  5  7  1  0  0  0  0
  5  8  1  0  0  0  0
  8  9  1  0  0  0  0
  8 10  1  0  0  0  0
  8 11  1  0  0  0  0
 11 12  1  0  0  0  0
 11 13  1  0  0  0  0
 11 14  1  0  0  0  0
 14 15  1  0  0  0  0
 14 16  1  0  0  0  0
 14 17  1  0  0  0  0
 17 18  1  0  0  0  0
 17 19  1  0  0  0  0
 17 20  1  0  0  0  0
M  END
> <VM2 Rank>
6

> <Conf_Id>
284

> <Probability>
6.96

> <Sum Probability>
65.80

> <Delta G>
0.628

> <G>
27.631

> <E>
4.833

> <-TS>
22.799

> <U+W>
-11.263

> <U>
46.486

> <W>
-57.750

> <W(PB)>
-59.686

> <W(SA)>
1.936

> <Valence>
1.806

> <Coulomb>
44.248

> <VdW>
0.433

> <VdW6>
-4.089

> <VdW12>
4.522

> <Bond>
0.131

> <Angle>
0.628

> <Pdih>
1.047

> <Idih>
0.000

> <Tether>
0.000

$$$$
VeraChem MOL file


 20 19  0  0  0  0  0  0  0  0999 V2000     
   19.4805   19.1732   25.1477 N   0  3  0  0  0  0  0  0  0  0  0  0
   18.8426   19.8673   24.7475 H   0  0  0  0  0  0  0  0  0  0  0  0
   18.9743   18.2830   25.1857 H   0  0  0  0  0  0  0  0  0  0  0  0
   19.6590   19.4559   26.1171 H   0  0  0  0  0  0  0  0  0  0  0  0
   20.7649   19.0592   24.3494 C   0  0  0  0  0  0  0  0  0  0  0  0
   21.4081   18.3370   24.8597 H   0  0  0  0  0  0  0  0  0  0  0  0
   21.2644   20.0316   24.3680 H   0  0  0  0  0  0  0  0  0  0  0  0
   20.5554   18.6117   22.8893 C   0  0  0  0  0  0  0  0  0  0  0  0
   21.5430   18.4474   22.4407 H   0  0  0  0  0  0  0  0  0  0  0  0
   20.0380   17.6433   22.8735 H   0  0  0  0  0  0  0  0  0  0  0  0
   19.7662   19.6500   22.0525 C   0  0  0  0  0  0  0  0  0  0  0  0
   20.3014   20.6097   22.0540 H   0  0  0  0  0  0  0  0  0  0  0  0
   18.7936   19.8380   22.5261 H   0  0  0  0  0  0  0  0  0  0  0  0
   19.5138   19.2014   20.5923 C   0  0  0  0  0  0  0  0  0  0  0  0
   18.9664   18.2484   20.5854 H   0  0  0  0  0  0  0  0  0  0  0  0
   18.8562   19.9362   20.1070 H   0  0  0  0  0  0  0  0  0  0  0  0
   20.8072   19.0645   19.7568 C   0  0  0  0  0  0  0  0  0  0  0  0
   21.3890   19.9953   19.7736 H   0  0  0  0  0  0  0  0  0  0  0  0
   21.4448   18.2531   20.1287 H   0  0  0  0  0  0  0  0  0  0  0  0
   20.5658   18.8394   18.7099 H   0  0  0  0  0  0  0  0  0  0  0  0
  1  2  1  0  0  0  0
  1  3  1  0  0  0  0
  1  4  1  0  0  0  0
  1  5  1  0  0  0  0
  5  6  1  0  0  0  0
  5  7  1  0  0  0  0
  5  8  1  0  0  0  0
  8  9  1  0  0  0  0
  8 10  1  0  0  0  0
  8 11  1  0  0  0  0
 11 12  1  0  0  0  0
 11 13  1  0  0  0  0
 11 14  1  0  0  0  0
 14 15  1  0  0  0  0
 14 16  1  0  0  0  0
 14 17  1  0  0  0  0
 17 18  1  0  0  0  0
 17 19  1  0  0  0  0
 17 20  1  0  0  0  0
M  END
> <VM2 Rank>
7

> <Conf_Id>
427

> <Probability>
4.42

> <Sum Probability>
70.21

> <Delta G>
0.899

> <G>
27.903

> <E>
5.021

> <-TS>
22.881

> <U+W>
-11.075

> <U>
47.080

> <W>
-58.155

> <W(PB)>
-60.054

> <W(SA)>
1.899

> <Valence>
1.943

> <Coulomb>
44.572

> <VdW>
0.565

> <VdW6>
-4.575

> <VdW12>
5.139

> <Bond>
0.158

> <Angle>
0.700

> <Pdih>
1.085

> <Idih>
0.000

> <Tether>
0.000

$$$$
VeraChem MOL file


 20 19  0  0  0  0  0  0  0  0999 V2000     
   19.8955   19.9225   24.9639 N   0  3  0  0  0  0  0  0  0  0  0  0
   20.6353   20.6233   24.8552 H   0  0  0  0  0  0  0  0  0  0  0  0
   19.0608   20.2886   24.4968 H   0  0  0  0  0  0  0  0  0  0  0  0
   19.6791   19.8701   25.9649 H   0  0  0  0  0  0  0  0  0  0  0  0
   20.3084   18.5742   24.4060 C   0  0  0  0  0  0  0  0  0  0  0  0
   19.4885   17.8710   24.5758 H   0  0  0  0  0  0  0  0  0  0  0  0
   21.1751   18.2300   24.9770 H   0  0  0  0  0  0  0  0  0  0  0  0
   20.6638   18.6042   22.9067 C   0  0  0  0  0  0  0  0  0  0  0  0
   21.4885   19.3103   22.7470 H   0  0  0  0  0  0  0  0  0  0  0  0
   21.0378   17.6129   22.6183 H   0  0  0  0  0  0  0  0  0  0  0  0
   19.4529   18.9757   22.0145 C   0  0  0  0  0  0  0  0  0  0  0  0
   19.1233   20.0000   22.2343 H   0  0  0  0  0  0  0  0  0  0  0  0
   18.6090   18.3178   22.2646 H   0  0  0  0  0  0  0  0  0  0  0  0
   19.7441   18.8485   20.4995 C   0  0  0  0  0  0  0  0  0  0  0  0
   20.0466   17.8186   20.2639 H   0  0  0  0  0  0  0  0  0  0  0  0
   18.8128   19.0293   19.9446 H   0  0  0  0  0  0  0  0  0  0  0  0
   20.8232   19.8349   19.9973 C   0  0  0  0  0  0  0  0  0  0  0  0
   21.8042   19.6180   20.4376 H   0  0  0  0  0  0  0  0  0  0  0  0
   20.9290   19.7661   18.9069 H   0  0  0  0  0  0  0  0  0  0  0  0
   20.5567   20.8710   20.2434 H   0  0  0  0  0  0  0  0  0  0  0  0
  1  2  1  0  0  0  0
  1  3  1  0  0  0  0
  1  4  1  0  0  0  0
  1  5  1  0  0  0  0
  5  6  1  0  0  0  0
  5  7  1  0  0  0  0
  5  8  1  0  0  0  0
  8  9  1  0  0  0  0
  8 10  1  0  0  0  0
  8 11  1  0  0  0  0
 11 12  1  0  0  0  0
 11 13  1  0  0  0  0
 11 14  1  0  0  0  0
 14 15  1  0  0  0  0
 14 16  1  0  0  0  0
 14 17  1  0  0  0  0
 17 18  1  0  0  0  0
 17 19  1  0  0  0  0
 17 20  1  0  0  0  0
M  END
> <VM2 Rank>
8

> <Conf_Id>
542

> <Probability>
4.38

> <Sum Probability>
74.60

> <Delta G>
0.903

> <G>
27.907

> <E>
5.001

> <-TS>
22.906

> <U+W>
-11.095

> <U>
47.052

> <W>
-58.148

> <W(PB)>
-60.063

> <W(SA)>
1.915

> <Valence>
1.909

> <Coulomb>
44.625

> <VdW>
0.518

> <VdW6>
-4.612

> <VdW12>
5.130

> <Bond>
0.153

> <Angle>
0.652

> <Pdih>
1.104

> <Idih>
0.000

> <Tether>
0.000

$$$$
