@<TRIPOS>MOLECULE
guest-s9_vm2.mol2 : vm2 ligand conformer 1
          20          19           1
SMALL
USER_CHARGES
 
@<TRIPOS>ATOM
       1    C1      19.854351   19.151003   18.816938 C.3        1 MOL1        -0.2224
       2    H1      20.035666   20.233130   18.780859 H          1 MOL1         0.1052
       3    H2      20.337926   18.699882   17.940770 H          1 MOL1         0.1052
       4    H3      18.773181   18.982731   18.727875 H          1 MOL1         0.1052
       5    C2      20.407264   18.537468   20.121582 C.3        1 MOL1        -0.1209
       6    H4      21.494823   18.691321   20.165140 H          1 MOL1         0.1041
       7    H5      20.242273   17.450708   20.112561 H          1 MOL1         0.1041
       8    C3      19.743906   19.154189   21.372734 C.3        1 MOL1        -0.1274
       9    H6      19.912042   20.239359   21.382734 H          1 MOL1         0.1041
      10    H7      18.657882   18.997002   21.330172 H          1 MOL1         0.1041
      11    C4      20.300570   18.537380   22.669367 C.3        1 MOL1         0.0313
      12    H8      21.379166   18.705624   22.722406 H          1 MOL1         0.1015
      13    H9      20.120844   17.459333   22.669765 H          1 MOL1         0.1015
      14    N1      19.677579   19.113319   23.925903 N.4        1 MOL1        -0.4809
      15    H10     18.654690   18.980666   23.909881 H          1 MOL1         0.3726
      16    H11     19.819799   20.134523   23.958666 H          1 MOL1         0.3726
      17    C5      20.282331   18.450640   25.156475 C.3        1 MOL1        -0.0677
      18    H12     21.359050   18.633055   25.170989 H          1 MOL1         0.1026
      19    H13     19.825118   18.874370   26.053369 H          1 MOL1         0.1026
      20    H14     20.090009   17.376244   25.117833 H          1 MOL1         0.1026
@<TRIPOS>BOND
    1     1     2    1
    2     1     3    1
    3     1     4    1
    4     1     5    1
    5     5     6    1
    6     5     7    1
    7     5     8    1
    8     8     9    1
    9     8    10    1
   10     8    11    1
   11    11    12    1
   12    11    13    1
   13    11    14    1
   14    14    15    1
   15    14    16    1
   16    14    17    1
   17    17    18    1
   18    17    19    1
   19    17    20    1
@<TRIPOS>SUBSTRUCTURE
       1 MOL1            1 RESIDUE      1      MOL     
@<SCITEGIC>MOL_PROPERTY
VM2 Rank
SciTegic.value.IntegerValue
1

@<SCITEGIC>MOL_PROPERTY
Conf_Id
SciTegic.value.IntegerValue
67

@<SCITEGIC>MOL_PROPERTY
Probability
SciTegic.value.DoubleValue
13.69

@<SCITEGIC>MOL_PROPERTY
Sum Probability
SciTegic.value.DoubleValue
13.69

@<SCITEGIC>MOL_PROPERTY
Delta G
SciTegic.value.DoubleValue
0.000

@<SCITEGIC>MOL_PROPERTY
G
SciTegic.value.DoubleValue
53.937

@<SCITEGIC>MOL_PROPERTY
E
SciTegic.value.DoubleValue
31.435

@<SCITEGIC>MOL_PROPERTY
-TS
SciTegic.value.DoubleValue
22.502

@<SCITEGIC>MOL_PROPERTY
U+W
SciTegic.value.DoubleValue
15.338

@<SCITEGIC>MOL_PROPERTY
U
SciTegic.value.DoubleValue
69.277

@<SCITEGIC>MOL_PROPERTY
W
SciTegic.value.DoubleValue
-53.938

@<SCITEGIC>MOL_PROPERTY
W(PB)
SciTegic.value.DoubleValue
-55.889

@<SCITEGIC>MOL_PROPERTY
W(SA)
SciTegic.value.DoubleValue
1.950

@<SCITEGIC>MOL_PROPERTY
Valence
SciTegic.value.DoubleValue
0.846

@<SCITEGIC>MOL_PROPERTY
Coulomb
SciTegic.value.DoubleValue
68.557

@<SCITEGIC>MOL_PROPERTY
VdW
SciTegic.value.DoubleValue
-0.127

@<SCITEGIC>MOL_PROPERTY
VdW6
SciTegic.value.DoubleValue
-3.008

@<SCITEGIC>MOL_PROPERTY
VdW12
SciTegic.value.DoubleValue
2.882

@<SCITEGIC>MOL_PROPERTY
Bond
SciTegic.value.DoubleValue
0.088

@<SCITEGIC>MOL_PROPERTY
Angle
SciTegic.value.DoubleValue
0.332

@<SCITEGIC>MOL_PROPERTY
Pdih
SciTegic.value.DoubleValue
0.426

@<SCITEGIC>MOL_PROPERTY
Idih
SciTegic.value.DoubleValue
0.000

@<SCITEGIC>MOL_PROPERTY
Tether
SciTegic.value.DoubleValue
0.000

