@<TRIPOS>MOLECULE
guest-s22_vm2.mol2 : vm2 ligand conformer 1
          20          19           1
SMALL
USER_CHARGES
 
@<TRIPOS>ATOM
       1    C1      20.445458   18.066038   18.739877 C.2        1 MOL1        -0.2535
       2    H1      20.659686   17.797390   17.706859 H          1 MOL1         0.0845
       3    H2      20.583309   17.288287   19.487973 H          1 MOL1         0.0845
       4    C2      20.033154   19.299529   19.053594 C.2        1 MOL1        -0.1324
       5    H3      19.913507   20.036229   18.259500 H          1 MOL1         0.0833
       6    C3      19.697247   19.819675   20.441263 C.3        1 MOL1        -0.1813
       7    H4      18.664330   20.192775   20.437734 H          1 MOL1         0.0753
       8    H5      20.327154   20.694217   20.652278 H          1 MOL1         0.0753
       9    C4      19.860498   18.789699   21.583400 C.3        1 MOL1        -0.1855
      10    H6      19.216741   17.920895   21.388864 H          1 MOL1         0.0755
      11    H7      20.897605   18.427763   21.605700 H          1 MOL1         0.0755
      12    C5      19.500284   19.396553   22.957078 C.3        1 MOL1        -0.1855
      13    H8      18.463570   19.760670   22.941267 H          1 MOL1         0.0755
      14    H9      20.140988   20.266538   23.157656 H          1 MOL1         0.0755
      15    C6      19.662981   18.367126   24.102455 C.3        1 MOL1        -0.1958
      16    H10     19.019309   17.497331   23.924281 H          1 MOL1         0.0753
      17    H11     20.696756   18.003185   24.140642 H          1 MOL1         0.0753
      18    C7      19.312956   18.942965   25.469890 C.2        1 MOL1         0.6174
      19    O1      20.197135   19.475078   26.111551 O.co2      1 MOL1        -0.6695
      20    O2      18.161287   18.861338   25.848892 O.co2      1 MOL1        -0.6695
@<TRIPOS>BOND
    1     1     2    1
    2     1     3    1
    3     1     4    2
    4     4     5    1
    5     4     6    1
    6     6     7    1
    7     6     8    1
    8     6     9    1
    9     9    10    1
   10     9    11    1
   11     9    12    1
   12    12    13    1
   13    12    14    1
   14    12    15    1
   15    15    16    1
   16    15    17    1
   17    15    18    1
   18    18    19    1
   19    18    20    2
@<TRIPOS>SUBSTRUCTURE
       1 MOL1            1 RESIDUE      1      MOL     
@<SCITEGIC>MOL_PROPERTY
VM2 Rank
SciTegic.value.IntegerValue
1

@<SCITEGIC>MOL_PROPERTY
Conf_Id
SciTegic.value.IntegerValue
236

@<SCITEGIC>MOL_PROPERTY
Probability
SciTegic.value.DoubleValue
13.93

@<SCITEGIC>MOL_PROPERTY
Sum Probability
SciTegic.value.DoubleValue
13.93

@<SCITEGIC>MOL_PROPERTY
Delta G
SciTegic.value.DoubleValue
0.000

@<SCITEGIC>MOL_PROPERTY
G
SciTegic.value.DoubleValue
-21.888

@<SCITEGIC>MOL_PROPERTY
E
SciTegic.value.DoubleValue
-37.136

@<SCITEGIC>MOL_PROPERTY
-TS
SciTegic.value.DoubleValue
15.247

@<SCITEGIC>MOL_PROPERTY
U+W
SciTegic.value.DoubleValue
-53.232

@<SCITEGIC>MOL_PROPERTY
U
SciTegic.value.DoubleValue
6.572

@<SCITEGIC>MOL_PROPERTY
W
SciTegic.value.DoubleValue
-59.803

@<SCITEGIC>MOL_PROPERTY
W(PB)
SciTegic.value.DoubleValue
-62.038

@<SCITEGIC>MOL_PROPERTY
W(SA)
SciTegic.value.DoubleValue
2.234

@<SCITEGIC>MOL_PROPERTY
Valence
SciTegic.value.DoubleValue
7.989

@<SCITEGIC>MOL_PROPERTY
Coulomb
SciTegic.value.DoubleValue
-2.698

@<SCITEGIC>MOL_PROPERTY
VdW
SciTegic.value.DoubleValue
1.281

@<SCITEGIC>MOL_PROPERTY
VdW6
SciTegic.value.DoubleValue
-6.467

@<SCITEGIC>MOL_PROPERTY
VdW12
SciTegic.value.DoubleValue
7.748

@<SCITEGIC>MOL_PROPERTY
Bond
SciTegic.value.DoubleValue
0.136

@<SCITEGIC>MOL_PROPERTY
Angle
SciTegic.value.DoubleValue
2.854

@<SCITEGIC>MOL_PROPERTY
Pdih
SciTegic.value.DoubleValue
4.998

@<SCITEGIC>MOL_PROPERTY
Idih
SciTegic.value.DoubleValue
0.001

@<SCITEGIC>MOL_PROPERTY
Tether
SciTegic.value.DoubleValue
0.000

