VeraChem MOL file


 22 22  0  0  0  0  0  0  0  0999 V2000     
   19.8825   19.0490   20.9026 C   0  0  0  0  0  0  0  0  0  0  0  0
   20.8932   19.1566   20.4858 H   0  0  0  0  0  0  0  0  0  0  0  0
   19.2824   18.5760   20.1134 H   0  0  0  0  0  0  0  0  0  0  0  0
   19.2917   20.4493   21.1836 C   0  0  0  0  0  0  0  0  0  0  0  0
   19.3611   21.0412   20.2607 H   0  0  0  0  0  0  0  0  0  0  0  0
   18.2185   20.3559   21.3989 H   0  0  0  0  0  0  0  0  0  0  0  0
   19.9806   21.2344   22.3249 C   0  0  0  0  0  0  0  0  0  0  0  0
   19.6224   22.2720   22.2799 H   0  0  0  0  0  0  0  0  0  0  0  0
   21.0670   21.2803   22.1688 H   0  0  0  0  0  0  0  0  0  0  0  0
   19.6466   20.6732   23.7283 C   0  0  0  0  0  0  0  0  0  0  0  0
   19.7185   21.4904   24.4577 H   0  0  0  0  0  0  0  0  0  0  0  0
   18.5974   20.3506   23.7487 H   0  0  0  0  0  0  0  0  0  0  0  0
   20.5644   19.5313   24.2234 C   0  0  0  0  0  0  0  0  0  0  0  0
   21.4771   19.9850   24.6358 H   0  0  0  0  0  0  0  0  0  0  0  0
   21.0068   18.5018   23.1578 C   0  0  0  0  0  0  0  0  0  0  0  0
   21.8884   18.8895   22.6312 H   0  0  0  0  0  0  0  0  0  0  0  0
   21.3564   17.5991   23.6766 H   0  0  0  0  0  0  0  0  0  0  0  0
   19.9265   18.1001   22.1235 C   0  0  0  0  0  0  0  0  0  0  0  0
   20.1660   17.0931   21.7555 H   0  0  0  0  0  0  0  0  0  0  0  0
   18.9371   18.0249   22.5940 H   0  0  0  0  0  0  0  0  0  0  0  0
   19.8869   18.8389   25.2629 O   0  0  0  0  0  0  0  0  0  0  0  0
   19.1423   18.3714   24.8327 H   0  0  0  0  0  0  0  0  0  0  0  0
  1  2  1  0  0  0  0
  1  3  1  0  0  0  0
  1  4  1  0  0  0  0
  4  5  1  0  0  0  0
  4  6  1  0  0  0  0
  4  7  1  0  0  0  0
  7  8  1  0  0  0  0
  7  9  1  0  0  0  0
  7 10  1  0  0  0  0
 10 11  1  0  0  0  0
 10 12  1  0  0  0  0
 10 13  1  0  0  0  0
 13 14  1  0  0  0  0
 13 15  1  0  0  0  0
 15 16  1  0  0  0  0
 15 17  1  0  0  0  0
  1 18  1  0  0  0  0
 15 18  1  0  0  0  0
 18 19  1  0  0  0  0
 18 20  1  0  0  0  0
 13 21  1  0  0  0  0
 21 22  1  0  0  0  0
M  END
> <VM2 Rank>
1

> <Conf_Id>
620

> <Probability>
7.97

> <Sum Probability>
7.97

> <Delta G>
0.000

> <G>
47.363

> <E>
20.694

> <-TS>
26.669

> <U+W>
2.809

> <U>
4.530

> <W>
-1.721

> <W(PB)>
-3.723

> <W(SA)>
2.002

> <Valence>
12.224

> <Coulomb>
-9.755

> <VdW>
2.062

> <VdW6>
-9.196

> <VdW12>
11.257

> <Bond>
0.216

> <Angle>
2.754

> <Pdih>
9.253

> <Idih>
0.000

> <Tether>
0.000

$$$$
VeraChem MOL file


 22 22  0  0  0  0  0  0  0  0999 V2000     
   19.6680   19.0240   20.9216 C   0  0  0  0  0  0  0  0  0  0  0  0
   19.9307   18.8838   19.8641 H   0  0  0  0  0  0  0  0  0  0  0  0
   18.7047   18.5146   21.0604 H   0  0  0  0  0  0  0  0  0  0  0  0
   19.4894   20.5379   21.1763 C   0  0  0  0  0  0  0  0  0  0  0  0
   20.3872   21.0730   20.8382 H   0  0  0  0  0  0  0  0  0  0  0  0
   18.6693   20.8979   20.5402 H   0  0  0  0  0  0  0  0  0  0  0  0
   19.1810   20.9231   22.6424 C   0  0  0  0  0  0  0  0  0  0  0  0
   18.3221   20.3540   23.0221 H   0  0  0  0  0  0  0  0  0  0  0  0
   18.8760   21.9784   22.6535 H   0  0  0  0  0  0  0  0  0  0  0  0
   20.4080   20.7691   23.5746 C   0  0  0  0  0  0  0  0  0  0  0  0
   21.3174   21.0517   23.0287 H   0  0  0  0  0  0  0  0  0  0  0  0
   20.3270   21.4969   24.3932 H   0  0  0  0  0  0  0  0  0  0  0  0
   20.6080   19.3661   24.1931 C   0  0  0  0  0  0  0  0  0  0  0  0
   21.6588   19.2970   24.5093 H   0  0  0  0  0  0  0  0  0  0  0  0
   20.3092   18.1641   23.2670 C   0  0  0  0  0  0  0  0  0  0  0  0
   20.8272   17.2916   23.6859 H   0  0  0  0  0  0  0  0  0  0  0  0
   19.2399   17.9173   23.3013 H   0  0  0  0  0  0  0  0  0  0  0  0
   20.7460   18.3356   21.7920 C   0  0  0  0  0  0  0  0  0  0  0  0
   21.7034   18.8702   21.7257 H   0  0  0  0  0  0  0  0  0  0  0  0
   20.9256   17.3362   21.3726 H   0  0  0  0  0  0  0  0  0  0  0  0
   19.7763   19.2580   25.3400 O   0  0  0  0  0  0  0  0  0  0  0  0
   18.8642   19.4247   25.0264 H   0  0  0  0  0  0  0  0  0  0  0  0
  1  2  1  0  0  0  0
  1  3  1  0  0  0  0
  1  4  1  0  0  0  0
  4  5  1  0  0  0  0
  4  6  1  0  0  0  0
  4  7  1  0  0  0  0
  7  8  1  0  0  0  0
  7  9  1  0  0  0  0
  7 10  1  0  0  0  0
 10 11  1  0  0  0  0
 10 12  1  0  0  0  0
 10 13  1  0  0  0  0
 13 14  1  0  0  0  0
 13 15  1  0  0  0  0
 15 16  1  0  0  0  0
 15 17  1  0  0  0  0
  1 18  1  0  0  0  0
 15 18  1  0  0  0  0
 18 19  1  0  0  0  0
 18 20  1  0  0  0  0
 13 21  1  0  0  0  0
 21 22  1  0  0  0  0
M  END
> <VM2 Rank>
2

> <Conf_Id>
126

> <Probability>
7.66

> <Sum Probability>
15.63

> <Delta G>
0.024

> <G>
47.387

> <E>
20.718

> <-TS>
26.669

> <U+W>
2.833

> <U>
4.530

> <W>
-1.697

> <W(PB)>
-3.699

> <W(SA)>
2.002

> <Valence>
12.224

> <Coulomb>
-9.755

> <VdW>
2.061

> <VdW6>
-9.195

> <VdW12>
11.257

> <Bond>
0.216

> <Angle>
2.755

> <Pdih>
9.253

> <Idih>
0.000

> <Tether>
0.000

$$$$
VeraChem MOL file


 22 22  0  0  0  0  0  0  0  0999 V2000     
   19.9766   19.1866   21.0729 C   0  0  0  0  0  0  0  0  0  0  0  0
   20.9200   19.6951   20.8325 H   0  0  0  0  0  0  0  0  0  0  0  0
   19.5991   18.7850   20.1226 H   0  0  0  0  0  0  0  0  0  0  0  0
   18.9305   20.1893   21.6112 C   0  0  0  0  0  0  0  0  0  0  0  0
   18.4880   20.7248   20.7599 H   0  0  0  0  0  0  0  0  0  0  0  0
   18.0964   19.6369   22.0635 H   0  0  0  0  0  0  0  0  0  0  0  0
   19.4660   21.2482   22.6080 C   0  0  0  0  0  0  0  0  0  0  0  0
   18.6328   21.5821   23.2417 H   0  0  0  0  0  0  0  0  0  0  0  0
   19.7733   22.1365   22.0393 H   0  0  0  0  0  0  0  0  0  0  0  0
   20.6596   20.8354   23.5115 C   0  0  0  0  0  0  0  0  0  0  0  0
   21.5881   20.8958   22.9291 H   0  0  0  0  0  0  0  0  0  0  0  0
   20.7650   21.5918   24.3001 H   0  0  0  0  0  0  0  0  0  0  0  0
   20.5856   19.4460   24.1852 C   0  0  0  0  0  0  0  0  0  0  0  0
   21.2555   19.4691   25.0568 H   0  0  0  0  0  0  0  0  0  0  0  0
   21.0851   18.3069   23.2680 C   0  0  0  0  0  0  0  0  0  0  0  0
   22.1060   18.5418   22.9399 H   0  0  0  0  0  0  0  0  0  0  0  0
   21.1717   17.3943   23.8721 H   0  0  0  0  0  0  0  0  0  0  0  0
   20.2185   17.9904   22.0240 C   0  0  0  0  0  0  0  0  0  0  0  0
   20.7217   17.1954   21.4571 H   0  0  0  0  0  0  0  0  0  0  0  0
   19.2564   17.5642   22.3390 H   0  0  0  0  0  0  0  0  0  0  0  0
   19.2641   19.1753   24.6261 O   0  0  0  0  0  0  0  0  0  0  0  0
   18.7216   19.2541   23.8163 H   0  0  0  0  0  0  0  0  0  0  0  0
  1  2  1  0  0  0  0
  1  3  1  0  0  0  0
  1  4  1  0  0  0  0
  4  5  1  0  0  0  0
  4  6  1  0  0  0  0
  4  7  1  0  0  0  0
  7  8  1  0  0  0  0
  7  9  1  0  0  0  0
  7 10  1  0  0  0  0
 10 11  1  0  0  0  0
 10 12  1  0  0  0  0
 10 13  1  0  0  0  0
 13 14  1  0  0  0  0
 13 15  1  0  0  0  0
 15 16  1  0  0  0  0
 15 17  1  0  0  0  0
  1 18  1  0  0  0  0
 15 18  1  0  0  0  0
 18 19  1  0  0  0  0
 18 20  1  0  0  0  0
 13 21  1  0  0  0  0
 21 22  1  0  0  0  0
M  END
> <VM2 Rank>
3

> <Conf_Id>
428

> <Probability>
6.67

> <Sum Probability>
22.30

> <Delta G>
0.107

> <G>
47.470

> <E>
20.456

> <-TS>
27.013

> <U+W>
2.572

> <U>
3.922

> <W>
-1.350

> <W(PB)>
-3.345

> <W(SA)>
1.995

> <Valence>
12.571

> <Coulomb>
-10.581

> <VdW>
1.932

> <VdW6>
-10.483

> <VdW12>
12.414

> <Bond>
0.268

> <Angle>
3.728

> <Pdih>
8.575

> <Idih>
0.000

> <Tether>
0.000

$$$$
VeraChem MOL file


 22 22  0  0  0  0  0  0  0  0999 V2000     
   19.2811   18.8974   21.3797 C   0  0  0  0  0  0  0  0  0  0  0  0
   19.0867   18.5182   20.3670 H   0  0  0  0  0  0  0  0  0  0  0  0
   18.3217   18.8068   21.9057 H   0  0  0  0  0  0  0  0  0  0  0  0
   19.6719   20.3897   21.2807 C   0  0  0  0  0  0  0  0  0  0  0  0
   20.7220   20.5011   20.9786 H   0  0  0  0  0  0  0  0  0  0  0  0
   19.0762   20.8403   20.4751 H   0  0  0  0  0  0  0  0  0  0  0  0
   19.3813   21.1821   22.5776 C   0  0  0  0  0  0  0  0  0  0  0  0
   18.3601   20.9706   22.9226 H   0  0  0  0  0  0  0  0  0  0  0  0
   19.3954   22.2539   22.3372 H   0  0  0  0  0  0  0  0  0  0  0  0
   20.3859   20.9417   23.7316 C   0  0  0  0  0  0  0  0  0  0  0  0
   21.3654   21.3420   23.4396 H   0  0  0  0  0  0  0  0  0  0  0  0
   20.0692   21.5380   24.5973 H   0  0  0  0  0  0  0  0  0  0  0  0
   20.5672   19.4786   24.1950 C   0  0  0  0  0  0  0  0  0  0  0  0
   21.2303   19.5028   25.0716 H   0  0  0  0  0  0  0  0  0  0  0  0
   21.2479   18.5909   23.1279 C   0  0  0  0  0  0  0  0  0  0  0  0
   22.0434   19.1708   22.6423 H   0  0  0  0  0  0  0  0  0  0  0  0
   21.7639   17.7713   23.6447 H   0  0  0  0  0  0  0  0  0  0  0  0
   20.3343   17.9696   22.0368 C   0  0  0  0  0  0  0  0  0  0  0  0
   20.9860   17.5702   21.2477 H   0  0  0  0  0  0  0  0  0  0  0  0
   19.8154   17.0963   22.4556 H   0  0  0  0  0  0  0  0  0  0  0  0
   19.3164   18.9279   24.5776 O   0  0  0  0  0  0  0  0  0  0  0  0
   18.8183   18.8616   23.7387 H   0  0  0  0  0  0  0  0  0  0  0  0
  1  2  1  0  0  0  0
  1  3  1  0  0  0  0
  1  4  1  0  0  0  0
  4  5  1  0  0  0  0
  4  6  1  0  0  0  0
  4  7  1  0  0  0  0
  7  8  1  0  0  0  0
  7  9  1  0  0  0  0
  7 10  1  0  0  0  0
 10 11  1  0  0  0  0
 10 12  1  0  0  0  0
 10 13  1  0  0  0  0
 13 14  1  0  0  0  0
 13 15  1  0  0  0  0
 15 16  1  0  0  0  0
 15 17  1  0  0  0  0
  1 18  1  0  0  0  0
 15 18  1  0  0  0  0
 18 19  1  0  0  0  0
 18 20  1  0  0  0  0
 13 21  1  0  0  0  0
 21 22  1  0  0  0  0
M  END
> <VM2 Rank>
4

> <Conf_Id>
7

> <Probability>
6.36

> <Sum Probability>
28.66

> <Delta G>
0.135

> <G>
47.498

> <E>
20.485

> <-TS>
27.013

> <U+W>
2.600

> <U>
3.922

> <W>
-1.322

> <W(PB)>
-3.302

> <W(SA)>
1.980

> <Valence>
12.571

> <Coulomb>
-10.581

> <VdW>
1.932

> <VdW6>
-10.483

> <VdW12>
12.414

> <Bond>
0.268

> <Angle>
3.728

> <Pdih>
8.575

> <Idih>
0.000

> <Tether>
0.000

$$$$
VeraChem MOL file


 22 22  0  0  0  0  0  0  0  0999 V2000     
   19.8710   19.1041   20.8415 C   0  0  0  0  0  0  0  0  0  0  0  0
   20.3616   18.9262   19.8748 H   0  0  0  0  0  0  0  0  0  0  0  0
   18.8001   18.9296   20.6693 H   0  0  0  0  0  0  0  0  0  0  0  0
   20.0922   20.5825   21.2421 C   0  0  0  0  0  0  0  0  0  0  0  0
   21.1480   20.7715   21.4792 H   0  0  0  0  0  0  0  0  0  0  0  0
   19.8618   21.2035   20.3656 H   0  0  0  0  0  0  0  0  0  0  0  0
   19.1751   21.0347   22.4025 C   0  0  0  0  0  0  0  0  0  0  0  0
   18.1926   20.5540   22.3002 H   0  0  0  0  0  0  0  0  0  0  0  0
   18.9860   22.1127   22.3081 H   0  0  0  0  0  0  0  0  0  0  0  0
   19.7368   20.7696   23.8215 C   0  0  0  0  0  0  0  0  0  0  0  0
   20.4182   21.5886   24.0859 H   0  0  0  0  0  0  0  0  0  0  0  0
   18.9027   20.8274   24.5338 H   0  0  0  0  0  0  0  0  0  0  0  0
   20.4966   19.4387   24.0271 C   0  0  0  0  0  0  0  0  0  0  0  0
   21.5263   19.5657   23.6631 H   0  0  0  0  0  0  0  0  0  0  0  0
   19.8777   18.2250   23.2989 C   0  0  0  0  0  0  0  0  0  0  0  0
   20.1403   17.3144   23.8539 H   0  0  0  0  0  0  0  0  0  0  0  0
   18.7819   18.2858   23.3109 H   0  0  0  0  0  0  0  0  0  0  0  0
   20.4029   18.0614   21.8515 C   0  0  0  0  0  0  0  0  0  0  0  0
   21.5012   18.0856   21.8568 H   0  0  0  0  0  0  0  0  0  0  0  0
   20.1270   17.0616   21.4895 H   0  0  0  0  0  0  0  0  0  0  0  0
   20.5337   19.1621   25.4219 O   0  0  0  0  0  0  0  0  0  0  0  0
   20.9742   19.9262   25.8496 H   0  0  0  0  0  0  0  0  0  0  0  0
  1  2  1  0  0  0  0
  1  3  1  0  0  0  0
  1  4  1  0  0  0  0
  4  5  1  0  0  0  0
  4  6  1  0  0  0  0
  4  7  1  0  0  0  0
  7  8  1  0  0  0  0
  7  9  1  0  0  0  0
  7 10  1  0  0  0  0
 10 11  1  0  0  0  0
 10 12  1  0  0  0  0
 10 13  1  0  0  0  0
 13 14  1  0  0  0  0
 13 15  1  0  0  0  0
 15 16  1  0  0  0  0
 15 17  1  0  0  0  0
  1 18  1  0  0  0  0
 15 18  1  0  0  0  0
 18 19  1  0  0  0  0
 18 20  1  0  0  0  0
 13 21  1  0  0  0  0
 21 22  1  0  0  0  0
M  END
> <VM2 Rank>
5

> <Conf_Id>
436

> <Probability>
5.11

> <Sum Probability>
33.78

> <Delta G>
0.265

> <G>
47.628

> <E>
20.970

> <-TS>
26.657

> <U+W>
3.085

> <U>
5.433

> <W>
-2.348

> <W(PB)>
-4.357

> <W(SA)>
2.010

> <Valence>
11.903

> <Coulomb>
-8.719

> <VdW>
2.250

> <VdW6>
-8.926

> <VdW12>
11.175

> <Bond>
0.223

> <Angle>
2.471

> <Pdih>
9.209

> <Idih>
0.000

> <Tether>
0.000

$$$$
VeraChem MOL file


 22 22  0  0  0  0  0  0  0  0999 V2000     
   19.8722   19.1045   20.8422 C   0  0  0  0  0  0  0  0  0  0  0  0
   18.8013   18.9313   20.6688 H   0  0  0  0  0  0  0  0  0  0  0  0
   20.3635   18.9263   19.8759 H   0  0  0  0  0  0  0  0  0  0  0  0
   20.0945   20.5828   21.2431 C   0  0  0  0  0  0  0  0  0  0  0  0
   21.1501   20.7706   21.4820 H   0  0  0  0  0  0  0  0  0  0  0  0
   19.8665   21.2039   20.3661 H   0  0  0  0  0  0  0  0  0  0  0  0
   19.1761   21.0368   22.4017 C   0  0  0  0  0  0  0  0  0  0  0  0
   18.1921   20.5600   22.2960 H   0  0  0  0  0  0  0  0  0  0  0  0
   18.9914   22.1157   22.3088 H   0  0  0  0  0  0  0  0  0  0  0  0
   19.7327   20.7670   23.8221 C   0  0  0  0  0  0  0  0  0  0  0  0
   20.4125   21.5844   24.0953 H   0  0  0  0  0  0  0  0  0  0  0  0
   18.8978   20.8197   24.5337 H   0  0  0  0  0  0  0  0  0  0  0  0
   20.4954   19.4381   24.0260 C   0  0  0  0  0  0  0  0  0  0  0  0
   21.5233   19.5706   23.6591 H   0  0  0  0  0  0  0  0  0  0  0  0
   19.8750   18.2241   23.2988 C   0  0  0  0  0  0  0  0  0  0  0  0
   20.1302   17.3096   23.8503 H   0  0  0  0  0  0  0  0  0  0  0  0
   18.7793   18.2898   23.3066 H   0  0  0  0  0  0  0  0  0  0  0  0
   20.4020   18.0606   21.8521 C   0  0  0  0  0  0  0  0  0  0  0  0
   21.5004   18.0834   21.8581 H   0  0  0  0  0  0  0  0  0  0  0  0
   20.1251   17.0615   21.4889 H   0  0  0  0  0  0  0  0  0  0  0  0
   20.5381   19.1640   25.4211 O   0  0  0  0  0  0  0  0  0  0  0  0
   21.0891   18.3614   25.5343 H   0  0  0  0  0  0  0  0  0  0  0  0
  1  2  1  0  0  0  0
  1  3  1  0  0  0  0
  1  4  1  0  0  0  0
  4  5  1  0  0  0  0
  4  6  1  0  0  0  0
  4  7  1  0  0  0  0
  7  8  1  0  0  0  0
  7  9  1  0  0  0  0
  7 10  1  0  0  0  0
 10 11  1  0  0  0  0
 10 12  1  0  0  0  0
 10 13  1  0  0  0  0
 13 14  1  0  0  0  0
 13 15  1  0  0  0  0
 15 16  1  0  0  0  0
 15 17  1  0  0  0  0
  1 18  1  0  0  0  0
 15 18  1  0  0  0  0
 18 19  1  0  0  0  0
 18 20  1  0  0  0  0
 13 21  1  0  0  0  0
 21 22  1  0  0  0  0
M  END
> <VM2 Rank>
6

> <Conf_Id>
742

> <Probability>
4.83

> <Sum Probability>
38.60

> <Delta G>
0.299

> <G>
47.662

> <E>
20.999

> <-TS>
26.663

> <U+W>
3.114

> <U>
5.411

> <W>
-2.297

> <W(PB)>
-4.300

> <W(SA)>
2.003

> <Valence>
11.909

> <Coulomb>
-8.733

> <VdW>
2.236

> <VdW6>
-8.936

> <VdW12>
11.172

> <Bond>
0.223

> <Angle>
2.457

> <Pdih>
9.228

> <Idih>
0.000

> <Tether>
0.000

$$$$
VeraChem MOL file


 22 22  0  0  0  0  0  0  0  0999 V2000     
   20.3584   19.2286   20.9955 C   0  0  0  0  0  0  0  0  0  0  0  0
   21.4158   19.4313   21.2135 H   0  0  0  0  0  0  0  0  0  0  0  0
   20.3227   18.8935   19.9498 H   0  0  0  0  0  0  0  0  0  0  0  0
   19.5133   20.5207   21.1037 C   0  0  0  0  0  0  0  0  0  0  0  0
   19.7945   21.1926   20.2813 H   0  0  0  0  0  0  0  0  0  0  0  0
   18.4542   20.2778   20.9416 H   0  0  0  0  0  0  0  0  0  0  0  0
   19.6622   21.2966   22.4326 C   0  0  0  0  0  0  0  0  0  0  0  0
   18.9674   22.1473   22.4122 H   0  0  0  0  0  0  0  0  0  0  0  0
   20.6687   21.7333   22.4894 H   0  0  0  0  0  0  0  0  0  0  0  0
   19.3881   20.4652   23.7097 C   0  0  0  0  0  0  0  0  0  0  0  0
   19.2974   21.1668   24.5494 H   0  0  0  0  0  0  0  0  0  0  0  0
   18.4216   19.9500   23.6364 H   0  0  0  0  0  0  0  0  0  0  0  0
   20.5172   19.4565   24.0185 C   0  0  0  0  0  0  0  0  0  0  0  0
   21.4694   19.8927   23.6840 H   0  0  0  0  0  0  0  0  0  0  0  0
   20.3500   18.0781   23.3392 C   0  0  0  0  0  0  0  0  0  0  0  0
   21.3275   17.5791   23.3576 H   0  0  0  0  0  0  0  0  0  0  0  0
   19.6815   17.4527   23.9458 H   0  0  0  0  0  0  0  0  0  0  0  0
   19.8209   18.0817   21.8831 C   0  0  0  0  0  0  0  0  0  0  0  0
   18.7228   18.1104   21.8914 H   0  0  0  0  0  0  0  0  0  0  0  0
   20.0864   17.1201   21.4231 H   0  0  0  0  0  0  0  0  0  0  0  0
   20.5759   19.2506   25.4247 O   0  0  0  0  0  0  0  0  0  0  0  0
   20.7579   20.1239   25.8305 H   0  0  0  0  0  0  0  0  0  0  0  0
  1  2  1  0  0  0  0
  1  3  1  0  0  0  0
  1  4  1  0  0  0  0
  4  5  1  0  0  0  0
  4  6  1  0  0  0  0
  4  7  1  0  0  0  0
  7  8  1  0  0  0  0
  7  9  1  0  0  0  0
  7 10  1  0  0  0  0
 10 11  1  0  0  0  0
 10 12  1  0  0  0  0
 10 13  1  0  0  0  0
 13 14  1  0  0  0  0
 13 15  1  0  0  0  0
 15 16  1  0  0  0  0
 15 17  1  0  0  0  0
  1 18  1  0  0  0  0
 15 18  1  0  0  0  0
 18 19  1  0  0  0  0
 18 20  1  0  0  0  0
 13 21  1  0  0  0  0
 21 22  1  0  0  0  0
M  END
> <VM2 Rank>
7

> <Conf_Id>
523

> <Probability>
4.69

> <Sum Probability>
43.29

> <Delta G>
0.317

> <G>
47.680

> <E>
21.017

> <-TS>
26.663

> <U+W>
3.132

> <U>
5.411

> <W>
-2.279

> <W(PB)>
-4.300

> <W(SA)>
2.021

> <Valence>
11.909

> <Coulomb>
-8.733

> <VdW>
2.236

> <VdW6>
-8.936

> <VdW12>
11.172

> <Bond>
0.223

> <Angle>
2.457

> <Pdih>
9.228

> <Idih>
0.000

> <Tether>
0.000

$$$$
VeraChem MOL file


 22 22  0  0  0  0  0  0  0  0999 V2000     
   19.5785   19.1194   21.0158 C   0  0  0  0  0  0  0  0  0  0  0  0
   19.6450   18.8663   19.9489 H   0  0  0  0  0  0  0  0  0  0  0  0
   18.5134   19.0575   21.2771 H   0  0  0  0  0  0  0  0  0  0  0  0
   20.1080   20.5609   21.1997 C   0  0  0  0  0  0  0  0  0  0  0  0
   21.2050   20.5432   21.2556 H   0  0  0  0  0  0  0  0  0  0  0  0
   19.8702   21.1443   20.2996 H   0  0  0  0  0  0  0  0  0  0  0  0
   19.5372   21.3182   22.4231 C   0  0  0  0  0  0  0  0  0  0  0  0
   18.5666   21.7554   22.1514 H   0  0  0  0  0  0  0  0  0  0  0  0
   20.1978   22.1691   22.6383 H   0  0  0  0  0  0  0  0  0  0  0  0
   19.3461   20.4871   23.7157 C   0  0  0  0  0  0  0  0  0  0  0  0
   19.2546   21.1878   24.5561 H   0  0  0  0  0  0  0  0  0  0  0  0
   18.3850   19.9591   23.6675 H   0  0  0  0  0  0  0  0  0  0  0  0
   20.4700   19.4667   24.0057 C   0  0  0  0  0  0  0  0  0  0  0  0
   21.4328   19.8684   23.6585 H   0  0  0  0  0  0  0  0  0  0  0  0
   20.2108   18.0984   23.3357 C   0  0  0  0  0  0  0  0  0  0  0  0
   20.8901   17.3575   23.7778 H   0  0  0  0  0  0  0  0  0  0  0  0
   19.1958   17.7607   23.5825 H   0  0  0  0  0  0  0  0  0  0  0  0
   20.4017   18.0695   21.8003 C   0  0  0  0  0  0  0  0  0  0  0  0
   20.1280   17.0688   21.4395 H   0  0  0  0  0  0  0  0  0  0  0  0
   21.4677   18.1915   21.5641 H   0  0  0  0  0  0  0  0  0  0  0  0
   20.5337   19.2578   25.4110 O   0  0  0  0  0  0  0  0  0  0  0  0
   20.7547   20.1232   25.8147 H   0  0  0  0  0  0  0  0  0  0  0  0
  1  2  1  0  0  0  0
  1  3  1  0  0  0  0
  1  4  1  0  0  0  0
  4  5  1  0  0  0  0
  4  6  1  0  0  0  0
  4  7  1  0  0  0  0
  7  8  1  0  0  0  0
  7  9  1  0  0  0  0
  7 10  1  0  0  0  0
 10 11  1  0  0  0  0
 10 12  1  0  0  0  0
 10 13  1  0  0  0  0
 13 14  1  0  0  0  0
 13 15  1  0  0  0  0
 15 16  1  0  0  0  0
 15 17  1  0  0  0  0
  1 18  1  0  0  0  0
 15 18  1  0  0  0  0
 18 19  1  0  0  0  0
 18 20  1  0  0  0  0
 13 21  1  0  0  0  0
 21 22  1  0  0  0  0
M  END
> <VM2 Rank>
8

> <Conf_Id>
543

> <Probability>
4.61

> <Sum Probability>
47.90

> <Delta G>
0.327

> <G>
47.689

> <E>
21.017

> <-TS>
26.672

> <U+W>
3.132

> <U>
5.406

> <W>
-2.274

> <W(PB)>
-4.290

> <W(SA)>
2.016

> <Valence>
12.011

> <Coulomb>
-8.863

> <VdW>
2.258

> <VdW6>
-8.944

> <VdW12>
11.203

> <Bond>
0.224

> <Angle>
2.419

> <Pdih>
9.368

> <Idih>
0.000

> <Tether>
0.000

$$$$
VeraChem MOL file


 22 22  0  0  0  0  0  0  0  0999 V2000     
   20.3926   19.2599   20.9703 C   0  0  0  0  0  0  0  0  0  0  0  0
   21.3939   19.6894   21.1100 H   0  0  0  0  0  0  0  0  0  0  0  0
   20.3464   18.9625   19.9137 H   0  0  0  0  0  0  0  0  0  0  0  0
   19.3247   20.3480   21.2309 C   0  0  0  0  0  0  0  0  0  0  0  0
   19.2149   20.9431   20.3140 H   0  0  0  0  0  0  0  0  0  0  0  0
   18.3418   19.8947   21.4185 H   0  0  0  0  0  0  0  0  0  0  0  0
   19.7148   21.3145   22.3750 C   0  0  0  0  0  0  0  0  0  0  0  0
   19.0440   22.1839   22.3432 H   0  0  0  0  0  0  0  0  0  0  0  0
   20.7238   21.7083   22.1914 H   0  0  0  0  0  0  0  0  0  0  0  0
   19.6525   20.7082   23.7974 C   0  0  0  0  0  0  0  0  0  0  0  0
   20.0105   21.4658   24.5069 H   0  0  0  0  0  0  0  0  0  0  0  0
   18.6055   20.5160   24.0654 H   0  0  0  0  0  0  0  0  0  0  0  0
   20.4758   19.4159   23.9987 C   0  0  0  0  0  0  0  0  0  0  0  0
   21.4938   19.5657   23.6112 H   0  0  0  0  0  0  0  0  0  0  0  0
   19.8314   18.1930   23.3076 C   0  0  0  0  0  0  0  0  0  0  0  0
   20.0804   17.2788   23.8625 H   0  0  0  0  0  0  0  0  0  0  0  0
   18.7388   18.2825   23.3644 H   0  0  0  0  0  0  0  0  0  0  0  0
   20.2502   17.9818   21.8318 C   0  0  0  0  0  0  0  0  0  0  0  0
   21.2065   17.4416   21.8042 H   0  0  0  0  0  0  0  0  0  0  0  0
   19.5165   17.3134   21.3607 H   0  0  0  0  0  0  0  0  0  0  0  0
   20.5441   19.1568   25.3954 O   0  0  0  0  0  0  0  0  0  0  0  0
   21.1158   18.3687   25.5081 H   0  0  0  0  0  0  0  0  0  0  0  0
  1  2  1  0  0  0  0
  1  3  1  0  0  0  0
  1  4  1  0  0  0  0
  4  5  1  0  0  0  0
  4  6  1  0  0  0  0
  4  7  1  0  0  0  0
  7  8  1  0  0  0  0
  7  9  1  0  0  0  0
  7 10  1  0  0  0  0
 10 11  1  0  0  0  0
 10 12  1  0  0  0  0
 10 13  1  0  0  0  0
 13 14  1  0  0  0  0
 13 15  1  0  0  0  0
 15 16  1  0  0  0  0
 15 17  1  0  0  0  0
  1 18  1  0  0  0  0
 15 18  1  0  0  0  0
 18 19  1  0  0  0  0
 18 20  1  0  0  0  0
 13 21  1  0  0  0  0
 21 22  1  0  0  0  0
M  END
> <VM2 Rank>
9

> <Conf_Id>
490

> <Probability>
4.53

> <Sum Probability>
52.43

> <Delta G>
0.338

> <G>
47.701

> <E>
21.028

> <-TS>
26.672

> <U+W>
3.143

> <U>
5.406

> <W>
-2.262

> <W(PB)>
-4.270

> <W(SA)>
2.008

> <Valence>
12.011

> <Coulomb>
-8.863

> <VdW>
2.258

> <VdW6>
-8.944

> <VdW12>
11.203

> <Bond>
0.224

> <Angle>
2.419

> <Pdih>
9.368

> <Idih>
0.000

> <Tether>
0.000

$$$$
VeraChem MOL file


 22 22  0  0  0  0  0  0  0  0999 V2000     
   20.3549   19.2282   20.9937 C   0  0  0  0  0  0  0  0  0  0  0  0
   21.4130   19.4312   21.2081 H   0  0  0  0  0  0  0  0  0  0  0  0
   20.3156   18.8922   19.9485 H   0  0  0  0  0  0  0  0  0  0  0  0
   19.5105   20.5204   21.1037 C   0  0  0  0  0  0  0  0  0  0  0  0
   19.7899   21.1921   20.2805 H   0  0  0  0  0  0  0  0  0  0  0  0
   18.4508   20.2782   20.9448 H   0  0  0  0  0  0  0  0  0  0  0  0
   19.6645   21.2960   22.4321 C   0  0  0  0  0  0  0  0  0  0  0  0
   18.9729   22.1493   22.4128 H   0  0  0  0  0  0  0  0  0  0  0  0
   20.6727   21.7289   22.4875 H   0  0  0  0  0  0  0  0  0  0  0  0
   19.3897   20.4661   23.7100 C   0  0  0  0  0  0  0  0  0  0  0  0
   19.3076   21.1694   24.5496 H   0  0  0  0  0  0  0  0  0  0  0  0
   18.4203   19.9562   23.6382 H   0  0  0  0  0  0  0  0  0  0  0  0
   20.5170   19.4562   24.0205 C   0  0  0  0  0  0  0  0  0  0  0  0
   21.4701   19.8969   23.6952 H   0  0  0  0  0  0  0  0  0  0  0  0
   20.3597   18.0783   23.3366 C   0  0  0  0  0  0  0  0  0  0  0  0
   21.3437   17.5917   23.3440 H   0  0  0  0  0  0  0  0  0  0  0  0
   19.7038   17.4378   23.9409 H   0  0  0  0  0  0  0  0  0  0  0  0
   19.8205   18.0827   21.8845 C   0  0  0  0  0  0  0  0  0  0  0  0
   20.0821   17.1208   21.4227 H   0  0  0  0  0  0  0  0  0  0  0  0
   18.7225   18.1126   21.8991 H   0  0  0  0  0  0  0  0  0  0  0  0
   20.5693   19.2500   25.4259 O   0  0  0  0  0  0  0  0  0  0  0  0
   19.6964   18.8890   25.6849 H   0  0  0  0  0  0  0  0  0  0  0  0
  1  2  1  0  0  0  0
  1  3  1  0  0  0  0
  1  4  1  0  0  0  0
  4  5  1  0  0  0  0
  4  6  1  0  0  0  0
  4  7  1  0  0  0  0
  7  8  1  0  0  0  0
  7  9  1  0  0  0  0
  7 10  1  0  0  0  0
 10 11  1  0  0  0  0
 10 12  1  0  0  0  0
 10 13  1  0  0  0  0
 13 14  1  0  0  0  0
 13 15  1  0  0  0  0
 15 16  1  0  0  0  0
 15 17  1  0  0  0  0
  1 18  1  0  0  0  0
 15 18  1  0  0  0  0
 18 19  1  0  0  0  0
 18 20  1  0  0  0  0
 13 21  1  0  0  0  0
 21 22  1  0  0  0  0
M  END
> <VM2 Rank>
10

> <Conf_Id>
587

> <Probability>
4.27

> <Sum Probability>
56.70

> <Delta G>
0.372

> <G>
47.735

> <E>
21.108

> <-TS>
26.627

> <U+W>
3.223

> <U>
5.233

> <W>
-2.010

> <W(PB)>
-4.024

> <W(SA)>
2.014

> <Valence>
12.275

> <Coulomb>
-9.233

> <VdW>
2.191

> <VdW6>
-8.952

> <VdW12>
11.143

> <Bond>
0.217

> <Angle>
2.514

> <Pdih>
9.543

> <Idih>
0.000

> <Tether>
0.000

$$$$
VeraChem MOL file


 22 22  0  0  0  0  0  0  0  0999 V2000     
   19.5782   19.1191   21.0160 C   0  0  0  0  0  0  0  0  0  0  0  0
   19.6437   18.8659   19.9490 H   0  0  0  0  0  0  0  0  0  0  0  0
   18.5133   19.0564   21.2785 H   0  0  0  0  0  0  0  0  0  0  0  0
   20.1065   20.5611   21.1989 C   0  0  0  0  0  0  0  0  0  0  0  0
   21.2035   20.5445   21.2538 H   0  0  0  0  0  0  0  0  0  0  0  0
   19.8671   21.1442   20.2990 H   0  0  0  0  0  0  0  0  0  0  0  0
   19.5362   21.3178   22.4228 C   0  0  0  0  0  0  0  0  0  0  0  0
   18.5648   21.7541   22.1526 H   0  0  0  0  0  0  0  0  0  0  0  0
   20.1964   22.1693   22.6372 H   0  0  0  0  0  0  0  0  0  0  0  0
   19.3484   20.4873   23.7164 C   0  0  0  0  0  0  0  0  0  0  0  0
   19.2665   21.1871   24.5588 H   0  0  0  0  0  0  0  0  0  0  0  0
   18.3855   19.9622   23.6747 H   0  0  0  0  0  0  0  0  0  0  0  0
   20.4710   19.4660   24.0061 C   0  0  0  0  0  0  0  0  0  0  0  0
   21.4330   19.8713   23.6613 H   0  0  0  0  0  0  0  0  0  0  0  0
   20.2116   18.0976   23.3350 C   0  0  0  0  0  0  0  0  0  0  0  0
   20.8879   17.3517   23.7726 H   0  0  0  0  0  0  0  0  0  0  0  0
   19.1950   17.7622   23.5788 H   0  0  0  0  0  0  0  0  0  0  0  0
   20.4033   18.0705   21.7999 C   0  0  0  0  0  0  0  0  0  0  0  0
   21.4690   18.1943   21.5635 H   0  0  0  0  0  0  0  0  0  0  0  0
   20.1310   17.0697   21.4380 H   0  0  0  0  0  0  0  0  0  0  0  0
   20.5310   19.2586   25.4120 O   0  0  0  0  0  0  0  0  0  0  0  0
   21.2792   18.6471   25.5759 H   0  0  0  0  0  0  0  0  0  0  0  0
  1  2  1  0  0  0  0
  1  3  1  0  0  0  0
  1  4  1  0  0  0  0
  4  5  1  0  0  0  0
  4  6  1  0  0  0  0
  4  7  1  0  0  0  0
  7  8  1  0  0  0  0
  7  9  1  0  0  0  0
  7 10  1  0  0  0  0
 10 11  1  0  0  0  0
 10 12  1  0  0  0  0
 10 13  1  0  0  0  0
 13 14  1  0  0  0  0
 13 15  1  0  0  0  0
 15 16  1  0  0  0  0
 15 17  1  0  0  0  0
  1 18  1  0  0  0  0
 15 18  1  0  0  0  0
 18 19  1  0  0  0  0
 18 20  1  0  0  0  0
 13 21  1  0  0  0  0
 21 22  1  0  0  0  0
M  END
> <VM2 Rank>
11

> <Conf_Id>
185

> <Probability>
4.20

> <Sum Probability>
60.90

> <Delta G>
0.382

> <G>
47.745

> <E>
21.097

> <-TS>
26.648

> <U+W>
3.212

> <U>
5.483

> <W>
-2.271

> <W(PB)>
-4.291

> <W(SA)>
2.020

> <Valence>
12.019

> <Coulomb>
-8.788

> <VdW>
2.252

> <VdW6>
-8.933

> <VdW12>
11.185

> <Bond>
0.223

> <Angle>
2.429

> <Pdih>
9.367

> <Idih>
0.000

> <Tether>
0.000

$$$$
VeraChem MOL file


 22 22  0  0  0  0  0  0  0  0999 V2000     
   19.5787   19.1188   21.0163 C   0  0  0  0  0  0  0  0  0  0  0  0
   18.5137   19.0559   21.2779 H   0  0  0  0  0  0  0  0  0  0  0  0
   19.6450   18.8655   19.9494 H   0  0  0  0  0  0  0  0  0  0  0  0
   20.1070   20.5608   21.1994 C   0  0  0  0  0  0  0  0  0  0  0  0
   21.2040   20.5440   21.2544 H   0  0  0  0  0  0  0  0  0  0  0  0
   19.8679   21.1438   20.2994 H   0  0  0  0  0  0  0  0  0  0  0  0
   19.5371   21.3182   22.4231 C   0  0  0  0  0  0  0  0  0  0  0  0
   18.5667   21.7562   22.1522 H   0  0  0  0  0  0  0  0  0  0  0  0
   20.1986   22.1687   22.6377 H   0  0  0  0  0  0  0  0  0  0  0  0
   19.3471   20.4885   23.7168 C   0  0  0  0  0  0  0  0  0  0  0  0
   19.2663   21.1909   24.5574 H   0  0  0  0  0  0  0  0  0  0  0  0
   18.3827   19.9662   23.6717 H   0  0  0  0  0  0  0  0  0  0  0  0
   20.4689   19.4658   24.0055 C   0  0  0  0  0  0  0  0  0  0  0  0
   21.4320   19.8687   23.6612 H   0  0  0  0  0  0  0  0  0  0  0  0
   20.2099   18.0973   23.3353 C   0  0  0  0  0  0  0  0  0  0  0  0
   20.8896   17.3557   23.7759 H   0  0  0  0  0  0  0  0  0  0  0  0
   19.1939   17.7581   23.5757 H   0  0  0  0  0  0  0  0  0  0  0  0
   20.4037   18.0703   21.8006 C   0  0  0  0  0  0  0  0  0  0  0  0
   20.1330   17.0692   21.4381 H   0  0  0  0  0  0  0  0  0  0  0  0
   21.4697   18.1952   21.5660 H   0  0  0  0  0  0  0  0  0  0  0  0
   20.5337   19.2584   25.4101 O   0  0  0  0  0  0  0  0  0  0  0  0
   19.6614   18.9025   25.6777 H   0  0  0  0  0  0  0  0  0  0  0  0
  1  2  1  0  0  0  0
  1  3  1  0  0  0  0
  1  4  1  0  0  0  0
  4  5  1  0  0  0  0
  4  6  1  0  0  0  0
  4  7  1  0  0  0  0
  7  8  1  0  0  0  0
  7  9  1  0  0  0  0
  7 10  1  0  0  0  0
 10 11  1  0  0  0  0
 10 12  1  0  0  0  0
 10 13  1  0  0  0  0
 13 14  1  0  0  0  0
 13 15  1  0  0  0  0
 15 16  1  0  0  0  0
 15 17  1  0  0  0  0
  1 18  1  0  0  0  0
 15 18  1  0  0  0  0
 18 19  1  0  0  0  0
 18 20  1  0  0  0  0
 13 21  1  0  0  0  0
 21 22  1  0  0  0  0
M  END
> <VM2 Rank>
12

> <Conf_Id>
564

> <Probability>
4.06

> <Sum Probability>
64.96

> <Delta G>
0.403

> <G>
47.766

> <E>
21.133

> <-TS>
26.633

> <U+W>
3.248

> <U>
5.336

> <W>
-2.088

> <W(PB)>
-4.098

> <W(SA)>
2.010

> <Valence>
12.390

> <Coulomb>
-9.270

> <VdW>
2.216

> <VdW6>
-8.967

> <VdW12>
11.183

> <Bond>
0.218

> <Angle>
2.427

> <Pdih>
9.745

> <Idih>
0.000

> <Tether>
0.000

$$$$
VeraChem MOL file


 22 22  0  0  0  0  0  0  0  0999 V2000     
   19.6920   18.9841   20.9456 C   0  0  0  0  0  0  0  0  0  0  0  0
   20.4033   18.7526   20.1410 H   0  0  0  0  0  0  0  0  0  0  0  0
   18.6996   18.7373   20.5440 H   0  0  0  0  0  0  0  0  0  0  0  0
   19.7583   20.5048   21.2211 C   0  0  0  0  0  0  0  0  0  0  0  0
   20.7978   20.8485   21.1323 H   0  0  0  0  0  0  0  0  0  0  0  0
   19.2106   21.0183   20.4191 H   0  0  0  0  0  0  0  0  0  0  0  0
   19.1831   20.9502   22.5849 C   0  0  0  0  0  0  0  0  0  0  0  0
   18.2924   20.3638   22.8460 H   0  0  0  0  0  0  0  0  0  0  0  0
   18.8417   21.9895   22.4850 H   0  0  0  0  0  0  0  0  0  0  0  0
   20.2379   20.9107   23.7198 C   0  0  0  0  0  0  0  0  0  0  0  0
   21.1359   21.4523   23.3954 H   0  0  0  0  0  0  0  0  0  0  0  0
   19.8513   21.4740   24.5795 H   0  0  0  0  0  0  0  0  0  0  0  0
   20.6572   19.5089   24.2145 C   0  0  0  0  0  0  0  0  0  0  0  0
   21.5166   19.6488   24.8858 H   0  0  0  0  0  0  0  0  0  0  0  0
   21.0959   18.5204   23.1057 C   0  0  0  0  0  0  0  0  0  0  0  0
   21.9252   18.9507   22.5295 H   0  0  0  0  0  0  0  0  0  0  0  0
   21.5097   17.6351   23.6062 H   0  0  0  0  0  0  0  0  0  0  0  0
   19.9706   18.0492   22.1468 C   0  0  0  0  0  0  0  0  0  0  0  0
   20.2448   17.0642   21.7452 H   0  0  0  0  0  0  0  0  0  0  0  0
   19.0401   17.8800   22.7025 H   0  0  0  0  0  0  0  0  0  0  0  0
   19.5910   18.9496   24.9687 O   0  0  0  0  0  0  0  0  0  0  0  0
   18.8388   18.8915   24.3470 H   0  0  0  0  0  0  0  0  0  0  0  0
  1  2  1  0  0  0  0
  1  3  1  0  0  0  0
  1  4  1  0  0  0  0
  4  5  1  0  0  0  0
  4  6  1  0  0  0  0
  4  7  1  0  0  0  0
  7  8  1  0  0  0  0
  7  9  1  0  0  0  0
  7 10  1  0  0  0  0
 10 11  1  0  0  0  0
 10 12  1  0  0  0  0
 10 13  1  0  0  0  0
 13 14  1  0  0  0  0
 13 15  1  0  0  0  0
 15 16  1  0  0  0  0
 15 17  1  0  0  0  0
  1 18  1  0  0  0  0
 15 18  1  0  0  0  0
 18 19  1  0  0  0  0
 18 20  1  0  0  0  0
 13 21  1  0  0  0  0
 21 22  1  0  0  0  0
M  END
> <VM2 Rank>
13

> <Conf_Id>
293

> <Probability>
3.94

> <Sum Probability>
68.90

> <Delta G>
0.420

> <G>
47.783

> <E>
21.066

> <-TS>
26.717

> <U+W>
3.181

> <U>
4.701

> <W>
-1.520

> <W(PB)>
-3.523

> <W(SA)>
2.003

> <Valence>
12.586

> <Coulomb>
-9.999

> <VdW>
2.114

> <VdW6>
-9.790

> <VdW12>
11.904

> <Bond>
0.257

> <Angle>
3.349

> <Pdih>
8.981

> <Idih>
0.000

> <Tether>
0.000

$$$$
VeraChem MOL file


 22 22  0  0  0  0  0  0  0  0999 V2000     
   19.6690   19.0240   20.9200 C   0  0  0  0  0  0  0  0  0  0  0  0
   19.9330   18.8845   19.8628 H   0  0  0  0  0  0  0  0  0  0  0  0
   18.7063   18.5132   21.0581 H   0  0  0  0  0  0  0  0  0  0  0  0
   19.4869   20.5375   21.1756 C   0  0  0  0  0  0  0  0  0  0  0  0
   20.3823   21.0752   20.8351 H   0  0  0  0  0  0  0  0  0  0  0  0
   18.6639   20.8954   20.5421 H   0  0  0  0  0  0  0  0  0  0  0  0
   19.1817   20.9216   22.6430 C   0  0  0  0  0  0  0  0  0  0  0  0
   18.3288   20.3468   23.0294 H   0  0  0  0  0  0  0  0  0  0  0  0
   18.8713   21.9751   22.6566 H   0  0  0  0  0  0  0  0  0  0  0  0
   20.4110   20.7702   23.5720 C   0  0  0  0  0  0  0  0  0  0  0  0
   21.3190   21.0478   23.0214 H   0  0  0  0  0  0  0  0  0  0  0  0
   20.3325   21.5039   24.3849 H   0  0  0  0  0  0  0  0  0  0  0  0
   20.6078   19.3673   24.1942 C   0  0  0  0  0  0  0  0  0  0  0  0
   21.6596   19.2970   24.5073 H   0  0  0  0  0  0  0  0  0  0  0  0
   20.3076   18.1667   23.2671 C   0  0  0  0  0  0  0  0  0  0  0  0
   20.8193   17.2913   23.6875 H   0  0  0  0  0  0  0  0  0  0  0  0
   19.2362   17.9289   23.3034 H   0  0  0  0  0  0  0  0  0  0  0  0
   20.7462   18.3361   21.7921 C   0  0  0  0  0  0  0  0  0  0  0  0
   20.9256   17.3362   21.3741 H   0  0  0  0  0  0  0  0  0  0  0  0
   21.7038   18.8702   21.7260 H   0  0  0  0  0  0  0  0  0  0  0  0
   19.7756   19.2545   25.3430 O   0  0  0  0  0  0  0  0  0  0  0  0
   19.9989   20.0072   25.9287 H   0  0  0  0  0  0  0  0  0  0  0  0
  1  2  1  0  0  0  0
  1  3  1  0  0  0  0
  1  4  1  0  0  0  0
  4  5  1  0  0  0  0
  4  6  1  0  0  0  0
  4  7  1  0  0  0  0
  7  8  1  0  0  0  0
  7  9  1  0  0  0  0
  7 10  1  0  0  0  0
 10 11  1  0  0  0  0
 10 12  1  0  0  0  0
 10 13  1  0  0  0  0
 13 14  1  0  0  0  0
 13 15  1  0  0  0  0
 15 16  1  0  0  0  0
 15 17  1  0  0  0  0
  1 18  1  0  0  0  0
 15 18  1  0  0  0  0
 18 19  1  0  0  0  0
 18 20  1  0  0  0  0
 13 21  1  0  0  0  0
 21 22  1  0  0  0  0
M  END
> <VM2 Rank>
14

> <Conf_Id>
744

> <Probability>
3.91

> <Sum Probability>
72.80

> <Delta G>
0.425

> <G>
47.788

> <E>
21.137

> <-TS>
26.651

> <U+W>
3.252

> <U>
5.651

> <W>
-2.399

> <W(PB)>
-4.406

> <W(SA)>
2.008

> <Valence>
11.811

> <Coulomb>
-8.308

> <VdW>
2.148

> <VdW6>
-9.144

> <VdW12>
11.292

> <Bond>
0.225

> <Angle>
2.646

> <Pdih>
8.941

> <Idih>
0.000

> <Tether>
0.000

$$$$
VeraChem MOL file


 22 22  0  0  0  0  0  0  0  0999 V2000     
   19.8804   19.0486   20.9018 C   0  0  0  0  0  0  0  0  0  0  0  0
   20.8901   19.1538   20.4820 H   0  0  0  0  0  0  0  0  0  0  0  0
   19.2772   18.5752   20.1153 H   0  0  0  0  0  0  0  0  0  0  0  0
   19.2926   20.4505   21.1821 C   0  0  0  0  0  0  0  0  0  0  0  0
   19.3636   21.0424   20.2595 H   0  0  0  0  0  0  0  0  0  0  0  0
   18.2192   20.3586   21.3970 H   0  0  0  0  0  0  0  0  0  0  0  0
   19.9809   21.2342   22.3250 C   0  0  0  0  0  0  0  0  0  0  0  0
   19.6222   22.2715   22.2817 H   0  0  0  0  0  0  0  0  0  0  0  0
   21.0673   21.2807   22.1695 H   0  0  0  0  0  0  0  0  0  0  0  0
   19.6463   20.6701   23.7274 C   0  0  0  0  0  0  0  0  0  0  0  0
   19.7110   21.4860   24.4588 H   0  0  0  0  0  0  0  0  0  0  0  0
   18.5996   20.3383   23.7462 H   0  0  0  0  0  0  0  0  0  0  0  0
   20.5648   19.5297   24.2241 C   0  0  0  0  0  0  0  0  0  0  0  0
   21.4775   19.9859   24.6340 H   0  0  0  0  0  0  0  0  0  0  0  0
   21.0095   18.5031   23.1552 C   0  0  0  0  0  0  0  0  0  0  0  0
   21.8873   18.8957   22.6259 H   0  0  0  0  0  0  0  0  0  0  0  0
   21.3635   17.5986   23.6670 H   0  0  0  0  0  0  0  0  0  0  0  0
   19.9265   18.1015   22.1244 C   0  0  0  0  0  0  0  0  0  0  0  0
   20.1607   17.0926   21.7588 H   0  0  0  0  0  0  0  0  0  0  0  0
   18.9402   18.0316   22.6034 H   0  0  0  0  0  0  0  0  0  0  0  0
   19.8849   18.8403   25.2669 O   0  0  0  0  0  0  0  0  0  0  0  0
   20.4920   18.1408   25.5858 H   0  0  0  0  0  0  0  0  0  0  0  0
  1  2  1  0  0  0  0
  1  3  1  0  0  0  0
  1  4  1  0  0  0  0
  4  5  1  0  0  0  0
  4  6  1  0  0  0  0
  4  7  1  0  0  0  0
  7  8  1  0  0  0  0
  7  9  1  0  0  0  0
  7 10  1  0  0  0  0
 10 11  1  0  0  0  0
 10 12  1  0  0  0  0
 10 13  1  0  0  0  0
 13 14  1  0  0  0  0
 13 15  1  0  0  0  0
 15 16  1  0  0  0  0
 15 17  1  0  0  0  0
  1 18  1  0  0  0  0
 15 18  1  0  0  0  0
 18 19  1  0  0  0  0
 18 20  1  0  0  0  0
 13 21  1  0  0  0  0
 21 22  1  0  0  0  0
M  END
> <VM2 Rank>
15

> <Conf_Id>
584

> <Probability>
3.70

> <Sum Probability>
76.51

> <Delta G>
0.458

> <G>
47.821

> <E>
21.169

> <-TS>
26.652

> <U+W>
3.284

> <U>
5.651

> <W>
-2.367

> <W(PB)>
-4.373

> <W(SA)>
2.007

> <Valence>
11.811

> <Coulomb>
-8.308

> <VdW>
2.148

> <VdW6>
-9.144

> <VdW12>
11.292

> <Bond>
0.225

> <Angle>
2.645

> <Pdih>
8.941

> <Idih>
0.000

> <Tether>
0.000

$$$$
VeraChem MOL file


 22 22  0  0  0  0  0  0  0  0999 V2000     
   19.8865   19.0518   20.8995 C   0  0  0  0  0  0  0  0  0  0  0  0
   20.8994   19.1572   20.4878 H   0  0  0  0  0  0  0  0  0  0  0  0
   19.2890   18.5803   20.1074 H   0  0  0  0  0  0  0  0  0  0  0  0
   19.2971   20.4533   21.1780 C   0  0  0  0  0  0  0  0  0  0  0  0
   19.3747   21.0469   20.2569 H   0  0  0  0  0  0  0  0  0  0  0  0
   18.2222   20.3614   21.3853 H   0  0  0  0  0  0  0  0  0  0  0  0
   19.9782   21.2341   22.3268 C   0  0  0  0  0  0  0  0  0  0  0  0
   19.6183   22.2712   22.2849 H   0  0  0  0  0  0  0  0  0  0  0  0
   21.0653   21.2824   22.1765 H   0  0  0  0  0  0  0  0  0  0  0  0
   19.6381   20.6648   23.7255 C   0  0  0  0  0  0  0  0  0  0  0  0
   19.6928   21.4820   24.4563 H   0  0  0  0  0  0  0  0  0  0  0  0
   18.5938   20.3250   23.7348 H   0  0  0  0  0  0  0  0  0  0  0  0
   20.5642   19.5302   24.2222 C   0  0  0  0  0  0  0  0  0  0  0  0
   21.4805   19.9898   24.6200 H   0  0  0  0  0  0  0  0  0  0  0  0
   21.0022   18.4961   23.1581 C   0  0  0  0  0  0  0  0  0  0  0  0
   21.8900   18.8736   22.6351 H   0  0  0  0  0  0  0  0  0  0  0  0
   21.3372   17.5904   23.6811 H   0  0  0  0  0  0  0  0  0  0  0  0
   19.9224   18.1024   22.1206 C   0  0  0  0  0  0  0  0  0  0  0  0
   20.1542   17.0932   21.7545 H   0  0  0  0  0  0  0  0  0  0  0  0
   18.9339   18.0351   22.5953 H   0  0  0  0  0  0  0  0  0  0  0  0
   19.8974   18.8453   25.2762 O   0  0  0  0  0  0  0  0  0  0  0  0
   19.6738   19.5179   25.9526 H   0  0  0  0  0  0  0  0  0  0  0  0
  1  2  1  0  0  0  0
  1  3  1  0  0  0  0
  1  4  1  0  0  0  0
  4  5  1  0  0  0  0
  4  6  1  0  0  0  0
  4  7  1  0  0  0  0
  7  8  1  0  0  0  0
  7  9  1  0  0  0  0
  7 10  1  0  0  0  0
 10 11  1  0  0  0  0
 10 12  1  0  0  0  0
 10 13  1  0  0  0  0
 13 14  1  0  0  0  0
 13 15  1  0  0  0  0
 15 16  1  0  0  0  0
 15 17  1  0  0  0  0
  1 18  1  0  0  0  0
 15 18  1  0  0  0  0
 18 19  1  0  0  0  0
 18 20  1  0  0  0  0
 13 21  1  0  0  0  0
 21 22  1  0  0  0  0
M  END
> <VM2 Rank>
16

> <Conf_Id>
573

> <Probability>
3.59

> <Sum Probability>
80.10

> <Delta G>
0.476

> <G>
47.838

> <E>
21.157

> <-TS>
26.682

> <U+W>
3.272

> <U>
5.679

> <W>
-2.407

> <W(PB)>
-4.420

> <W(SA)>
2.013

> <Valence>
11.807

> <Coulomb>
-8.278

> <VdW>
2.149

> <VdW6>
-9.114

> <VdW12>
11.263

> <Bond>
0.224

> <Angle>
2.649

> <Pdih>
8.934

> <Idih>
0.000

> <Tether>
0.000

$$$$
VeraChem MOL file


 22 22  0  0  0  0  0  0  0  0999 V2000     
   19.6743   19.0260   20.9152 C   0  0  0  0  0  0  0  0  0  0  0  0
   18.7090   18.5179   21.0454 H   0  0  0  0  0  0  0  0  0  0  0  0
   19.9453   18.8878   19.8597 H   0  0  0  0  0  0  0  0  0  0  0  0
   19.4952   20.5394   21.1729 C   0  0  0  0  0  0  0  0  0  0  0  0
   20.3950   21.0751   20.8408 H   0  0  0  0  0  0  0  0  0  0  0  0
   18.6784   20.9014   20.5338 H   0  0  0  0  0  0  0  0  0  0  0  0
   19.1796   20.9210   22.6388 C   0  0  0  0  0  0  0  0  0  0  0  0
   18.3249   20.3452   23.0194 H   0  0  0  0  0  0  0  0  0  0  0  0
   18.8679   21.9741   22.6519 H   0  0  0  0  0  0  0  0  0  0  0  0
   20.4023   20.7710   23.5768 C   0  0  0  0  0  0  0  0  0  0  0  0
   21.3130   21.0627   23.0384 H   0  0  0  0  0  0  0  0  0  0  0  0
   20.3080   21.4927   24.3991 H   0  0  0  0  0  0  0  0  0  0  0  0
   20.6067   19.3664   24.1923 C   0  0  0  0  0  0  0  0  0  0  0  0
   21.6620   19.2980   24.4935 H   0  0  0  0  0  0  0  0  0  0  0  0
   20.2961   18.1675   23.2663 C   0  0  0  0  0  0  0  0  0  0  0  0
   20.7982   17.2857   23.6848 H   0  0  0  0  0  0  0  0  0  0  0  0
   19.2217   17.9417   23.2959 H   0  0  0  0  0  0  0  0  0  0  0  0
   20.7432   18.3337   21.7936 C   0  0  0  0  0  0  0  0  0  0  0  0
   21.7033   18.8639   21.7325 H   0  0  0  0  0  0  0  0  0  0  0  0
   20.9206   17.3328   21.3769 H   0  0  0  0  0  0  0  0  0  0  0  0
   19.7887   19.2530   25.3511 O   0  0  0  0  0  0  0  0  0  0  0  0
   19.9738   18.3739   25.7421 H   0  0  0  0  0  0  0  0  0  0  0  0
  1  2  1  0  0  0  0
  1  3  1  0  0  0  0
  1  4  1  0  0  0  0
  4  5  1  0  0  0  0
  4  6  1  0  0  0  0
  4  7  1  0  0  0  0
  7  8  1  0  0  0  0
  7  9  1  0  0  0  0
  7 10  1  0  0  0  0
 10 11  1  0  0  0  0
 10 12  1  0  0  0  0
 10 13  1  0  0  0  0
 13 14  1  0  0  0  0
 13 15  1  0  0  0  0
 15 16  1  0  0  0  0
 15 17  1  0  0  0  0
  1 18  1  0  0  0  0
 15 18  1  0  0  0  0
 18 19  1  0  0  0  0
 18 20  1  0  0  0  0
 13 21  1  0  0  0  0
 21 22  1  0  0  0  0
M  END
> <VM2 Rank>
17

> <Conf_Id>
774

> <Probability>
3.56

> <Sum Probability>
83.65

> <Delta G>
0.481

> <G>
47.844

> <E>
21.162

> <-TS>
26.682

> <U+W>
3.277

> <U>
5.678

> <W>
-2.401

> <W(PB)>
-4.416

> <W(SA)>
2.015

> <Valence>
11.807

> <Coulomb>
-8.278

> <VdW>
2.149

> <VdW6>
-9.114

> <VdW12>
11.263

> <Bond>
0.224

> <Angle>
2.649

> <Pdih>
8.934

> <Idih>
0.000

> <Tether>
0.000

$$$$
VeraChem MOL file


 22 22  0  0  0  0  0  0  0  0999 V2000     
   19.8801   19.0818   20.7941 C   0  0  0  0  0  0  0  0  0  0  0  0
   20.5418   19.3597   19.9623 H   0  0  0  0  0  0  0  0  0  0  0  0
   19.1255   18.4104   20.3620 H   0  0  0  0  0  0  0  0  0  0  0  0
   19.1567   20.3502   21.3072 C   0  0  0  0  0  0  0  0  0  0  0  0
   18.9038   20.9713   20.4370 H   0  0  0  0  0  0  0  0  0  0  0  0
   18.1944   20.0682   21.7559 H   0  0  0  0  0  0  0  0  0  0  0  0
   19.9633   21.2027   22.3137 C   0  0  0  0  0  0  0  0  0  0  0  0
   19.6071   22.2395   22.2432 H   0  0  0  0  0  0  0  0  0  0  0  0
   21.0272   21.2265   22.0411 H   0  0  0  0  0  0  0  0  0  0  0  0
   19.7773   20.7389   23.7798 C   0  0  0  0  0  0  0  0  0  0  0  0
   20.1693   21.5232   24.4403 H   0  0  0  0  0  0  0  0  0  0  0  0
   18.7050   20.6615   24.0034 H   0  0  0  0  0  0  0  0  0  0  0  0
   20.4731   19.4101   24.1462 C   0  0  0  0  0  0  0  0  0  0  0  0
   21.5608   19.5579   24.0827 H   0  0  0  0  0  0  0  0  0  0  0  0
   20.0937   18.2122   23.2471 C   0  0  0  0  0  0  0  0  0  0  0  0
   20.4688   17.2996   23.7290 H   0  0  0  0  0  0  0  0  0  0  0  0
   19.0031   18.1026   23.1883 H   0  0  0  0  0  0  0  0  0  0  0  0
   20.7162   18.2958   21.8327 C   0  0  0  0  0  0  0  0  0  0  0  0
   21.7214   18.7334   21.9019 H   0  0  0  0  0  0  0  0  0  0  0  0
   20.8648   17.2776   21.4480 H   0  0  0  0  0  0  0  0  0  0  0  0
   20.1257   19.0864   25.4863 O   0  0  0  0  0  0  0  0  0  0  0  0
   20.4188   19.8374   26.0437 H   0  0  0  0  0  0  0  0  0  0  0  0
  1  2  1  0  0  0  0
  1  3  1  0  0  0  0
  1  4  1  0  0  0  0
  4  5  1  0  0  0  0
  4  6  1  0  0  0  0
  4  7  1  0  0  0  0
  7  8  1  0  0  0  0
  7  9  1  0  0  0  0
  7 10  1  0  0  0  0
 10 11  1  0  0  0  0
 10 12  1  0  0  0  0
 10 13  1  0  0  0  0
 13 14  1  0  0  0  0
 13 15  1  0  0  0  0
 15 16  1  0  0  0  0
 15 17  1  0  0  0  0
  1 18  1  0  0  0  0
 15 18  1  0  0  0  0
 18 19  1  0  0  0  0
 18 20  1  0  0  0  0
 13 21  1  0  0  0  0
 21 22  1  0  0  0  0
M  END
> <VM2 Rank>
18

> <Conf_Id>
239

> <Probability>
2.94

> <Sum Probability>
86.59

> <Delta G>
0.595

> <G>
47.958

> <E>
21.387

> <-TS>
26.571

> <U+W>
3.502

> <U>
5.864

> <W>
-2.362

> <W(PB)>
-4.366

> <W(SA)>
2.004

> <Valence>
12.328

> <Coulomb>
-8.532

> <VdW>
2.068

> <VdW6>
-8.866

> <VdW12>
10.934

> <Bond>
0.215

> <Angle>
2.565

> <Pdih>
9.548

> <Idih>
0.000

> <Tether>
0.000

$$$$
VeraChem MOL file


 22 22  0  0  0  0  0  0  0  0999 V2000     
   19.8806   19.0818   20.7947 C   0  0  0  0  0  0  0  0  0  0  0  0
   20.5425   19.3588   19.9628 H   0  0  0  0  0  0  0  0  0  0  0  0
   19.1257   18.4105   20.3628 H   0  0  0  0  0  0  0  0  0  0  0  0
   19.1579   20.3512   21.3066 C   0  0  0  0  0  0  0  0  0  0  0  0
   18.9076   20.9726   20.4358 H   0  0  0  0  0  0  0  0  0  0  0  0
   18.1942   20.0708   21.7530 H   0  0  0  0  0  0  0  0  0  0  0  0
   19.9636   21.2031   22.3144 C   0  0  0  0  0  0  0  0  0  0  0  0
   19.6085   22.2403   22.2439 H   0  0  0  0  0  0  0  0  0  0  0  0
   21.0279   21.2261   22.0435 H   0  0  0  0  0  0  0  0  0  0  0  0
   19.7751   20.7385   23.7797 C   0  0  0  0  0  0  0  0  0  0  0  0
   20.1703   21.5188   24.4434 H   0  0  0  0  0  0  0  0  0  0  0  0
   18.7023   20.6670   24.0017 H   0  0  0  0  0  0  0  0  0  0  0  0
   20.4704   19.4095   24.1451 C   0  0  0  0  0  0  0  0  0  0  0  0
   21.5577   19.5597   24.0821 H   0  0  0  0  0  0  0  0  0  0  0  0
   20.0926   18.2102   23.2469 C   0  0  0  0  0  0  0  0  0  0  0  0
   20.4707   17.2979   23.7274 H   0  0  0  0  0  0  0  0  0  0  0  0
   19.0027   18.0972   23.1827 H   0  0  0  0  0  0  0  0  0  0  0  0
   20.7165   18.2959   21.8335 C   0  0  0  0  0  0  0  0  0  0  0  0
   20.8668   17.2783   21.4479 H   0  0  0  0  0  0  0  0  0  0  0  0
   21.7212   18.7346   21.9040 H   0  0  0  0  0  0  0  0  0  0  0  0
   20.1294   19.0877   25.4862 O   0  0  0  0  0  0  0  0  0  0  0  0
   19.1607   18.9442   25.4983 H   0  0  0  0  0  0  0  0  0  0  0  0
  1  2  1  0  0  0  0
  1  3  1  0  0  0  0
  1  4  1  0  0  0  0
  4  5  1  0  0  0  0
  4  6  1  0  0  0  0
  4  7  1  0  0  0  0
  7  8  1  0  0  0  0
  7  9  1  0  0  0  0
  7 10  1  0  0  0  0
 10 11  1  0  0  0  0
 10 12  1  0  0  0  0
 10 13  1  0  0  0  0
 13 14  1  0  0  0  0
 13 15  1  0  0  0  0
 15 16  1  0  0  0  0
 15 17  1  0  0  0  0
  1 18  1  0  0  0  0
 15 18  1  0  0  0  0
 18 19  1  0  0  0  0
 18 20  1  0  0  0  0
 13 21  1  0  0  0  0
 21 22  1  0  0  0  0
M  END
> <VM2 Rank>
19

> <Conf_Id>
763

> <Probability>
2.81

> <Sum Probability>
89.41

> <Delta G>
0.621

> <G>
47.984

> <E>
21.428

> <-TS>
26.556

> <U+W>
3.543

> <U>
5.491

> <W>
-1.948

> <W(PB)>
-3.950

> <W(SA)>
2.002

> <Valence>
12.680

> <Coulomb>
-9.215

> <VdW>
2.026

> <VdW6>
-8.898

> <VdW12>
10.924

> <Bond>
0.211

> <Angle>
2.587

> <Pdih>
9.882

> <Idih>
0.000

> <Tether>
0.000

$$$$
VeraChem MOL file


 22 22  0  0  0  0  0  0  0  0999 V2000     
   19.8801   19.0821   20.7941 C   0  0  0  0  0  0  0  0  0  0  0  0
   20.5416   19.3595   19.9620 H   0  0  0  0  0  0  0  0  0  0  0  0
   19.1253   18.4105   20.3626 H   0  0  0  0  0  0  0  0  0  0  0  0
   19.1571   20.3511   21.3065 C   0  0  0  0  0  0  0  0  0  0  0  0
   18.9057   20.9725   20.4361 H   0  0  0  0  0  0  0  0  0  0  0  0
   18.1941   20.0698   21.7541 H   0  0  0  0  0  0  0  0  0  0  0  0
   19.9628   21.2030   22.3142 C   0  0  0  0  0  0  0  0  0  0  0  0
   19.6059   22.2396   22.2454 H   0  0  0  0  0  0  0  0  0  0  0  0
   21.0268   21.2279   22.0423 H   0  0  0  0  0  0  0  0  0  0  0  0
   19.7764   20.7366   23.7795 C   0  0  0  0  0  0  0  0  0  0  0  0
   20.1682   21.5170   24.4448 H   0  0  0  0  0  0  0  0  0  0  0  0
   18.7046   20.6582   24.0046 H   0  0  0  0  0  0  0  0  0  0  0  0
   20.4730   19.4089   24.1460 C   0  0  0  0  0  0  0  0  0  0  0  0
   21.5602   19.5608   24.0825 H   0  0  0  0  0  0  0  0  0  0  0  0
   20.0935   18.2106   23.2467 C   0  0  0  0  0  0  0  0  0  0  0  0
   20.4666   17.2942   23.7225 H   0  0  0  0  0  0  0  0  0  0  0  0
   19.0027   18.1033   23.1853 H   0  0  0  0  0  0  0  0  0  0  0  0
   20.7167   18.2966   21.8327 C   0  0  0  0  0  0  0  0  0  0  0  0
   20.8671   17.2791   21.4468 H   0  0  0  0  0  0  0  0  0  0  0  0
   21.7212   18.7358   21.9025 H   0  0  0  0  0  0  0  0  0  0  0  0
   20.1264   19.0892   25.4873 O   0  0  0  0  0  0  0  0  0  0  0  0
   20.6244   18.2786   25.7227 H   0  0  0  0  0  0  0  0  0  0  0  0
  1  2  1  0  0  0  0
  1  3  1  0  0  0  0
  1  4  1  0  0  0  0
  4  5  1  0  0  0  0
  4  6  1  0  0  0  0
  4  7  1  0  0  0  0
  7  8  1  0  0  0  0
  7  9  1  0  0  0  0
  7 10  1  0  0  0  0
 10 11  1  0  0  0  0
 10 12  1  0  0  0  0
 10 13  1  0  0  0  0
 13 14  1  0  0  0  0
 13 15  1  0  0  0  0
 15 16  1  0  0  0  0
 15 17  1  0  0  0  0
  1 18  1  0  0  0  0
 15 18  1  0  0  0  0
 18 19  1  0  0  0  0
 18 20  1  0  0  0  0
 13 21  1  0  0  0  0
 21 22  1  0  0  0  0
M  END
> <VM2 Rank>
20

> <Conf_Id>
529

> <Probability>
2.71

> <Sum Probability>
92.12

> <Delta G>
0.644

> <G>
48.006

> <E>
21.436

> <-TS>
26.571

> <U+W>
3.551

> <U>
5.847

> <W>
-2.297

> <W(PB)>
-4.297

> <W(SA)>
2.000

> <Valence>
12.333

> <Coulomb>
-8.545

> <VdW>
2.059

> <VdW6>
-8.868

> <VdW12>
10.927

> <Bond>
0.215

> <Angle>
2.565

> <Pdih>
9.553

> <Idih>
0.000

> <Tether>
0.000

$$$$
VeraChem MOL file


 22 22  0  0  0  0  0  0  0  0999 V2000     
   19.3351   18.8676   21.4058 C   0  0  0  0  0  0  0  0  0  0  0  0
   19.0813   18.4640   20.4159 H   0  0  0  0  0  0  0  0  0  0  0  0
   18.5656   18.4871   22.0896 H   0  0  0  0  0  0  0  0  0  0  0  0
   19.2862   20.4099   21.3048 C   0  0  0  0  0  0  0  0  0  0  0  0
   20.0896   20.7531   20.6387 H   0  0  0  0  0  0  0  0  0  0  0  0
   18.3479   20.6998   20.8124 H   0  0  0  0  0  0  0  0  0  0  0  0
   19.3825   21.1696   22.6472 C   0  0  0  0  0  0  0  0  0  0  0  0
   18.4497   21.0433   23.2121 H   0  0  0  0  0  0  0  0  0  0  0  0
   19.4343   22.2430   22.4198 H   0  0  0  0  0  0  0  0  0  0  0  0
   20.6064   20.8057   23.5326 C   0  0  0  0  0  0  0  0  0  0  0  0
   21.5331   20.9117   22.9540 H   0  0  0  0  0  0  0  0  0  0  0  0
   20.6718   21.5526   24.3344 H   0  0  0  0  0  0  0  0  0  0  0  0
   20.5669   19.4110   24.2059 C   0  0  0  0  0  0  0  0  0  0  0  0
   21.2624   19.4368   25.0571 H   0  0  0  0  0  0  0  0  0  0  0  0
   21.0089   18.2280   23.3105 C   0  0  0  0  0  0  0  0  0  0  0  0
   22.0886   18.0831   23.4455 H   0  0  0  0  0  0  0  0  0  0  0  0
   20.5450   17.3080   23.6911 H   0  0  0  0  0  0  0  0  0  0  0  0
   20.7349   18.3368   21.7895 C   0  0  0  0  0  0  0  0  0  0  0  0
   21.5059   18.9627   21.3199 H   0  0  0  0  0  0  0  0  0  0  0  0
   20.8641   17.3370   21.3530 H   0  0  0  0  0  0  0  0  0  0  0  0
   19.2652   19.1495   24.7107 O   0  0  0  0  0  0  0  0  0  0  0  0
   18.6838   19.1913   23.9252 H   0  0  0  0  0  0  0  0  0  0  0  0
  1  2  1  0  0  0  0
  1  3  1  0  0  0  0
  1  4  1  0  0  0  0
  4  5  1  0  0  0  0
  4  6  1  0  0  0  0
  4  7  1  0  0  0  0
  7  8  1  0  0  0  0
  7  9  1  0  0  0  0
  7 10  1  0  0  0  0
 10 11  1  0  0  0  0
 10 12  1  0  0  0  0
 10 13  1  0  0  0  0
 13 14  1  0  0  0  0
 13 15  1  0  0  0  0
 15 16  1  0  0  0  0
 15 17  1  0  0  0  0
  1 18  1  0  0  0  0
 15 18  1  0  0  0  0
 18 19  1  0  0  0  0
 18 20  1  0  0  0  0
 13 21  1  0  0  0  0
 21 22  1  0  0  0  0
M  END
> <VM2 Rank>
21

> <Conf_Id>
334

> <Probability>
2.03

> <Sum Probability>
94.14

> <Delta G>
0.816

> <G>
48.179

> <E>
21.156

> <-TS>
27.023

> <U+W>
3.271

> <U>
4.573

> <W>
-1.301

> <W(PB)>
-3.281

> <W(SA)>
1.980

> <Valence>
12.697

> <Coulomb>
-10.358

> <VdW>
2.234

> <VdW6>
-10.225

> <VdW12>
12.459

> <Bond>
0.281

> <Angle>
3.786

> <Pdih>
8.630

> <Idih>
0.000

> <Tether>
0.000

$$$$
VeraChem MOL file


 22 22  0  0  0  0  0  0  0  0999 V2000     
   19.7106   18.9956   21.0428 C   0  0  0  0  0  0  0  0  0  0  0  0
   20.5283   19.3345   20.3920 H   0  0  0  0  0  0  0  0  0  0  0  0
   19.0124   18.4578   20.3869 H   0  0  0  0  0  0  0  0  0  0  0  0
   18.9857   20.2286   21.6307 C   0  0  0  0  0  0  0  0  0  0  0  0
   18.4944   20.7505   20.7981 H   0  0  0  0  0  0  0  0  0  0  0  0
   18.1798   19.9307   22.3136 H   0  0  0  0  0  0  0  0  0  0  0  0
   19.9532   21.2245   22.3095 C   0  0  0  0  0  0  0  0  0  0  0  0
   19.5318   22.2358   22.2278 H   0  0  0  0  0  0  0  0  0  0  0  0
   20.8987   21.2557   21.7512 H   0  0  0  0  0  0  0  0  0  0  0  0
   20.2424   20.9520   23.8070 C   0  0  0  0  0  0  0  0  0  0  0  0
   21.1100   21.5597   24.0952 H   0  0  0  0  0  0  0  0  0  0  0  0
   19.4077   21.3388   24.4072 H   0  0  0  0  0  0  0  0  0  0  0  0
   20.5185   19.4887   24.2300 C   0  0  0  0  0  0  0  0  0  0  0  0
   21.1911   19.5351   25.0985 H   0  0  0  0  0  0  0  0  0  0  0  0
   21.2049   18.6049   23.1587 C   0  0  0  0  0  0  0  0  0  0  0  0
   22.0160   19.1674   22.6785 H   0  0  0  0  0  0  0  0  0  0  0  0
   21.6929   17.7746   23.6855 H   0  0  0  0  0  0  0  0  0  0  0  0
   20.2699   17.9941   22.0785 C   0  0  0  0  0  0  0  0  0  0  0  0
   20.8373   17.2297   21.5303 H   0  0  0  0  0  0  0  0  0  0  0  0
   19.4424   17.4493   22.5514 H   0  0  0  0  0  0  0  0  0  0  0  0
   19.3009   18.8896   24.6497 O   0  0  0  0  0  0  0  0  0  0  0  0
   18.7651   18.8240   23.8340 H   0  0  0  0  0  0  0  0  0  0  0  0
  1  2  1  0  0  0  0
  1  3  1  0  0  0  0
  1  4  1  0  0  0  0
  4  5  1  0  0  0  0
  4  6  1  0  0  0  0
  4  7  1  0  0  0  0
  7  8  1  0  0  0  0
  7  9  1  0  0  0  0
  7 10  1  0  0  0  0
 10 11  1  0  0  0  0
 10 12  1  0  0  0  0
 10 13  1  0  0  0  0
 13 14  1  0  0  0  0
 13 15  1  0  0  0  0
 15 16  1  0  0  0  0
 15 17  1  0  0  0  0
  1 18  1  0  0  0  0
 15 18  1  0  0  0  0
 18 19  1  0  0  0  0
 18 20  1  0  0  0  0
 13 21  1  0  0  0  0
 21 22  1  0  0  0  0
M  END
> <VM2 Rank>
22

> <Conf_Id>
482

> <Probability>
1.83

> <Sum Probability>
95.98

> <Delta G>
0.877

> <G>
48.240

> <E>
21.217

> <-TS>
27.023

> <U+W>
3.333

> <U>
4.573

> <W>
-1.240

> <W(PB)>
-3.234

> <W(SA)>
1.993

> <Valence>
12.697

> <Coulomb>
-10.358

> <VdW>
2.234

> <VdW6>
-10.225

> <VdW12>
12.459

> <Bond>
0.281

> <Angle>
3.786

> <Pdih>
8.630

> <Idih>
0.000

> <Tether>
0.000

$$$$
VeraChem MOL file


 22 22  0  0  0  0  0  0  0  0999 V2000     
   20.1030   19.1814   20.9748 C   0  0  0  0  0  0  0  0  0  0  0  0
   21.1632   19.4439   20.8587 H   0  0  0  0  0  0  0  0  0  0  0  0
   19.7980   18.7575   20.0084 H   0  0  0  0  0  0  0  0  0  0  0  0
   19.2759   20.4670   21.2154 C   0  0  0  0  0  0  0  0  0  0  0  0
   19.7108   21.2737   20.6096 H   0  0  0  0  0  0  0  0  0  0  0  0
   18.2604   20.3152   20.8248 H   0  0  0  0  0  0  0  0  0  0  0  0
   19.1583   20.9435   22.6828 C   0  0  0  0  0  0  0  0  0  0  0  0
   18.3448   20.3978   23.1787 H   0  0  0  0  0  0  0  0  0  0  0  0
   18.8388   21.9943   22.6714 H   0  0  0  0  0  0  0  0  0  0  0  0
   20.4619   20.8272   23.5149 C   0  0  0  0  0  0  0  0  0  0  0  0
   21.3290   21.0802   22.8912 H   0  0  0  0  0  0  0  0  0  0  0  0
   20.4338   21.5883   24.3053 H   0  0  0  0  0  0  0  0  0  0  0  0
   20.6878   19.4541   24.1962 C   0  0  0  0  0  0  0  0  0  0  0  0
   21.5751   19.5536   24.8380 H   0  0  0  0  0  0  0  0  0  0  0  0
   20.9651   18.2789   23.2313 C   0  0  0  0  0  0  0  0  0  0  0  0
   21.9763   18.3908   22.8196 H   0  0  0  0  0  0  0  0  0  0  0  0
   20.9884   17.3541   23.8225 H   0  0  0  0  0  0  0  0  0  0  0  0
   19.9583   18.0963   22.0672 C   0  0  0  0  0  0  0  0  0  0  0  0
   20.1546   17.1193   21.6055 H   0  0  0  0  0  0  0  0  0  0  0  0
   18.9277   18.0533   22.4452 H   0  0  0  0  0  0  0  0  0  0  0  0
   19.5757   19.1296   25.0244 O   0  0  0  0  0  0  0  0  0  0  0  0
   19.4028   19.9167   25.5802 H   0  0  0  0  0  0  0  0  0  0  0  0
  1  2  1  0  0  0  0
  1  3  1  0  0  0  0
  1  4  1  0  0  0  0
  4  5  1  0  0  0  0
  4  6  1  0  0  0  0
  4  7  1  0  0  0  0
  7  8  1  0  0  0  0
  7  9  1  0  0  0  0
  7 10  1  0  0  0  0
 10 11  1  0  0  0  0
 10 12  1  0  0  0  0
 10 13  1  0  0  0  0
 13 14  1  0  0  0  0
 13 15  1  0  0  0  0
 15 16  1  0  0  0  0
 15 17  1  0  0  0  0
  1 18  1  0  0  0  0
 15 18  1  0  0  0  0
 18 19  1  0  0  0  0
 18 20  1  0  0  0  0
 13 21  1  0  0  0  0
 21 22  1  0  0  0  0
M  END
> <VM2 Rank>
23

> <Conf_Id>
240

> <Probability>
0.85

> <Sum Probability>
96.82

> <Delta G>
1.336

> <G>
48.699

> <E>
21.997

> <-TS>
26.702

> <U+W>
4.112

> <U>
6.373

> <W>
-2.261

> <W(PB)>
-4.261

> <W(SA)>
1.999

> <Valence>
12.093

> <Coulomb>
-8.059

> <VdW>
2.339

> <VdW6>
-9.683

> <VdW12>
12.022

> <Bond>
0.268

> <Angle>
3.005

> <Pdih>
8.820

> <Idih>
0.000

> <Tether>
0.000

$$$$
VeraChem MOL file


 22 22  0  0  0  0  0  0  0  0999 V2000     
   19.7055   18.9857   20.9388 C   0  0  0  0  0  0  0  0  0  0  0  0
   20.4349   18.7539   20.1507 H   0  0  0  0  0  0  0  0  0  0  0  0
   18.7222   18.7347   20.5181 H   0  0  0  0  0  0  0  0  0  0  0  0
   19.7590   20.5073   21.2155 C   0  0  0  0  0  0  0  0  0  0  0  0
   20.7957   20.8595   21.1283 H   0  0  0  0  0  0  0  0  0  0  0  0
   19.2072   21.0175   20.4143 H   0  0  0  0  0  0  0  0  0  0  0  0
   19.1802   20.9447   22.5812 C   0  0  0  0  0  0  0  0  0  0  0  0
   18.2993   20.3440   22.8460 H   0  0  0  0  0  0  0  0  0  0  0  0
   18.8255   21.9798   22.4855 H   0  0  0  0  0  0  0  0  0  0  0  0
   20.2331   20.9099   23.7180 C   0  0  0  0  0  0  0  0  0  0  0  0
   21.1288   21.4568   23.3971 H   0  0  0  0  0  0  0  0  0  0  0  0
   19.8391   21.4680   24.5775 H   0  0  0  0  0  0  0  0  0  0  0  0
   20.6567   19.5085   24.2140 C   0  0  0  0  0  0  0  0  0  0  0  0
   21.5233   19.6547   24.8748 H   0  0  0  0  0  0  0  0  0  0  0  0
   21.0921   18.5200   23.1032 C   0  0  0  0  0  0  0  0  0  0  0  0
   21.9170   18.9527   22.5225 H   0  0  0  0  0  0  0  0  0  0  0  0
   21.5104   17.6325   23.5953 H   0  0  0  0  0  0  0  0  0  0  0  0
   19.9586   18.0578   22.1509 C   0  0  0  0  0  0  0  0  0  0  0  0
   20.2059   17.0595   21.7653 H   0  0  0  0  0  0  0  0  0  0  0  0
   19.0239   17.9291   22.7124 H   0  0  0  0  0  0  0  0  0  0  0  0
   19.6009   18.9442   24.9853 O   0  0  0  0  0  0  0  0  0  0  0  0
   19.8887   18.0422   25.2341 H   0  0  0  0  0  0  0  0  0  0  0  0
  1  2  1  0  0  0  0
  1  3  1  0  0  0  0
  1  4  1  0  0  0  0
  4  5  1  0  0  0  0
  4  6  1  0  0  0  0
  4  7  1  0  0  0  0
  7  8  1  0  0  0  0
  7  9  1  0  0  0  0
  7 10  1  0  0  0  0
 10 11  1  0  0  0  0
 10 12  1  0  0  0  0
 10 13  1  0  0  0  0
 13 14  1  0  0  0  0
 13 15  1  0  0  0  0
 15 16  1  0  0  0  0
 15 17  1  0  0  0  0
  1 18  1  0  0  0  0
 15 18  1  0  0  0  0
 18 19  1  0  0  0  0
 18 20  1  0  0  0  0
 13 21  1  0  0  0  0
 21 22  1  0  0  0  0
M  END
> <VM2 Rank>
24

> <Conf_Id>
844

> <Probability>
0.82

> <Sum Probability>
97.64

> <Delta G>
1.358

> <G>
48.721

> <E>
22.019

> <-TS>
26.702

> <U+W>
4.134

> <U>
6.374

> <W>
-2.240

> <W(PB)>
-4.254

> <W(SA)>
2.015

> <Valence>
12.093

> <Coulomb>
-8.058

> <VdW>
2.339

> <VdW6>
-9.683

> <VdW12>
12.022

> <Bond>
0.268

> <Angle>
3.005

> <Pdih>
8.820

> <Idih>
0.000

> <Tether>
0.000

$$$$
VeraChem MOL file


 22 22  0  0  0  0  0  0  0  0999 V2000     
   19.9737   19.1892   21.0686 C   0  0  0  0  0  0  0  0  0  0  0  0
   20.9122   19.7044   20.8237 H   0  0  0  0  0  0  0  0  0  0  0  0
   19.5884   18.7909   20.1202 H   0  0  0  0  0  0  0  0  0  0  0  0
   18.9267   20.1797   21.6282 C   0  0  0  0  0  0  0  0  0  0  0  0
   18.4366   20.6927   20.7896 H   0  0  0  0  0  0  0  0  0  0  0  0
   18.1299   19.6153   22.1314 H   0  0  0  0  0  0  0  0  0  0  0  0
   19.4780   21.2574   22.5935 C   0  0  0  0  0  0  0  0  0  0  0  0
   18.6475   21.6186   23.2148 H   0  0  0  0  0  0  0  0  0  0  0  0
   19.8034   22.1245   22.0029 H   0  0  0  0  0  0  0  0  0  0  0  0
   20.6571   20.8389   23.5112 C   0  0  0  0  0  0  0  0  0  0  0  0
   21.5904   20.8954   22.9362 H   0  0  0  0  0  0  0  0  0  0  0  0
   20.7613   21.5957   24.2994 H   0  0  0  0  0  0  0  0  0  0  0  0
   20.5775   19.4457   24.1799 C   0  0  0  0  0  0  0  0  0  0  0  0
   21.2569   19.4727   25.0441 H   0  0  0  0  0  0  0  0  0  0  0  0
   21.0843   18.3072   23.2637 C   0  0  0  0  0  0  0  0  0  0  0  0
   22.1068   18.5434   22.9423 H   0  0  0  0  0  0  0  0  0  0  0  0
   21.1665   17.3943   23.8676 H   0  0  0  0  0  0  0  0  0  0  0  0
   20.2271   17.9899   22.0135 C   0  0  0  0  0  0  0  0  0  0  0  0
   20.7342   17.1988   21.4449 H   0  0  0  0  0  0  0  0  0  0  0  0
   19.2663   17.5615   22.3303 H   0  0  0  0  0  0  0  0  0  0  0  0
   19.2617   19.1701   24.6484 O   0  0  0  0  0  0  0  0  0  0  0  0
   18.9318   20.0026   25.0420 H   0  0  0  0  0  0  0  0  0  0  0  0
  1  2  1  0  0  0  0
  1  3  1  0  0  0  0
  1  4  1  0  0  0  0
  4  5  1  0  0  0  0
  4  6  1  0  0  0  0
  4  7  1  0  0  0  0
  7  8  1  0  0  0  0
  7  9  1  0  0  0  0
  7 10  1  0  0  0  0
 10 11  1  0  0  0  0
 10 12  1  0  0  0  0
 10 13  1  0  0  0  0
 13 14  1  0  0  0  0
 13 15  1  0  0  0  0
 15 16  1  0  0  0  0
 15 17  1  0  0  0  0
  1 18  1  0  0  0  0
 15 18  1  0  0  0  0
 18 19  1  0  0  0  0
 18 20  1  0  0  0  0
 13 21  1  0  0  0  0
 21 22  1  0  0  0  0
M  END
> <VM2 Rank>
25

> <Conf_Id>
362

> <Probability>
0.38

> <Sum Probability>
98.02

> <Delta G>
1.815

> <G>
49.178

> <E>
22.505

> <-TS>
26.673

> <U+W>
4.620

> <U>
6.656

> <W>
-2.036

> <W(PB)>
-4.035

> <W(SA)>
2.000

> <Valence>
12.237

> <Coulomb>
-7.546

> <VdW>
1.965

> <VdW6>
-10.135

> <VdW12>
12.100

> <Bond>
0.261

> <Angle>
3.589

> <Pdih>
8.387

> <Idih>
0.000

> <Tether>
0.000

$$$$
VeraChem MOL file


 22 22  0  0  0  0  0  0  0  0999 V2000     
   19.2732   18.8986   21.3989 C   0  0  0  0  0  0  0  0  0  0  0  0
   19.0263   18.5114   20.4010 H   0  0  0  0  0  0  0  0  0  0  0  0
   18.3449   18.8194   21.9809 H   0  0  0  0  0  0  0  0  0  0  0  0
   19.6691   20.3881   21.2761 C   0  0  0  0  0  0  0  0  0  0  0  0
   20.7175   20.4930   20.9664 H   0  0  0  0  0  0  0  0  0  0  0  0
   19.0677   20.8320   20.4712 H   0  0  0  0  0  0  0  0  0  0  0  0
   19.3877   21.1901   22.5696 C   0  0  0  0  0  0  0  0  0  0  0  0
   18.3671   20.9807   22.9179 H   0  0  0  0  0  0  0  0  0  0  0  0
   19.4070   22.2612   22.3271 H   0  0  0  0  0  0  0  0  0  0  0  0
   20.3858   20.9421   23.7275 C   0  0  0  0  0  0  0  0  0  0  0  0
   21.3678   21.3399   23.4409 H   0  0  0  0  0  0  0  0  0  0  0  0
   20.0661   21.5364   24.5932 H   0  0  0  0  0  0  0  0  0  0  0  0
   20.5607   19.4762   24.1888 C   0  0  0  0  0  0  0  0  0  0  0  0
   21.2342   19.5037   25.0576 H   0  0  0  0  0  0  0  0  0  0  0  0
   21.2475   18.5867   23.1250 C   0  0  0  0  0  0  0  0  0  0  0  0
   22.0455   19.1697   22.6475 H   0  0  0  0  0  0  0  0  0  0  0  0
   21.7630   17.7660   23.6404 H   0  0  0  0  0  0  0  0  0  0  0  0
   20.3471   17.9727   22.0205 C   0  0  0  0  0  0  0  0  0  0  0  0
   19.8430   17.0820   22.4194 H   0  0  0  0  0  0  0  0  0  0  0  0
   21.0020   17.6064   21.2183 H   0  0  0  0  0  0  0  0  0  0  0  0
   19.3150   18.9235   24.6006 O   0  0  0  0  0  0  0  0  0  0  0  0
   19.4570   17.9591   24.6806 H   0  0  0  0  0  0  0  0  0  0  0  0
  1  2  1  0  0  0  0
  1  3  1  0  0  0  0
  1  4  1  0  0  0  0
  4  5  1  0  0  0  0
  4  6  1  0  0  0  0
  4  7  1  0  0  0  0
  7  8  1  0  0  0  0
  7  9  1  0  0  0  0
  7 10  1  0  0  0  0
 10 11  1  0  0  0  0
 10 12  1  0  0  0  0
 10 13  1  0  0  0  0
 13 14  1  0  0  0  0
 13 15  1  0  0  0  0
 15 16  1  0  0  0  0
 15 17  1  0  0  0  0
  1 18  1  0  0  0  0
 15 18  1  0  0  0  0
 18 19  1  0  0  0  0
 18 20  1  0  0  0  0
 13 21  1  0  0  0  0
 21 22  1  0  0  0  0
M  END
> <VM2 Rank>
26

> <Conf_Id>
96

> <Probability>
0.36

> <Sum Probability>
98.38

> <Delta G>
1.845

> <G>
49.208

> <E>
22.533

> <-TS>
26.675

> <U+W>
4.648

> <U>
6.656

> <W>
-2.008

> <W(PB)>
-3.999

> <W(SA)>
1.991

> <Valence>
12.237

> <Coulomb>
-7.546

> <VdW>
1.965

> <VdW6>
-10.135

> <VdW12>
12.100

> <Bond>
0.261

> <Angle>
3.589

> <Pdih>
8.386

> <Idih>
0.000

> <Tether>
0.000

$$$$
VeraChem MOL file


 22 22  0  0  0  0  0  0  0  0999 V2000     
   19.7284   19.0023   21.0224 C   0  0  0  0  0  0  0  0  0  0  0  0
   20.5652   19.3326   20.3921 H   0  0  0  0  0  0  0  0  0  0  0  0
   19.0385   18.4715   20.3524 H   0  0  0  0  0  0  0  0  0  0  0  0
   19.0010   20.2360   21.6029 C   0  0  0  0  0  0  0  0  0  0  0  0
   18.5113   20.7605   20.7712 H   0  0  0  0  0  0  0  0  0  0  0  0
   18.1988   19.9281   22.2877 H   0  0  0  0  0  0  0  0  0  0  0  0
   19.9627   21.2248   22.2986 C   0  0  0  0  0  0  0  0  0  0  0  0
   19.5517   22.2392   22.2047 H   0  0  0  0  0  0  0  0  0  0  0  0
   20.9235   21.2458   21.7670 H   0  0  0  0  0  0  0  0  0  0  0  0
   20.2000   20.9485   23.8043 C   0  0  0  0  0  0  0  0  0  0  0  0
   21.0275   21.5896   24.1343 H   0  0  0  0  0  0  0  0  0  0  0  0
   19.3236   21.2930   24.3695 H   0  0  0  0  0  0  0  0  0  0  0  0
   20.5206   19.4926   24.2291 C   0  0  0  0  0  0  0  0  0  0  0  0
   21.2306   19.5673   25.0655 H   0  0  0  0  0  0  0  0  0  0  0  0
   21.1917   18.6044   23.1500 C   0  0  0  0  0  0  0  0  0  0  0  0
   22.0002   19.1633   22.6615 H   0  0  0  0  0  0  0  0  0  0  0  0
   21.6837   17.7719   23.6693 H   0  0  0  0  0  0  0  0  0  0  0  0
   20.2434   18.0004   22.0789 C   0  0  0  0  0  0  0  0  0  0  0  0
   20.7827   17.2021   21.5515 H   0  0  0  0  0  0  0  0  0  0  0  0
   19.3885   17.5081   22.5605 H   0  0  0  0  0  0  0  0  0  0  0  0
   19.3382   18.8689   24.7208 O   0  0  0  0  0  0  0  0  0  0  0  0
   19.5728   17.9365   24.9028 H   0  0  0  0  0  0  0  0  0  0  0  0
  1  2  1  0  0  0  0
  1  3  1  0  0  0  0
  1  4  1  0  0  0  0
  4  5  1  0  0  0  0
  4  6  1  0  0  0  0
  4  7  1  0  0  0  0
  7  8  1  0  0  0  0
  7  9  1  0  0  0  0
  7 10  1  0  0  0  0
 10 11  1  0  0  0  0
 10 12  1  0  0  0  0
 10 13  1  0  0  0  0
 13 14  1  0  0  0  0
 13 15  1  0  0  0  0
 15 16  1  0  0  0  0
 15 17  1  0  0  0  0
  1 18  1  0  0  0  0
 15 18  1  0  0  0  0
 18 19  1  0  0  0  0
 18 20  1  0  0  0  0
 13 21  1  0  0  0  0
 21 22  1  0  0  0  0
M  END
> <VM2 Rank>
27

> <Conf_Id>
270

> <Probability>
0.33

> <Sum Probability>
98.71

> <Delta G>
1.906

> <G>
49.269

> <E>
22.627

> <-TS>
26.642

> <U+W>
4.742

> <U>
6.897

> <W>
-2.155

> <W(PB)>
-4.140

> <W(SA)>
1.985

> <Valence>
12.367

> <Coulomb>
-7.745

> <VdW>
2.276

> <VdW6>
-9.828

> <VdW12>
12.104

> <Bond>
0.281

> <Angle>
3.460

> <Pdih>
8.626

> <Idih>
0.000

> <Tether>
0.000

$$$$
VeraChem MOL file


 22 22  0  0  0  0  0  0  0  0999 V2000     
   19.3491   18.8809   21.3768 C   0  0  0  0  0  0  0  0  0  0  0  0
   19.0984   18.4777   20.3863 H   0  0  0  0  0  0  0  0  0  0  0  0
   18.5780   18.5082   22.0652 H   0  0  0  0  0  0  0  0  0  0  0  0
   19.3027   20.4229   21.2862 C   0  0  0  0  0  0  0  0  0  0  0  0
   20.1206   20.7776   20.6444 H   0  0  0  0  0  0  0  0  0  0  0  0
   18.3735   20.7166   20.7794 H   0  0  0  0  0  0  0  0  0  0  0  0
   19.3626   21.1514   22.6468 C   0  0  0  0  0  0  0  0  0  0  0  0
   18.4331   20.9651   23.2003 H   0  0  0  0  0  0  0  0  0  0  0  0
   19.3755   22.2319   22.4501 H   0  0  0  0  0  0  0  0  0  0  0  0
   20.5936   20.8010   23.5262 C   0  0  0  0  0  0  0  0  0  0  0  0
   21.5154   20.9124   22.9409 H   0  0  0  0  0  0  0  0  0  0  0  0
   20.6604   21.5525   24.3234 H   0  0  0  0  0  0  0  0  0  0  0  0
   20.5705   19.4066   24.2037 C   0  0  0  0  0  0  0  0  0  0  0  0
   21.3087   19.4370   25.0181 H   0  0  0  0  0  0  0  0  0  0  0  0
   20.9704   18.2097   23.3036 C   0  0  0  0  0  0  0  0  0  0  0  0
   22.0366   18.0043   23.4640 H   0  0  0  0  0  0  0  0  0  0  0  0
   20.4459   17.3131   23.6603 H   0  0  0  0  0  0  0  0  0  0  0  0
   20.7423   18.3469   21.7775 C   0  0  0  0  0  0  0  0  0  0  0  0
   21.5243   18.9813   21.3388 H   0  0  0  0  0  0  0  0  0  0  0  0
   20.8809   17.3547   21.3272 H   0  0  0  0  0  0  0  0  0  0  0  0
   19.2946   19.1586   24.7862 O   0  0  0  0  0  0  0  0  0  0  0  0
   19.0540   19.9685   25.2800 H   0  0  0  0  0  0  0  0  0  0  0  0
  1  2  1  0  0  0  0
  1  3  1  0  0  0  0
  1  4  1  0  0  0  0
  4  5  1  0  0  0  0
  4  6  1  0  0  0  0
  4  7  1  0  0  0  0
  7  8  1  0  0  0  0
  7  9  1  0  0  0  0
  7 10  1  0  0  0  0
 10 11  1  0  0  0  0
 10 12  1  0  0  0  0
 10 13  1  0  0  0  0
 13 14  1  0  0  0  0
 13 15  1  0  0  0  0
 15 16  1  0  0  0  0
 15 17  1  0  0  0  0
  1 18  1  0  0  0  0
 15 18  1  0  0  0  0
 18 19  1  0  0  0  0
 18 20  1  0  0  0  0
 13 21  1  0  0  0  0
 21 22  1  0  0  0  0
M  END
> <VM2 Rank>
28

> <Conf_Id>
841

> <Probability>
0.31

> <Sum Probability>
99.02

> <Delta G>
1.938

> <G>
49.300

> <E>
22.659

> <-TS>
26.642

> <U+W>
4.774

> <U>
6.897

> <W>
-2.123

> <W(PB)>
-4.121

> <W(SA)>
1.998

> <Valence>
12.367

> <Coulomb>
-7.745

> <VdW>
2.276

> <VdW6>
-9.828

> <VdW12>
12.104

> <Bond>
0.281

> <Angle>
3.460

> <Pdih>
8.626

> <Idih>
0.000

> <Tether>
0.000

$$$$
VeraChem MOL file


 22 22  0  0  0  0  0  0  0  0999 V2000     
   19.9746   19.1877   21.0672 C   0  0  0  0  0  0  0  0  0  0  0  0
   20.9142   19.7015   20.8235 H   0  0  0  0  0  0  0  0  0  0  0  0
   19.5901   18.7892   20.1185 H   0  0  0  0  0  0  0  0  0  0  0  0
   18.9289   20.1804   21.6243 C   0  0  0  0  0  0  0  0  0  0  0  0
   18.4419   20.6950   20.7849 H   0  0  0  0  0  0  0  0  0  0  0  0
   18.1296   19.6180   22.1258 H   0  0  0  0  0  0  0  0  0  0  0  0
   19.4778   21.2563   22.5932 C   0  0  0  0  0  0  0  0  0  0  0  0
   18.6459   21.6068   23.2192 H   0  0  0  0  0  0  0  0  0  0  0  0
   19.7978   22.1289   22.0080 H   0  0  0  0  0  0  0  0  0  0  0  0
   20.6558   20.8407   23.5138 C   0  0  0  0  0  0  0  0  0  0  0  0
   21.5921   20.9045   22.9449 H   0  0  0  0  0  0  0  0  0  0  0  0
   20.7478   21.5938   24.3068 H   0  0  0  0  0  0  0  0  0  0  0  0
   20.5774   19.4463   24.1805 C   0  0  0  0  0  0  0  0  0  0  0  0
   21.2596   19.4712   25.0425 H   0  0  0  0  0  0  0  0  0  0  0  0
   21.0842   18.3101   23.2609 C   0  0  0  0  0  0  0  0  0  0  0  0
   22.1027   18.5550   22.9327 H   0  0  0  0  0  0  0  0  0  0  0  0
   21.1818   17.3959   23.8604 H   0  0  0  0  0  0  0  0  0  0  0  0
   20.2243   17.9894   22.0139 C   0  0  0  0  0  0  0  0  0  0  0  0
   20.7311   17.1975   21.4460 H   0  0  0  0  0  0  0  0  0  0  0  0
   19.2628   17.5621   22.3293 H   0  0  0  0  0  0  0  0  0  0  0  0
   19.2631   19.1671   24.6532 O   0  0  0  0  0  0  0  0  0  0  0  0
   19.2720   18.2417   24.9703 H   0  0  0  0  0  0  0  0  0  0  0  0
  1  2  1  0  0  0  0
  1  3  1  0  0  0  0
  1  4  1  0  0  0  0
  4  5  1  0  0  0  0
  4  6  1  0  0  0  0
  4  7  1  0  0  0  0
  7  8  1  0  0  0  0
  7  9  1  0  0  0  0
  7 10  1  0  0  0  0
 10 11  1  0  0  0  0
 10 12  1  0  0  0  0
 10 13  1  0  0  0  0
 13 14  1  0  0  0  0
 13 15  1  0  0  0  0
 15 16  1  0  0  0  0
 15 17  1  0  0  0  0
  1 18  1  0  0  0  0
 15 18  1  0  0  0  0
 18 19  1  0  0  0  0
 18 20  1  0  0  0  0
 13 21  1  0  0  0  0
 21 22  1  0  0  0  0
M  END
> <VM2 Rank>
29

> <Conf_Id>
356

> <Probability>
0.18

> <Sum Probability>
99.20

> <Delta G>
2.252

> <G>
49.615

> <E>
22.879

> <-TS>
26.736

> <U+W>
4.994

> <U>
7.115

> <W>
-2.120

> <W(PB)>
-4.114

> <W(SA)>
1.993

> <Valence>
12.146

> <Coulomb>
-6.960

> <VdW>
1.928

> <VdW6>
-10.064

> <VdW12>
11.992

> <Bond>
0.260

> <Angle>
3.626

> <Pdih>
8.260

> <Idih>
0.000

> <Tether>
0.000

$$$$
VeraChem MOL file


 22 22  0  0  0  0  0  0  0  0999 V2000     
   19.2749   18.9003   21.3953 C   0  0  0  0  0  0  0  0  0  0  0  0
   18.3454   18.8187   21.9750 H   0  0  0  0  0  0  0  0  0  0  0  0
   19.0313   18.5136   20.3964 H   0  0  0  0  0  0  0  0  0  0  0  0
   19.6685   20.3903   21.2755 C   0  0  0  0  0  0  0  0  0  0  0  0
   20.7172   20.4968   20.9673 H   0  0  0  0  0  0  0  0  0  0  0  0
   19.0675   20.8348   20.4706 H   0  0  0  0  0  0  0  0  0  0  0  0
   19.3848   21.1889   22.5702 C   0  0  0  0  0  0  0  0  0  0  0  0
   18.3640   20.9784   22.9170 H   0  0  0  0  0  0  0  0  0  0  0  0
   19.4031   22.2603   22.3288 H   0  0  0  0  0  0  0  0  0  0  0  0
   20.3870   20.9405   23.7239 C   0  0  0  0  0  0  0  0  0  0  0  0
   21.3689   21.3316   23.4275 H   0  0  0  0  0  0  0  0  0  0  0  0
   20.0798   21.5446   24.5874 H   0  0  0  0  0  0  0  0  0  0  0  0
   20.5613   19.4753   24.1891 C   0  0  0  0  0  0  0  0  0  0  0  0
   21.2363   19.5067   25.0565 H   0  0  0  0  0  0  0  0  0  0  0  0
   21.2476   18.5840   23.1264 C   0  0  0  0  0  0  0  0  0  0  0  0
   22.0521   19.1607   22.6524 H   0  0  0  0  0  0  0  0  0  0  0  0
   21.7512   17.7590   23.6463 H   0  0  0  0  0  0  0  0  0  0  0  0
   20.3464   17.9737   22.0203 C   0  0  0  0  0  0  0  0  0  0  0  0
   19.8365   17.0896   22.4269 H   0  0  0  0  0  0  0  0  0  0  0  0
   20.9995   17.5988   21.2208 H   0  0  0  0  0  0  0  0  0  0  0  0
   19.3156   18.9249   24.6063 O   0  0  0  0  0  0  0  0  0  0  0  0
   18.9036   19.5856   25.1984 H   0  0  0  0  0  0  0  0  0  0  0  0
  1  2  1  0  0  0  0
  1  3  1  0  0  0  0
  1  4  1  0  0  0  0
  4  5  1  0  0  0  0
  4  6  1  0  0  0  0
  4  7  1  0  0  0  0
  7  8  1  0  0  0  0
  7  9  1  0  0  0  0
  7 10  1  0  0  0  0
 10 11  1  0  0  0  0
 10 12  1  0  0  0  0
 10 13  1  0  0  0  0
 13 14  1  0  0  0  0
 13 15  1  0  0  0  0
 15 16  1  0  0  0  0
 15 17  1  0  0  0  0
  1 18  1  0  0  0  0
 15 18  1  0  0  0  0
 18 19  1  0  0  0  0
 18 20  1  0  0  0  0
 13 21  1  0  0  0  0
 21 22  1  0  0  0  0
M  END
> <VM2 Rank>
30

> <Conf_Id>
848

> <Probability>
0.17

> <Sum Probability>
99.37

> <Delta G>
2.298

> <G>
49.661

> <E>
22.925

> <-TS>
26.736

> <U+W>
5.040

> <U>
7.115

> <W>
-2.075

> <W(PB)>
-4.071

> <W(SA)>
1.997

> <Valence>
12.146

> <Coulomb>
-6.960

> <VdW>
1.928

> <VdW6>
-10.064

> <VdW12>
11.992

> <Bond>
0.260

> <Angle>
3.626

> <Pdih>
8.260

> <Idih>
0.000

> <Tether>
0.000

$$$$
VeraChem MOL file


 22 22  0  0  0  0  0  0  0  0999 V2000     
   19.7288   19.0031   21.0206 C   0  0  0  0  0  0  0  0  0  0  0  0
   19.0392   18.4718   20.3508 H   0  0  0  0  0  0  0  0  0  0  0  0
   20.5664   19.3324   20.3907 H   0  0  0  0  0  0  0  0  0  0  0  0
   19.0013   20.2370   21.5999 C   0  0  0  0  0  0  0  0  0  0  0  0
   18.5136   20.7622   20.7675 H   0  0  0  0  0  0  0  0  0  0  0  0
   18.1977   19.9291   22.2830 H   0  0  0  0  0  0  0  0  0  0  0  0
   19.9633   21.2242   22.2971 C   0  0  0  0  0  0  0  0  0  0  0  0
   19.5548   22.2394   22.2015 H   0  0  0  0  0  0  0  0  0  0  0  0
   20.9252   21.2430   21.7671 H   0  0  0  0  0  0  0  0  0  0  0  0
   20.1979   20.9483   23.8031 C   0  0  0  0  0  0  0  0  0  0  0  0
   21.0272   21.5886   24.1308 H   0  0  0  0  0  0  0  0  0  0  0  0
   19.3228   21.3003   24.3650 H   0  0  0  0  0  0  0  0  0  0  0  0
   20.5202   19.4925   24.2295 C   0  0  0  0  0  0  0  0  0  0  0  0
   21.2333   19.5690   25.0631 H   0  0  0  0  0  0  0  0  0  0  0  0
   21.1913   18.6041   23.1505 C   0  0  0  0  0  0  0  0  0  0  0  0
   22.0046   19.1583   22.6649 H   0  0  0  0  0  0  0  0  0  0  0  0
   21.6734   17.7685   23.6739 H   0  0  0  0  0  0  0  0  0  0  0  0
   20.2423   18.0023   22.0788 C   0  0  0  0  0  0  0  0  0  0  0  0
   20.7785   17.2004   21.5539 H   0  0  0  0  0  0  0  0  0  0  0  0
   19.3874   17.5145   22.5656 H   0  0  0  0  0  0  0  0  0  0  0  0
   19.3408   18.8664   24.7275 O   0  0  0  0  0  0  0  0  0  0  0  0
   18.9854   19.4499   25.4284 H   0  0  0  0  0  0  0  0  0  0  0  0
  1  2  1  0  0  0  0
  1  3  1  0  0  0  0
  1  4  1  0  0  0  0
  4  5  1  0  0  0  0
  4  6  1  0  0  0  0
  4  7  1  0  0  0  0
  7  8  1  0  0  0  0
  7  9  1  0  0  0  0
  7 10  1  0  0  0  0
 10 11  1  0  0  0  0
 10 12  1  0  0  0  0
 10 13  1  0  0  0  0
 13 14  1  0  0  0  0
 13 15  1  0  0  0  0
 15 16  1  0  0  0  0
 15 17  1  0  0  0  0
  1 18  1  0  0  0  0
 15 18  1  0  0  0  0
 18 19  1  0  0  0  0
 18 20  1  0  0  0  0
 13 21  1  0  0  0  0
 21 22  1  0  0  0  0
M  END
> <VM2 Rank>
31

> <Conf_Id>
147

> <Probability>
0.15

> <Sum Probability>
99.52

> <Delta G>
2.377

> <G>
49.740

> <E>
23.113

> <-TS>
26.627

> <U+W>
5.228

> <U>
7.482

> <W>
-2.254

> <W(PB)>
-4.248

> <W(SA)>
1.995

> <Valence>
12.309

> <Coulomb>
-7.084

> <VdW>
2.258

> <VdW6>
-9.770

> <VdW12>
12.028

> <Bond>
0.284

> <Angle>
3.491

> <Pdih>
8.535

> <Idih>
0.000

> <Tether>
0.000

$$$$
VeraChem MOL file


 22 22  0  0  0  0  0  0  0  0999 V2000     
   19.3499   18.8814   21.3735 C   0  0  0  0  0  0  0  0  0  0  0  0
   18.5774   18.5083   22.0600 H   0  0  0  0  0  0  0  0  0  0  0  0
   19.1012   18.4790   20.3822 H   0  0  0  0  0  0  0  0  0  0  0  0
   19.3032   20.4232   21.2845 C   0  0  0  0  0  0  0  0  0  0  0  0
   20.1212   20.7793   20.6435 H   0  0  0  0  0  0  0  0  0  0  0  0
   18.3740   20.7174   20.7780 H   0  0  0  0  0  0  0  0  0  0  0  0
   19.3624   21.1493   22.6463 C   0  0  0  0  0  0  0  0  0  0  0  0
   18.4356   20.9575   23.2032 H   0  0  0  0  0  0  0  0  0  0  0  0
   19.3709   22.2304   22.4532 H   0  0  0  0  0  0  0  0  0  0  0  0
   20.5929   20.8008   23.5270 C   0  0  0  0  0  0  0  0  0  0  0  0
   21.5168   20.9179   22.9466 H   0  0  0  0  0  0  0  0  0  0  0  0
   20.6498   21.5483   24.3286 H   0  0  0  0  0  0  0  0  0  0  0  0
   20.5700   19.4061   24.2041 C   0  0  0  0  0  0  0  0  0  0  0  0
   21.3113   19.4375   25.0157 H   0  0  0  0  0  0  0  0  0  0  0  0
   20.9687   18.2093   23.3021 C   0  0  0  0  0  0  0  0  0  0  0  0
   22.0358   18.0064   23.4607 H   0  0  0  0  0  0  0  0  0  0  0  0
   20.4489   17.3081   23.6530 H   0  0  0  0  0  0  0  0  0  0  0  0
   20.7428   18.3487   21.7762 C   0  0  0  0  0  0  0  0  0  0  0  0
   21.5245   18.9851   21.3399 H   0  0  0  0  0  0  0  0  0  0  0  0
   20.8839   17.3576   21.3240 H   0  0  0  0  0  0  0  0  0  0  0  0
   19.2962   19.1591   24.7934 O   0  0  0  0  0  0  0  0  0  0  0  0
   19.3538   18.2885   25.2368 H   0  0  0  0  0  0  0  0  0  0  0  0
  1  2  1  0  0  0  0
  1  3  1  0  0  0  0
  1  4  1  0  0  0  0
  4  5  1  0  0  0  0
  4  6  1  0  0  0  0
  4  7  1  0  0  0  0
  7  8  1  0  0  0  0
  7  9  1  0  0  0  0
  7 10  1  0  0  0  0
 10 11  1  0  0  0  0
 10 12  1  0  0  0  0
 10 13  1  0  0  0  0
 13 14  1  0  0  0  0
 13 15  1  0  0  0  0
 15 16  1  0  0  0  0
 15 17  1  0  0  0  0
  1 18  1  0  0  0  0
 15 18  1  0  0  0  0
 18 19  1  0  0  0  0
 18 20  1  0  0  0  0
 13 21  1  0  0  0  0
 21 22  1  0  0  0  0
M  END
> <VM2 Rank>
32

> <Conf_Id>
807

> <Probability>
0.14

> <Sum Probability>
99.66

> <Delta G>
2.400

> <G>
49.763

> <E>
23.136

> <-TS>
26.627

> <U+W>
5.252

> <U>
7.482

> <W>
-2.230

> <W(PB)>
-4.220

> <W(SA)>
1.990

> <Valence>
12.309

> <Coulomb>
-7.084

> <VdW>
2.258

> <VdW6>
-9.770

> <VdW12>
12.028

> <Bond>
0.284

> <Angle>
3.491

> <Pdih>
8.535

> <Idih>
0.000

> <Tether>
0.000

$$$$
VeraChem MOL file


 22 22  0  0  0  0  0  0  0  0999 V2000     
   20.6679   19.2304   21.3028 C   0  0  0  0  0  0  0  0  0  0  0  0
   21.5829   19.5746   21.8011 H   0  0  0  0  0  0  0  0  0  0  0  0
   20.9959   18.8885   20.3116 H   0  0  0  0  0  0  0  0  0  0  0  0
   19.6961   20.4232   21.1156 C   0  0  0  0  0  0  0  0  0  0  0  0
   20.2128   21.1783   20.5075 H   0  0  0  0  0  0  0  0  0  0  0  0
   18.8317   20.1023   20.5186 H   0  0  0  0  0  0  0  0  0  0  0  0
   19.1927   21.1114   22.4150 C   0  0  0  0  0  0  0  0  0  0  0  0
   18.1532   20.8196   22.6141 H   0  0  0  0  0  0  0  0  0  0  0  0
   19.1532   22.1944   22.2351 H   0  0  0  0  0  0  0  0  0  0  0  0
   20.0566   20.8492   23.6769 C   0  0  0  0  0  0  0  0  0  0  0  0
   21.1034   21.0948   23.4559 H   0  0  0  0  0  0  0  0  0  0  0  0
   19.7545   21.5627   24.4543 H   0  0  0  0  0  0  0  0  0  0  0  0
   19.9441   19.4226   24.2851 C   0  0  0  0  0  0  0  0  0  0  0  0
   19.3063   19.4981   25.1775 H   0  0  0  0  0  0  0  0  0  0  0  0
   19.3119   18.3444   23.3699 C   0  0  0  0  0  0  0  0  0  0  0  0
   19.2024   17.4185   23.9496 H   0  0  0  0  0  0  0  0  0  0  0  0
   18.2858   18.6394   23.1199 H   0  0  0  0  0  0  0  0  0  0  0  0
   20.0818   18.0171   22.0637 C   0  0  0  0  0  0  0  0  0  0  0  0
   19.4060   17.4682   21.3939 H   0  0  0  0  0  0  0  0  0  0  0  0
   20.9016   17.3230   22.2935 H   0  0  0  0  0  0  0  0  0  0  0  0
   21.2349   18.9797   24.6781 O   0  0  0  0  0  0  0  0  0  0  0  0
   21.7006   18.7767   23.8418 H   0  0  0  0  0  0  0  0  0  0  0  0
  1  2  1  0  0  0  0
  1  3  1  0  0  0  0
  1  4  1  0  0  0  0
  4  5  1  0  0  0  0
  4  6  1  0  0  0  0
  4  7  1  0  0  0  0
  7  8  1  0  0  0  0
  7  9  1  0  0  0  0
  7 10  1  0  0  0  0
 10 11  1  0  0  0  0
 10 12  1  0  0  0  0
 10 13  1  0  0  0  0
 13 14  1  0  0  0  0
 13 15  1  0  0  0  0
 15 16  1  0  0  0  0
 15 17  1  0  0  0  0
  1 18  1  0  0  0  0
 15 18  1  0  0  0  0
 18 19  1  0  0  0  0
 18 20  1  0  0  0  0
 13 21  1  0  0  0  0
 21 22  1  0  0  0  0
M  END
> <VM2 Rank>
33

> <Conf_Id>
838

> <Probability>
0.07

> <Sum Probability>
99.73

> <Delta G>
2.831

> <G>
50.194

> <E>
23.567

> <-TS>
26.627

> <U+W>
5.682

> <U>
7.208

> <W>
-1.526

> <W(PB)>
-3.515

> <W(SA)>
1.990

> <Valence>
13.629

> <Coulomb>
-9.916

> <VdW>
3.495

> <VdW6>
-10.513

> <VdW12>
14.008

> <Bond>
0.431

> <Angle>
3.722

> <Pdih>
9.476

> <Idih>
0.000

> <Tether>
0.000

$$$$
VeraChem MOL file


 22 22  0  0  0  0  0  0  0  0999 V2000     
   19.8748   19.1962   20.9181 C   0  0  0  0  0  0  0  0  0  0  0  0
   20.4520   19.8219   20.2239 H   0  0  0  0  0  0  0  0  0  0  0  0
   19.2884   18.5151   20.2864 H   0  0  0  0  0  0  0  0  0  0  0  0
   18.8740   20.0815   21.7035 C   0  0  0  0  0  0  0  0  0  0  0  0
   18.2029   20.5714   20.9849 H   0  0  0  0  0  0  0  0  0  0  0  0
   18.2204   19.4466   22.3146 H   0  0  0  0  0  0  0  0  0  0  0  0
   19.5173   21.1760   22.5884 C   0  0  0  0  0  0  0  0  0  0  0  0
   18.7355   21.6096   23.2267 H   0  0  0  0  0  0  0  0  0  0  0  0
   19.8655   21.9959   21.9456 H   0  0  0  0  0  0  0  0  0  0  0  0
   20.7030   20.7179   23.4774 C   0  0  0  0  0  0  0  0  0  0  0  0
   21.6216   20.7109   22.8787 H   0  0  0  0  0  0  0  0  0  0  0  0
   20.8767   21.4829   24.2456 H   0  0  0  0  0  0  0  0  0  0  0  0
   20.5416   19.3468   24.1803 C   0  0  0  0  0  0  0  0  0  0  0  0
   21.4379   19.1977   24.7994 H   0  0  0  0  0  0  0  0  0  0  0  0
   20.4189   18.1127   23.2424 C   0  0  0  0  0  0  0  0  0  0  0  0
   21.0434   17.3152   23.6650 H   0  0  0  0  0  0  0  0  0  0  0  0
   19.3965   17.7132   23.2593 H   0  0  0  0  0  0  0  0  0  0  0  0
   20.8539   18.3416   21.7707 C   0  0  0  0  0  0  0  0  0  0  0  0
   21.8564   18.7885   21.7490 H   0  0  0  0  0  0  0  0  0  0  0  0
   20.9690   17.3644   21.2822 H   0  0  0  0  0  0  0  0  0  0  0  0
   19.4024   19.4052   25.0262 O   0  0  0  0  0  0  0  0  0  0  0  0
   18.6697   19.6981   24.4476 H   0  0  0  0  0  0  0  0  0  0  0  0
  1  2  1  0  0  0  0
  1  3  1  0  0  0  0
  1  4  1  0  0  0  0
  4  5  1  0  0  0  0
  4  6  1  0  0  0  0
  4  7  1  0  0  0  0
  7  8  1  0  0  0  0
  7  9  1  0  0  0  0
  7 10  1  0  0  0  0
 10 11  1  0  0  0  0
 10 12  1  0  0  0  0
 10 13  1  0  0  0  0
 13 14  1  0  0  0  0
 13 15  1  0  0  0  0
 15 16  1  0  0  0  0
 15 17  1  0  0  0  0
  1 18  1  0  0  0  0
 15 18  1  0  0  0  0
 18 19  1  0  0  0  0
 18 20  1  0  0  0  0
 13 21  1  0  0  0  0
 21 22  1  0  0  0  0
M  END
> <VM2 Rank>
34

> <Conf_Id>
20

> <Probability>
0.07

> <Sum Probability>
99.79

> <Delta G>
2.851

> <G>
50.214

> <E>
23.587

> <-TS>
26.627

> <U+W>
5.703

> <U>
7.208

> <W>
-1.506

> <W(PB)>
-3.498

> <W(SA)>
1.992

> <Valence>
13.629

> <Coulomb>
-9.915

> <VdW>
3.495

> <VdW6>
-10.513

> <VdW12>
14.008

> <Bond>
0.431

> <Angle>
3.722

> <Pdih>
9.475

> <Idih>
0.000

> <Tether>
0.000

$$$$
VeraChem MOL file


 22 22  0  0  0  0  0  0  0  0999 V2000     
   19.1675   18.9415   21.5024 C   0  0  0  0  0  0  0  0  0  0  0  0
   18.7485   18.4557   20.6106 H   0  0  0  0  0  0  0  0  0  0  0  0
   18.3477   18.9515   22.2315 H   0  0  0  0  0  0  0  0  0  0  0  0
   19.5556   20.3961   21.1343 C   0  0  0  0  0  0  0  0  0  0  0  0
   20.2968   20.3844   20.3237 H   0  0  0  0  0  0  0  0  0  0  0  0
   18.6634   20.8798   20.7136 H   0  0  0  0  0  0  0  0  0  0  0  0
   20.0832   21.2829   22.2966 C   0  0  0  0  0  0  0  0  0  0  0  0
   19.6776   22.2954   22.1653 H   0  0  0  0  0  0  0  0  0  0  0  0
   21.1714   21.4010   22.2125 H   0  0  0  0  0  0  0  0  0  0  0  0
   19.7231   20.7849   23.7213 C   0  0  0  0  0  0  0  0  0  0  0  0
   19.9293   21.5964   24.4311 H   0  0  0  0  0  0  0  0  0  0  0  0
   18.6396   20.6202   23.7837 H   0  0  0  0  0  0  0  0  0  0  0  0
   20.4984   19.5293   24.2113 C   0  0  0  0  0  0  0  0  0  0  0  0
   21.2675   19.8759   24.9165 H   0  0  0  0  0  0  0  0  0  0  0  0
   21.2278   18.7134   23.1149 C   0  0  0  0  0  0  0  0  0  0  0  0
   21.9764   19.3502   22.6288 H   0  0  0  0  0  0  0  0  0  0  0  0
   21.8103   17.9208   23.6026 H   0  0  0  0  0  0  0  0  0  0  0  0
   20.3278   18.0645   22.0309 C   0  0  0  0  0  0  0  0  0  0  0  0
   20.9649   17.7684   21.1864 H   0  0  0  0  0  0  0  0  0  0  0  0
   19.9046   17.1310   22.4262 H   0  0  0  0  0  0  0  0  0  0  0  0
   19.6026   18.6653   24.8954 O   0  0  0  0  0  0  0  0  0  0  0  0
   19.0486   18.2658   24.1948 H   0  0  0  0  0  0  0  0  0  0  0  0
  1  2  1  0  0  0  0
  1  3  1  0  0  0  0
  1  4  1  0  0  0  0
  4  5  1  0  0  0  0
  4  6  1  0  0  0  0
  4  7  1  0  0  0  0
  7  8  1  0  0  0  0
  7  9  1  0  0  0  0
  7 10  1  0  0  0  0
 10 11  1  0  0  0  0
 10 12  1  0  0  0  0
 10 13  1  0  0  0  0
 13 14  1  0  0  0  0
 13 15  1  0  0  0  0
 15 16  1  0  0  0  0
 15 17  1  0  0  0  0
  1 18  1  0  0  0  0
 15 18  1  0  0  0  0
 18 19  1  0  0  0  0
 18 20  1  0  0  0  0
 13 21  1  0  0  0  0
 21 22  1  0  0  0  0
M  END
> <VM2 Rank>
35

> <Conf_Id>
311

> <Probability>
0.07

> <Sum Probability>
99.86

> <Delta G>
2.857

> <G>
50.220

> <E>
23.593

> <-TS>
26.626

> <U+W>
5.708

> <U>
7.208

> <W>
-1.500

> <W(PB)>
-3.490

> <W(SA)>
1.989

> <Valence>
13.629

> <Coulomb>
-9.916

> <VdW>
3.495

> <VdW6>
-10.513

> <VdW12>
14.008

> <Bond>
0.431

> <Angle>
3.722

> <Pdih>
9.476

> <Idih>
0.000

> <Tether>
0.000

$$$$
VeraChem MOL file


 22 22  0  0  0  0  0  0  0  0999 V2000     
   19.9125   19.2200   20.9054 C   0  0  0  0  0  0  0  0  0  0  0  0
   20.5319   19.8613   20.2638 H   0  0  0  0  0  0  0  0  0  0  0  0
   19.3497   18.5711   20.2206 H   0  0  0  0  0  0  0  0  0  0  0  0
   18.8852   20.0933   21.6714 C   0  0  0  0  0  0  0  0  0  0  0  0
   18.2354   20.5941   20.9411 H   0  0  0  0  0  0  0  0  0  0  0  0
   18.2139   19.4512   22.2559 H   0  0  0  0  0  0  0  0  0  0  0  0
   19.4962   21.1724   22.5967 C   0  0  0  0  0  0  0  0  0  0  0  0
   18.7021   21.5531   23.2531 H   0  0  0  0  0  0  0  0  0  0  0  0
   19.8190   22.0263   21.9859 H   0  0  0  0  0  0  0  0  0  0  0  0
   20.6950   20.7139   23.4656 C   0  0  0  0  0  0  0  0  0  0  0  0
   21.6003   20.6995   22.8467 H   0  0  0  0  0  0  0  0  0  0  0  0
   20.8890   21.4829   24.2244 H   0  0  0  0  0  0  0  0  0  0  0  0
   20.5440   19.3438   24.1747 C   0  0  0  0  0  0  0  0  0  0  0  0
   21.4684   19.1866   24.7492 H   0  0  0  0  0  0  0  0  0  0  0  0
   20.3720   18.1137   23.2413 C   0  0  0  0  0  0  0  0  0  0  0  0
   20.9493   17.2871   23.6747 H   0  0  0  0  0  0  0  0  0  0  0  0
   19.3299   17.7692   23.2501 H   0  0  0  0  0  0  0  0  0  0  0  0
   20.8357   18.3188   21.7745 C   0  0  0  0  0  0  0  0  0  0  0  0
   20.9096   17.3358   21.2897 H   0  0  0  0  0  0  0  0  0  0  0  0
   21.8587   18.7175   21.7675 H   0  0  0  0  0  0  0  0  0  0  0  0
   19.4454   19.4020   25.0774 O   0  0  0  0  0  0  0  0  0  0  0  0
   19.5587   20.2205   25.6025 H   0  0  0  0  0  0  0  0  0  0  0  0
  1  2  1  0  0  0  0
  1  3  1  0  0  0  0
  1  4  1  0  0  0  0
  4  5  1  0  0  0  0
  4  6  1  0  0  0  0
  4  7  1  0  0  0  0
  7  8  1  0  0  0  0
  7  9  1  0  0  0  0
  7 10  1  0  0  0  0
 10 11  1  0  0  0  0
 10 12  1  0  0  0  0
 10 13  1  0  0  0  0
 13 14  1  0  0  0  0
 13 15  1  0  0  0  0
 15 16  1  0  0  0  0
 15 17  1  0  0  0  0
  1 18  1  0  0  0  0
 15 18  1  0  0  0  0
 18 19  1  0  0  0  0
 18 20  1  0  0  0  0
 13 21  1  0  0  0  0
 21 22  1  0  0  0  0
M  END
> <VM2 Rank>
36

> <Conf_Id>
438

> <Probability>
0.03

> <Sum Probability>
99.89

> <Delta G>
3.422

> <G>
50.785

> <E>
24.517

> <-TS>
26.268

> <U+W>
6.632

> <U>
8.892

> <W>
-2.260

> <W(PB)>
-4.261

> <W(SA)>
2.002

> <Valence>
13.213

> <Coulomb>
-7.892

> <VdW>
3.571

> <VdW6>
-10.254

> <VdW12>
13.825

> <Bond>
0.437

> <Angle>
3.615

> <Pdih>
9.160

> <Idih>
0.000

> <Tether>
0.000

$$$$
VeraChem MOL file


 22 22  0  0  0  0  0  0  0  0999 V2000     
   20.0297   19.1350   20.8495 C   0  0  0  0  0  0  0  0  0  0  0  0
   20.9326   18.7794   20.3346 H   0  0  0  0  0  0  0  0  0  0  0  0
   19.2302   19.1246   20.0961 H   0  0  0  0  0  0  0  0  0  0  0  0
   20.2673   20.5953   21.3049 C   0  0  0  0  0  0  0  0  0  0  0  0
   21.2956   20.7030   21.6723 H   0  0  0  0  0  0  0  0  0  0  0  0
   20.2157   21.2427   20.4189 H   0  0  0  0  0  0  0  0  0  0  0  0
   19.2686   21.1272   22.3654 C   0  0  0  0  0  0  0  0  0  0  0  0
   18.2477   21.0798   21.9626 H   0  0  0  0  0  0  0  0  0  0  0  0
   19.4789   22.1951   22.5146 H   0  0  0  0  0  0  0  0  0  0  0  0
   19.3049   20.4280   23.7563 C   0  0  0  0  0  0  0  0  0  0  0  0
   19.2637   21.2052   24.5309 H   0  0  0  0  0  0  0  0  0  0  0  0
   18.3937   19.8330   23.8967 H   0  0  0  0  0  0  0  0  0  0  0  0
   20.5385   19.5311   24.0194 C   0  0  0  0  0  0  0  0  0  0  0  0
   21.4398   20.0996   23.7525 H   0  0  0  0  0  0  0  0  0  0  0  0
   20.5391   18.1889   23.2359 C   0  0  0  0  0  0  0  0  0  0  0  0
   21.5733   17.9417   22.9638 H   0  0  0  0  0  0  0  0  0  0  0  0
   20.2030   17.3845   23.9041 H   0  0  0  0  0  0  0  0  0  0  0  0
   19.6518   18.1311   21.9643 C   0  0  0  0  0  0  0  0  0  0  0  0
   18.5989   18.2725   22.2404 H   0  0  0  0  0  0  0  0  0  0  0  0
   19.7034   17.1164   21.5467 H   0  0  0  0  0  0  0  0  0  0  0  0
   20.5860   19.2415   25.4114 O   0  0  0  0  0  0  0  0  0  0  0  0
   21.4021   18.7203   25.5632 H   0  0  0  0  0  0  0  0  0  0  0  0
  1  2  1  0  0  0  0
  1  3  1  0  0  0  0
  1  4  1  0  0  0  0
  4  5  1  0  0  0  0
  4  6  1  0  0  0  0
  4  7  1  0  0  0  0
  7  8  1  0  0  0  0
  7  9  1  0  0  0  0
  7 10  1  0  0  0  0
 10 11  1  0  0  0  0
 10 12  1  0  0  0  0
 10 13  1  0  0  0  0
 13 14  1  0  0  0  0
 13 15  1  0  0  0  0
 15 16  1  0  0  0  0
 15 17  1  0  0  0  0
  1 18  1  0  0  0  0
 15 18  1  0  0  0  0
 18 19  1  0  0  0  0
 18 20  1  0  0  0  0
 13 21  1  0  0  0  0
 21 22  1  0  0  0  0
M  END
> <VM2 Rank>
37

> <Conf_Id>
731

> <Probability>
0.02

> <Sum Probability>
99.90

> <Delta G>
3.605

> <G>
50.968

> <E>
24.150

> <-TS>
26.818

> <U+W>
6.265

> <U>
8.574

> <W>
-2.309

> <W(PB)>
-4.332

> <W(SA)>
2.023

> <Valence>
13.345

> <Coulomb>
-8.599

> <VdW>
3.827

> <VdW6>
-9.679

> <VdW12>
13.506

> <Bond>
0.433

> <Angle>
3.364

> <Pdih>
9.548

> <Idih>
0.000

> <Tether>
0.000

$$$$
VeraChem MOL file


 22 22  0  0  0  0  0  0  0  0999 V2000     
   20.5617   19.2854   21.0666 C   0  0  0  0  0  0  0  0  0  0  0  0
   21.5657   19.5036   21.4517 H   0  0  0  0  0  0  0  0  0  0  0  0
   20.7170   19.0129   20.0137 H   0  0  0  0  0  0  0  0  0  0  0  0
   19.6990   20.5699   21.1099 C   0  0  0  0  0  0  0  0  0  0  0  0
   20.3266   21.4211   20.8126 H   0  0  0  0  0  0  0  0  0  0  0  0
   18.9131   20.4946   20.3461 H   0  0  0  0  0  0  0  0  0  0  0  0
   19.0228   20.8859   22.4650 C   0  0  0  0  0  0  0  0  0  0  0  0
   18.1516   20.2316   22.5988 H   0  0  0  0  0  0  0  0  0  0  0  0
   18.6108   21.9030   22.4160 H   0  0  0  0  0  0  0  0  0  0  0  0
   19.9485   20.7859   23.7062 C   0  0  0  0  0  0  0  0  0  0  0  0
   20.7584   21.5204   23.6103 H   0  0  0  0  0  0  0  0  0  0  0  0
   19.3588   21.0998   24.5781 H   0  0  0  0  0  0  0  0  0  0  0  0
   20.5729   19.3919   23.9928 C   0  0  0  0  0  0  0  0  0  0  0  0
   21.6055   19.3804   23.6182 H   0  0  0  0  0  0  0  0  0  0  0  0
   19.8132   18.2041   23.3545 C   0  0  0  0  0  0  0  0  0  0  0  0
   20.1631   17.2726   23.8189 H   0  0  0  0  0  0  0  0  0  0  0  0
   18.7505   18.2760   23.6186 H   0  0  0  0  0  0  0  0  0  0  0  0
   19.9642   18.0631   21.8111 C   0  0  0  0  0  0  0  0  0  0  0  0
   20.6134   17.2002   21.6090 H   0  0  0  0  0  0  0  0  0  0  0  0
   18.9892   17.8091   21.3734 H   0  0  0  0  0  0  0  0  0  0  0  0
   20.6037   19.1917   25.4009 O   0  0  0  0  0  0  0  0  0  0  0  0
   21.1348   19.9242   25.7782 H   0  0  0  0  0  0  0  0  0  0  0  0
  1  2  1  0  0  0  0
  1  3  1  0  0  0  0
  1  4  1  0  0  0  0
  4  5  1  0  0  0  0
  4  6  1  0  0  0  0
  4  7  1  0  0  0  0
  7  8  1  0  0  0  0
  7  9  1  0  0  0  0
  7 10  1  0  0  0  0
 10 11  1  0  0  0  0
 10 12  1  0  0  0  0
 10 13  1  0  0  0  0
 13 14  1  0  0  0  0
 13 15  1  0  0  0  0
 15 16  1  0  0  0  0
 15 17  1  0  0  0  0
  1 18  1  0  0  0  0
 15 18  1  0  0  0  0
 18 19  1  0  0  0  0
 18 20  1  0  0  0  0
 13 21  1  0  0  0  0
 21 22  1  0  0  0  0
M  END
> <VM2 Rank>
38

> <Conf_Id>
117

> <Probability>
0.02

> <Sum Probability>
99.92

> <Delta G>
3.653

> <G>
51.016

> <E>
24.167

> <-TS>
26.849

> <U+W>
6.282

> <U>
8.574

> <W>
-2.292

> <W(PB)>
-4.304

> <W(SA)>
2.012

> <Valence>
13.346

> <Coulomb>
-8.599

> <VdW>
3.827

> <VdW6>
-9.679

> <VdW12>
13.506

> <Bond>
0.433

> <Angle>
3.364

> <Pdih>
9.549

> <Idih>
0.000

> <Tether>
0.000

$$$$
VeraChem MOL file


 22 22  0  0  0  0  0  0  0  0999 V2000     
   20.0038   19.1334   20.8477 C   0  0  0  0  0  0  0  0  0  0  0  0
   20.8875   18.7742   20.3029 H   0  0  0  0  0  0  0  0  0  0  0  0
   19.1809   19.1329   20.1199 H   0  0  0  0  0  0  0  0  0  0  0  0
   20.2696   20.5884   21.3032 C   0  0  0  0  0  0  0  0  0  0  0  0
   21.3012   20.6759   21.6672 H   0  0  0  0  0  0  0  0  0  0  0  0
   20.2265   21.2377   20.4182 H   0  0  0  0  0  0  0  0  0  0  0  0
   19.2854   21.1381   22.3680 C   0  0  0  0  0  0  0  0  0  0  0  0
   18.2637   21.1233   21.9648 H   0  0  0  0  0  0  0  0  0  0  0  0
   19.5264   22.1982   22.5265 H   0  0  0  0  0  0  0  0  0  0  0  0
   19.3012   20.4258   23.7519 C   0  0  0  0  0  0  0  0  0  0  0  0
   19.2355   21.1973   24.5302 H   0  0  0  0  0  0  0  0  0  0  0  0
   18.3921   19.8224   23.8689 H   0  0  0  0  0  0  0  0  0  0  0  0
   20.5379   19.5349   24.0242 C   0  0  0  0  0  0  0  0  0  0  0  0
   21.4396   20.1102   23.7732 H   0  0  0  0  0  0  0  0  0  0  0  0
   20.5614   18.1995   23.2285 C   0  0  0  0  0  0  0  0  0  0  0  0
   21.5981   17.9827   22.9412 H   0  0  0  0  0  0  0  0  0  0  0  0
   20.2607   17.3821   23.8977 H   0  0  0  0  0  0  0  0  0  0  0  0
   19.6571   18.1255   21.9693 C   0  0  0  0  0  0  0  0  0  0  0  0
   18.6059   18.2497   22.2594 H   0  0  0  0  0  0  0  0  0  0  0  0
   19.7191   17.1113   21.5522 H   0  0  0  0  0  0  0  0  0  0  0  0
   20.5696   19.2324   25.4141 O   0  0  0  0  0  0  0  0  0  0  0  0
   20.6163   20.0887   25.8886 H   0  0  0  0  0  0  0  0  0  0  0  0
  1  2  1  0  0  0  0
  1  3  1  0  0  0  0
  1  4  1  0  0  0  0
  4  5  1  0  0  0  0
  4  6  1  0  0  0  0
  4  7  1  0  0  0  0
  7  8  1  0  0  0  0
  7  9  1  0  0  0  0
  7 10  1  0  0  0  0
 10 11  1  0  0  0  0
 10 12  1  0  0  0  0
 10 13  1  0  0  0  0
 13 14  1  0  0  0  0
 13 15  1  0  0  0  0
 15 16  1  0  0  0  0
 15 17  1  0  0  0  0
  1 18  1  0  0  0  0
 15 18  1  0  0  0  0
 18 19  1  0  0  0  0
 18 20  1  0  0  0  0
 13 21  1  0  0  0  0
 21 22  1  0  0  0  0
M  END
> <VM2 Rank>
39

> <Conf_Id>
540

> <Probability>
0.02

> <Sum Probability>
99.94

> <Delta G>
3.677

> <G>
51.040

> <E>
24.229

> <-TS>
26.810

> <U+W>
6.345

> <U>
8.609

> <W>
-2.265

> <W(PB)>
-4.271

> <W(SA)>
2.006

> <Valence>
13.313

> <Coulomb>
-8.545

> <VdW>
3.841

> <VdW6>
-9.685

> <VdW12>
13.527

> <Bond>
0.435

> <Angle>
3.375

> <Pdih>
9.503

> <Idih>
0.000

> <Tether>
0.000

$$$$
VeraChem MOL file


 22 22  0  0  0  0  0  0  0  0999 V2000     
   20.5607   19.2918   21.0675 C   0  0  0  0  0  0  0  0  0  0  0  0
   20.7242   19.0207   20.0156 H   0  0  0  0  0  0  0  0  0  0  0  0
   21.5593   19.5284   21.4562 H   0  0  0  0  0  0  0  0  0  0  0  0
   19.6764   20.5613   21.1068 C   0  0  0  0  0  0  0  0  0  0  0  0
   20.2841   21.4169   20.7823 H   0  0  0  0  0  0  0  0  0  0  0  0
   18.8760   20.4608   20.3611 H   0  0  0  0  0  0  0  0  0  0  0  0
   19.0261   20.8914   22.4714 C   0  0  0  0  0  0  0  0  0  0  0  0
   18.1502   20.2478   22.6235 H   0  0  0  0  0  0  0  0  0  0  0  0
   18.6239   21.9124   22.4233 H   0  0  0  0  0  0  0  0  0  0  0  0
   19.9720   20.7888   23.6975 C   0  0  0  0  0  0  0  0  0  0  0  0
   20.7957   21.5042   23.5786 H   0  0  0  0  0  0  0  0  0  0  0  0
   19.4080   21.1274   24.5771 H   0  0  0  0  0  0  0  0  0  0  0  0
   20.5742   19.3869   23.9959 C   0  0  0  0  0  0  0  0  0  0  0  0
   21.6111   19.3646   23.6333 H   0  0  0  0  0  0  0  0  0  0  0  0
   19.8079   18.2060   23.3512 C   0  0  0  0  0  0  0  0  0  0  0  0
   20.1339   17.2678   23.8190 H   0  0  0  0  0  0  0  0  0  0  0  0
   18.7420   18.2938   23.5969 H   0  0  0  0  0  0  0  0  0  0  0  0
   19.9825   18.0601   21.8114 C   0  0  0  0  0  0  0  0  0  0  0  0
   20.6554   17.2125   21.6225 H   0  0  0  0  0  0  0  0  0  0  0  0
   19.0197   17.7799   21.3628 H   0  0  0  0  0  0  0  0  0  0  0  0
   20.5862   19.1918   25.4052 O   0  0  0  0  0  0  0  0  0  0  0  0
   21.0253   18.3307   25.5675 H   0  0  0  0  0  0  0  0  0  0  0  0
  1  2  1  0  0  0  0
  1  3  1  0  0  0  0
  1  4  1  0  0  0  0
  4  5  1  0  0  0  0
  4  6  1  0  0  0  0
  4  7  1  0  0  0  0
  7  8  1  0  0  0  0
  7  9  1  0  0  0  0
  7 10  1  0  0  0  0
 10 11  1  0  0  0  0
 10 12  1  0  0  0  0
 10 13  1  0  0  0  0
 13 14  1  0  0  0  0
 13 15  1  0  0  0  0
 15 16  1  0  0  0  0
 15 17  1  0  0  0  0
  1 18  1  0  0  0  0
 15 18  1  0  0  0  0
 18 19  1  0  0  0  0
 18 20  1  0  0  0  0
 13 21  1  0  0  0  0
 21 22  1  0  0  0  0
M  END
> <VM2 Rank>
40

> <Conf_Id>
453

> <Probability>
0.02

> <Sum Probability>
99.96

> <Delta G>
3.679

> <G>
51.041

> <E>
24.193

> <-TS>
26.849

> <U+W>
6.308

> <U>
8.609

> <W>
-2.301

> <W(PB)>
-4.320

> <W(SA)>
2.019

> <Valence>
13.314

> <Coulomb>
-8.546

> <VdW>
3.841

> <VdW6>
-9.685

> <VdW12>
13.526

> <Bond>
0.434

> <Angle>
3.374

> <Pdih>
9.506

> <Idih>
0.000

> <Tether>
0.000

$$$$
VeraChem MOL file


 22 22  0  0  0  0  0  0  0  0999 V2000     
   20.4663   19.3542   21.0067 C   0  0  0  0  0  0  0  0  0  0  0  0
   21.4321   19.8004   21.2768 H   0  0  0  0  0  0  0  0  0  0  0  0
   20.5586   19.0975   19.9426 H   0  0  0  0  0  0  0  0  0  0  0  0
   19.3401   20.4072   21.1643 C   0  0  0  0  0  0  0  0  0  0  0  0
   19.5825   21.2518   20.5049 H   0  0  0  0  0  0  0  0  0  0  0  0
   18.3955   19.9949   20.7844 H   0  0  0  0  0  0  0  0  0  0  0  0
   19.1148   20.9625   22.5981 C   0  0  0  0  0  0  0  0  0  0  0  0
   18.2220   20.5044   23.0431 H   0  0  0  0  0  0  0  0  0  0  0  0
   18.8739   22.0312   22.5176 H   0  0  0  0  0  0  0  0  0  0  0  0
   20.3176   20.7956   23.5640 C   0  0  0  0  0  0  0  0  0  0  0  0
   21.2205   21.1976   23.0877 H   0  0  0  0  0  0  0  0  0  0  0  0
   20.1501   21.4394   24.4381 H   0  0  0  0  0  0  0  0  0  0  0  0
   20.6002   19.3450   24.0535 C   0  0  0  0  0  0  0  0  0  0  0  0
   21.6814   19.1635   23.9690 H   0  0  0  0  0  0  0  0  0  0  0  0
   19.8599   18.2172   23.2917 C   0  0  0  0  0  0  0  0  0  0  0  0
   20.0443   17.2631   23.8022 H   0  0  0  0  0  0  0  0  0  0  0  0
   18.7767   18.3736   23.3622 H   0  0  0  0  0  0  0  0  0  0  0  0
   20.2608   18.0455   21.8053 C   0  0  0  0  0  0  0  0  0  0  0  0
   21.1911   17.4635   21.7529 H   0  0  0  0  0  0  0  0  0  0  0  0
   19.4954   17.4356   21.3066 H   0  0  0  0  0  0  0  0  0  0  0  0
   20.2262   19.2508   25.4233 O   0  0  0  0  0  0  0  0  0  0  0  0
   20.4668   18.3486   25.7206 H   0  0  0  0  0  0  0  0  0  0  0  0
  1  2  1  0  0  0  0
  1  3  1  0  0  0  0
  1  4  1  0  0  0  0
  4  5  1  0  0  0  0
  4  6  1  0  0  0  0
  4  7  1  0  0  0  0
  7  8  1  0  0  0  0
  7  9  1  0  0  0  0
  7 10  1  0  0  0  0
 10 11  1  0  0  0  0
 10 12  1  0  0  0  0
 10 13  1  0  0  0  0
 13 14  1  0  0  0  0
 13 15  1  0  0  0  0
 15 16  1  0  0  0  0
 15 17  1  0  0  0  0
  1 18  1  0  0  0  0
 15 18  1  0  0  0  0
 18 19  1  0  0  0  0
 18 20  1  0  0  0  0
 13 21  1  0  0  0  0
 21 22  1  0  0  0  0
M  END
> <VM2 Rank>
41

> <Conf_Id>
364

> <Probability>
0.01

> <Sum Probability>
99.97

> <Delta G>
3.747

> <G>
51.110

> <E>
24.308

> <-TS>
26.802

> <U+W>
6.423

> <U>
8.781

> <W>
-2.358

> <W(PB)>
-4.370

> <W(SA)>
2.011

> <Valence>
13.329

> <Coulomb>
-8.387

> <VdW>
3.839

> <VdW6>
-9.745

> <VdW12>
13.584

> <Bond>
0.436

> <Angle>
3.478

> <Pdih>
9.415

> <Idih>
0.000

> <Tether>
0.000

$$$$
VeraChem MOL file


 22 22  0  0  0  0  0  0  0  0999 V2000     
   19.6457   19.0984   20.9271 C   0  0  0  0  0  0  0  0  0  0  0  0
   20.1739   18.7083   20.0464 H   0  0  0  0  0  0  0  0  0  0  0  0
   18.5902   19.1729   20.6319 H   0  0  0  0  0  0  0  0  0  0  0  0
   20.2045   20.5148   21.2167 C   0  0  0  0  0  0  0  0  0  0  0  0
   21.2853   20.4572   21.3989 H   0  0  0  0  0  0  0  0  0  0  0  0
   20.1006   21.1241   20.3085 H   0  0  0  0  0  0  0  0  0  0  0  0
   19.5231   21.2655   22.3850 C   0  0  0  0  0  0  0  0  0  0  0  0
   18.5368   21.6216   22.0579 H   0  0  0  0  0  0  0  0  0  0  0  0
   20.1123   22.1670   22.6018 H   0  0  0  0  0  0  0  0  0  0  0  0
   19.3437   20.4569   23.6941 C   0  0  0  0  0  0  0  0  0  0  0  0
   19.1436   21.1695   24.5048 H   0  0  0  0  0  0  0  0  0  0  0  0
   18.4374   19.8435   23.6234 H   0  0  0  0  0  0  0  0  0  0  0  0
   20.5462   19.5660   24.0947 C   0  0  0  0  0  0  0  0  0  0  0  0
   21.4392   20.2043   24.1603 H   0  0  0  0  0  0  0  0  0  0  0  0
   20.8696   18.3863   23.1316 C   0  0  0  0  0  0  0  0  0  0  0  0
   21.8199   18.5875   22.6216 H   0  0  0  0  0  0  0  0  0  0  0  0
   21.0555   17.4821   23.7269 H   0  0  0  0  0  0  0  0  0  0  0  0
   19.7832   18.0583   22.0734 C   0  0  0  0  0  0  0  0  0  0  0  0
   20.0125   17.0823   21.6246 H   0  0  0  0  0  0  0  0  0  0  0  0
   18.8159   17.9191   22.5733 H   0  0  0  0  0  0  0  0  0  0  0  0
   20.2700   19.0319   25.3845 O   0  0  0  0  0  0  0  0  0  0  0  0
   20.1269   19.7953   25.9819 H   0  0  0  0  0  0  0  0  0  0  0  0
  1  2  1  0  0  0  0
  1  3  1  0  0  0  0
  1  4  1  0  0  0  0
  4  5  1  0  0  0  0
  4  6  1  0  0  0  0
  4  7  1  0  0  0  0
  7  8  1  0  0  0  0
  7  9  1  0  0  0  0
  7 10  1  0  0  0  0
 10 11  1  0  0  0  0
 10 12  1  0  0  0  0
 10 13  1  0  0  0  0
 13 14  1  0  0  0  0
 13 15  1  0  0  0  0
 15 16  1  0  0  0  0
 15 17  1  0  0  0  0
  1 18  1  0  0  0  0
 15 18  1  0  0  0  0
 18 19  1  0  0  0  0
 18 20  1  0  0  0  0
 13 21  1  0  0  0  0
 21 22  1  0  0  0  0
M  END
> <VM2 Rank>
42

> <Conf_Id>
376

> <Probability>
0.01

> <Sum Probability>
99.98

> <Delta G>
3.757

> <G>
51.119

> <E>
24.304

> <-TS>
26.816

> <U+W>
6.419

> <U>
8.781

> <W>
-2.362

> <W(PB)>
-4.380

> <W(SA)>
2.018

> <Valence>
13.328

> <Coulomb>
-8.387

> <VdW>
3.839

> <VdW6>
-9.745

> <VdW12>
13.585

> <Bond>
0.436

> <Angle>
3.478

> <Pdih>
9.415

> <Idih>
0.000

> <Tether>
0.000

$$$$
VeraChem MOL file


 22 22  0  0  0  0  0  0  0  0999 V2000     
   20.2040   19.3549   20.8952 C   0  0  0  0  0  0  0  0  0  0  0  0
   21.0685   20.0125   20.7343 H   0  0  0  0  0  0  0  0  0  0  0  0
   19.9497   18.9698   19.8983 H   0  0  0  0  0  0  0  0  0  0  0  0
   19.0111   20.1928   21.4213 C   0  0  0  0  0  0  0  0  0  0  0  0
   18.6496   20.8392   20.6100 H   0  0  0  0  0  0  0  0  0  0  0  0
   18.1692   19.5264   21.6504 H   0  0  0  0  0  0  0  0  0  0  0  0
   19.3264   21.0891   22.6519 C   0  0  0  0  0  0  0  0  0  0  0  0
   18.4553   21.1024   23.3212 H   0  0  0  0  0  0  0  0  0  0  0  0
   19.4477   22.1226   22.3001 H   0  0  0  0  0  0  0  0  0  0  0  0
   20.5967   20.7184   23.4642 C   0  0  0  0  0  0  0  0  0  0  0  0
   21.4812   20.7948   22.8205 H   0  0  0  0  0  0  0  0  0  0  0  0
   20.7506   21.4798   24.2397 H   0  0  0  0  0  0  0  0  0  0  0  0
   20.5859   19.3251   24.1353 C   0  0  0  0  0  0  0  0  0  0  0  0
   21.6197   19.0973   24.4326 H   0  0  0  0  0  0  0  0  0  0  0  0
   20.0795   18.1649   23.2489 C   0  0  0  0  0  0  0  0  0  0  0  0
   20.3679   17.2231   23.7332 H   0  0  0  0  0  0  0  0  0  0  0  0
   18.9825   18.1593   23.2433 H   0  0  0  0  0  0  0  0  0  0  0  0
   20.6128   18.1508   21.7909 C   0  0  0  0  0  0  0  0  0  0  0  0
   21.7077   18.0627   21.8009 H   0  0  0  0  0  0  0  0  0  0  0  0
   20.2461   17.2317   21.3138 H   0  0  0  0  0  0  0  0  0  0  0  0
   19.7696   19.3820   25.2992 O   0  0  0  0  0  0  0  0  0  0  0  0
   20.1109   20.1185   25.8472 H   0  0  0  0  0  0  0  0  0  0  0  0
  1  2  1  0  0  0  0
  1  3  1  0  0  0  0
  1  4  1  0  0  0  0
  4  5  1  0  0  0  0
  4  6  1  0  0  0  0
  4  7  1  0  0  0  0
  7  8  1  0  0  0  0
  7  9  1  0  0  0  0
  7 10  1  0  0  0  0
 10 11  1  0  0  0  0
 10 12  1  0  0  0  0
 10 13  1  0  0  0  0
 13 14  1  0  0  0  0
 13 15  1  0  0  0  0
 15 16  1  0  0  0  0
 15 17  1  0  0  0  0
  1 18  1  0  0  0  0
 15 18  1  0  0  0  0
 18 19  1  0  0  0  0
 18 20  1  0  0  0  0
 13 21  1  0  0  0  0
 21 22  1  0  0  0  0
M  END
> <VM2 Rank>
43

> <Conf_Id>
511

> <Probability>
0.01

> <Sum Probability>
100.00

> <Delta G>
3.853

> <G>
51.216

> <E>
24.417

> <-TS>
26.799

> <U+W>
6.533

> <U>
8.919

> <W>
-2.386

> <W(PB)>
-4.389

> <W(SA)>
2.003

> <Valence>
13.464

> <Coulomb>
-8.153

> <VdW>
3.608

> <VdW6>
-9.940

> <VdW12>
13.548

> <Bond>
0.437

> <Angle>
3.544

> <Pdih>
9.483

> <Idih>
0.000

> <Tether>
0.000

$$$$
VeraChem MOL file


 22 22  0  0  0  0  0  0  0  0999 V2000     
   19.3348   18.7774   21.4294 C   0  0  0  0  0  0  0  0  0  0  0  0
   19.1864   18.5696   20.3607 H   0  0  0  0  0  0  0  0  0  0  0  0
   18.6614   18.0827   21.9491 H   0  0  0  0  0  0  0  0  0  0  0  0
   18.8977   20.2479   21.6950 C   0  0  0  0  0  0  0  0  0  0  0  0
   18.5600   20.6765   20.7413 H   0  0  0  0  0  0  0  0  0  0  0  0
   18.0119   20.2680   22.3439 H   0  0  0  0  0  0  0  0  0  0  0  0
   19.9871   21.1859   22.2748 C   0  0  0  0  0  0  0  0  0  0  0  0
   19.6146   22.2183   22.2305 H   0  0  0  0  0  0  0  0  0  0  0  0
   20.8665   21.1818   21.6189 H   0  0  0  0  0  0  0  0  0  0  0  0
   20.4231   20.9004   23.7387 C   0  0  0  0  0  0  0  0  0  0  0  0
   21.4201   21.3338   23.8903 H   0  0  0  0  0  0  0  0  0  0  0  0
   19.7591   21.4573   24.4132 H   0  0  0  0  0  0  0  0  0  0  0  0
   20.4501   19.4290   24.2208 C   0  0  0  0  0  0  0  0  0  0  0  0
   20.9899   19.4165   25.1785 H   0  0  0  0  0  0  0  0  0  0  0  0
   21.1614   18.4160   23.2902 C   0  0  0  0  0  0  0  0  0  0  0  0
   22.2456   18.5556   23.3889 H   0  0  0  0  0  0  0  0  0  0  0  0
   20.9616   17.4099   23.6823 H   0  0  0  0  0  0  0  0  0  0  0  0
   20.8054   18.4328   21.7776 C   0  0  0  0  0  0  0  0  0  0  0  0
   21.4813   19.1137   21.2456 H   0  0  0  0  0  0  0  0  0  0  0  0
   21.0350   17.4399   21.3674 H   0  0  0  0  0  0  0  0  0  0  0  0
   19.1264   18.9887   24.4805 O   0  0  0  0  0  0  0  0  0  0  0  0
   18.6916   19.0176   23.6047 H   0  0  0  0  0  0  0  0  0  0  0  0
  1  2  1  0  0  0  0
  1  3  1  0  0  0  0
  1  4  1  0  0  0  0
  4  5  1  0  0  0  0
  4  6  1  0  0  0  0
  4  7  1  0  0  0  0
  7  8  1  0  0  0  0
  7  9  1  0  0  0  0
  7 10  1  0  0  0  0
 10 11  1  0  0  0  0
 10 12  1  0  0  0  0
 10 13  1  0  0  0  0
 13 14  1  0  0  0  0
 13 15  1  0  0  0  0
 15 16  1  0  0  0  0
 15 17  1  0  0  0  0
  1 18  1  0  0  0  0
 15 18  1  0  0  0  0
 18 19  1  0  0  0  0
 18 20  1  0  0  0  0
 13 21  1  0  0  0  0
 21 22  1  0  0  0  0
M  END
> <VM2 Rank>
44

> <Conf_Id>
391

> <Probability>
0.00

> <Sum Probability>
100.00

> <Delta G>
4.824

> <G>
52.187

> <E>
25.238

> <-TS>
26.949

> <U+W>
7.353

> <U>
8.455

> <W>
-1.102

> <W(PB)>
-3.102

> <W(SA)>
2.000

> <Valence>
15.601

> <Coulomb>
-10.573

> <VdW>
3.427

> <VdW6>
-11.360

> <VdW12>
14.787

> <Bond>
0.470

> <Angle>
5.446

> <Pdih>
9.685

> <Idih>
0.000

> <Tether>
0.000

$$$$
VeraChem MOL file


 22 22  0  0  0  0  0  0  0  0999 V2000     
   19.3492   18.7835   21.4138 C   0  0  0  0  0  0  0  0  0  0  0  0
   19.2009   18.5858   20.3436 H   0  0  0  0  0  0  0  0  0  0  0  0
   18.6857   18.0817   21.9375 H   0  0  0  0  0  0  0  0  0  0  0  0
   18.8893   20.2403   21.7082 C   0  0  0  0  0  0  0  0  0  0  0  0
   18.5028   20.6731   20.7755 H   0  0  0  0  0  0  0  0  0  0  0  0
   18.0333   20.2209   22.3958 H   0  0  0  0  0  0  0  0  0  0  0  0
   19.9735   21.1924   22.2713 C   0  0  0  0  0  0  0  0  0  0  0  0
   19.5826   22.2185   22.2444 H   0  0  0  0  0  0  0  0  0  0  0  0
   20.8390   21.2079   21.5975 H   0  0  0  0  0  0  0  0  0  0  0  0
   20.4398   20.8971   23.7243 C   0  0  0  0  0  0  0  0  0  0  0  0
   21.4506   21.3070   23.8471 H   0  0  0  0  0  0  0  0  0  0  0  0
   19.8096   21.4754   24.4124 H   0  0  0  0  0  0  0  0  0  0  0  0
   20.4475   19.4252   24.2133 C   0  0  0  0  0  0  0  0  0  0  0  0
   21.0112   19.4172   25.1573 H   0  0  0  0  0  0  0  0  0  0  0  0
   21.1417   18.3964   23.2853 C   0  0  0  0  0  0  0  0  0  0  0  0
   22.2278   18.4940   23.4084 H   0  0  0  0  0  0  0  0  0  0  0  0
   20.8936   17.3940   23.6583 H   0  0  0  0  0  0  0  0  0  0  0  0
   20.8198   18.4481   21.7673 C   0  0  0  0  0  0  0  0  0  0  0  0
   21.4967   19.1496   21.2647 H   0  0  0  0  0  0  0  0  0  0  0  0
   21.0649   17.4674   21.3378 H   0  0  0  0  0  0  0  0  0  0  0  0
   19.1251   18.9950   24.5235 O   0  0  0  0  0  0  0  0  0  0  0  0
   18.7130   19.7115   25.0463 H   0  0  0  0  0  0  0  0  0  0  0  0
  1  2  1  0  0  0  0
  1  3  1  0  0  0  0
  1  4  1  0  0  0  0
  4  5  1  0  0  0  0
  4  6  1  0  0  0  0
  4  7  1  0  0  0  0
  7  8  1  0  0  0  0
  7  9  1  0  0  0  0
  7 10  1  0  0  0  0
 10 11  1  0  0  0  0
 10 12  1  0  0  0  0
 10 13  1  0  0  0  0
 13 14  1  0  0  0  0
 13 15  1  0  0  0  0
 15 16  1  0  0  0  0
 15 17  1  0  0  0  0
  1 18  1  0  0  0  0
 15 18  1  0  0  0  0
 18 19  1  0  0  0  0
 18 20  1  0  0  0  0
 13 21  1  0  0  0  0
 21 22  1  0  0  0  0
M  END
> <VM2 Rank>
45

> <Conf_Id>
455

> <Probability>
0.00

> <Sum Probability>
100.00

> <Delta G>
6.644

> <G>
54.007

> <E>
27.802

> <-TS>
26.205

> <U+W>
9.917

> <U>
11.966

> <W>
-2.049

> <W(PB)>
-4.037

> <W(SA)>
1.988

> <Valence>
15.235

> <Coulomb>
-6.622

> <VdW>
3.353

> <VdW6>
-10.808

> <VdW12>
14.161

> <Bond>
0.452

> <Angle>
5.180

> <Pdih>
9.603

> <Idih>
0.000

> <Tether>
0.000

$$$$
VeraChem MOL file


 22 22  0  0  0  0  0  0  0  0999 V2000     
   19.3242   18.7757   21.4433 C   0  0  0  0  0  0  0  0  0  0  0  0
   19.1381   18.5328   20.3884 H   0  0  0  0  0  0  0  0  0  0  0  0
   18.6591   18.1148   22.0151 H   0  0  0  0  0  0  0  0  0  0  0  0
   18.9107   20.2566   21.6810 C   0  0  0  0  0  0  0  0  0  0  0  0
   18.5777   20.6785   20.7232 H   0  0  0  0  0  0  0  0  0  0  0  0
   18.0301   20.2856   22.3374 H   0  0  0  0  0  0  0  0  0  0  0  0
   20.0057   21.1853   22.2629 C   0  0  0  0  0  0  0  0  0  0  0  0
   19.6507   22.2227   22.1990 H   0  0  0  0  0  0  0  0  0  0  0  0
   20.8993   21.1568   21.6277 H   0  0  0  0  0  0  0  0  0  0  0  0
   20.3958   20.9063   23.7396 C   0  0  0  0  0  0  0  0  0  0  0  0
   21.3742   21.3661   23.9279 H   0  0  0  0  0  0  0  0  0  0  0  0
   19.6912   21.4399   24.3910 H   0  0  0  0  0  0  0  0  0  0  0  0
   20.4461   19.4319   24.2143 C   0  0  0  0  0  0  0  0  0  0  0  0
   21.0077   19.4322   25.1596 H   0  0  0  0  0  0  0  0  0  0  0  0
   21.1730   18.4321   23.2775 C   0  0  0  0  0  0  0  0  0  0  0  0
   22.2536   18.6074   23.3573 H   0  0  0  0  0  0  0  0  0  0  0  0
   21.0151   17.4224   23.6781 H   0  0  0  0  0  0  0  0  0  0  0  0
   20.7966   18.4227   21.7694 C   0  0  0  0  0  0  0  0  0  0  0  0
   21.4689   19.0872   21.2128 H   0  0  0  0  0  0  0  0  0  0  0  0
   21.0088   17.4197   21.3750 H   0  0  0  0  0  0  0  0  0  0  0  0
   19.1341   18.9675   24.5189 O   0  0  0  0  0  0  0  0  0  0  0  0
   19.2172   18.0184   24.7398 H   0  0  0  0  0  0  0  0  0  0  0  0
  1  2  1  0  0  0  0
  1  3  1  0  0  0  0
  1  4  1  0  0  0  0
  4  5  1  0  0  0  0
  4  6  1  0  0  0  0
  4  7  1  0  0  0  0
  7  8  1  0  0  0  0
  7  9  1  0  0  0  0
  7 10  1  0  0  0  0
 10 11  1  0  0  0  0
 10 12  1  0  0  0  0
 10 13  1  0  0  0  0
 13 14  1  0  0  0  0
 13 15  1  0  0  0  0
 15 16  1  0  0  0  0
 15 17  1  0  0  0  0
  1 18  1  0  0  0  0
 15 18  1  0  0  0  0
 18 19  1  0  0  0  0
 18 20  1  0  0  0  0
 13 21  1  0  0  0  0
 21 22  1  0  0  0  0
M  END
> <VM2 Rank>
46

> <Conf_Id>
857

> <Probability>
0.00

> <Sum Probability>
100.00

> <Delta G>
6.646

> <G>
54.009

> <E>
27.803

> <-TS>
26.205

> <U+W>
9.919

> <U>
11.966

> <W>
-2.047

> <W(PB)>
-4.020

> <W(SA)>
1.973

> <Valence>
15.235

> <Coulomb>
-6.623

> <VdW>
3.353

> <VdW6>
-10.808

> <VdW12>
14.162

> <Bond>
0.452

> <Angle>
5.180

> <Pdih>
9.603

> <Idih>
0.000

> <Tether>
0.000

$$$$
