VeraChem MOL file


 29 28  0  0  0  0  0  0  0  0999 V2000     
   19.5306   19.9313   18.7439 C   0  0  0  0  0  0  0  0  0  0  0  0
   18.5906   20.4924   18.8259 H   0  0  0  0  0  0  0  0  0  0  0  0
   20.3585   20.6521   18.7241 H   0  0  0  0  0  0  0  0  0  0  0  0
   19.5233   19.3998   17.7835 H   0  0  0  0  0  0  0  0  0  0  0  0
   19.6877   18.9385   19.9150 C   0  0  0  0  0  0  0  0  0  0  0  0
   20.6190   18.3690   19.7877 H   0  0  0  0  0  0  0  0  0  0  0  0
   18.8647   18.2106   19.8887 H   0  0  0  0  0  0  0  0  0  0  0  0
   19.7011   19.6615   21.2799 C   0  0  0  0  0  0  0  0  0  0  0  0
   20.5238   20.3896   21.3006 H   0  0  0  0  0  0  0  0  0  0  0  0
   18.7693   20.2311   21.4015 H   0  0  0  0  0  0  0  0  0  0  0  0
   19.8584   18.6704   22.4551 C   0  0  0  0  0  0  0  0  0  0  0  0
   20.7898   18.1006   22.3314 H   0  0  0  0  0  0  0  0  0  0  0  0
   19.0351   17.9429   22.4339 H   0  0  0  0  0  0  0  0  0  0  0  0
   19.8724   19.3942   23.8204 C   0  0  0  0  0  0  0  0  0  0  0  0
   20.6981   20.1191   23.8421 H   0  0  0  0  0  0  0  0  0  0  0  0
   18.9418   19.9661   23.9337 H   0  0  0  0  0  0  0  0  0  0  0  0
   20.0289   18.3990   24.9958 C   0  0  0  0  0  0  0  0  0  0  0  0
   20.9354   17.8002   24.8354 H   0  0  0  0  0  0  0  0  0  0  0  0
   19.1855   17.6957   25.0018 H   0  0  0  0  0  0  0  0  0  0  0  0
   20.1314   19.0989   26.3682 C   0  0  2  0  0  0  0  0  0  0  0  0
   20.9619   19.8105   26.3292 H   0  0  0  0  0  0  0  0  0  0  0  0
   20.4280   18.0708   27.4716 C   0  0  0  0  0  0  0  0  0  0  0  0
   20.5383   18.5660   28.4442 H   0  0  0  0  0  0  0  0  0  0  0  0
   19.6207   17.3322   27.5534 H   0  0  0  0  0  0  0  0  0  0  0  0
   21.3622   17.5344   27.2636 H   0  0  0  0  0  0  0  0  0  0  0  0
   18.8975   19.8912   26.7041 N   0  3  0  0  0  0  0  0  0  0  0  0
   18.9910   20.3639   27.6077 H   0  0  0  0  0  0  0  0  0  0  0  0
   18.0710   19.2898   26.7565 H   0  0  0  0  0  0  0  0  0  0  0  0
   18.7121   20.6104   25.9999 H   0  0  0  0  0  0  0  0  0  0  0  0
  1  2  1  0  0  0  0
  1  3  1  0  0  0  0
  1  4  1  0  0  0  0
  1  5  1  0  0  0  0
  5  6  1  0  0  0  0
  5  7  1  0  0  0  0
  5  8  1  0  0  0  0
  8  9  1  0  0  0  0
  8 10  1  0  0  0  0
  8 11  1  0  0  0  0
 11 12  1  0  0  0  0
 11 13  1  0  0  0  0
 11 14  1  0  0  0  0
 14 15  1  0  0  0  0
 14 16  1  0  0  0  0
 14 17  1  0  0  0  0
 17 18  1  0  0  0  0
 17 19  1  0  0  0  0
 17 20  1  0  0  0  0
 20 21  1  0  0  0  0
 20 22  1  0  0  0  0
 22 23  1  0  0  0  0
 22 24  1  0  0  0  0
 22 25  1  0  0  0  0
 20 26  1  0  0  0  0
 26 27  1  0  0  0  0
 26 28  1  0  0  0  0
 26 29  1  0  0  0  0
M  END
> <VM2 Rank>
1

> <Conf_Id>
1424

> <Probability>
10.38

> <Sum Probability>
10.38

> <Delta G>
0.000

> <G>
33.702

> <E>
-3.682

> <-TS>
37.384

> <U+W>
-27.827

> <U>
23.963

> <W>
-51.788

> <W(PB)>
-54.341

> <W(SA)>
2.554

> <Valence>
3.166

> <Coulomb>
19.734

> <VdW>
1.062

> <VdW6>
-7.938

> <VdW12>
9.001

> <Bond>
0.188

> <Angle>
0.880

> <Pdih>
2.098

> <Idih>
0.000

> <Tether>
0.000

$$$$
VeraChem MOL file


 29 28  0  0  0  0  0  0  0  0999 V2000     
   19.0308   19.3524   18.8498 C   0  0  0  0  0  0  0  0  0  0  0  0
   18.5002   18.3915   18.8267 H   0  0  0  0  0  0  0  0  0  0  0  0
   18.2859   20.1519   18.9554 H   0  0  0  0  0  0  0  0  0  0  0  0
   19.5319   19.4841   17.8820 H   0  0  0  0  0  0  0  0  0  0  0  0
   20.0550   19.3927   20.0036 C   0  0  0  0  0  0  0  0  0  0  0  0
   20.5928   20.3509   19.9804 H   0  0  0  0  0  0  0  0  0  0  0  0
   20.8054   18.6041   19.8528 H   0  0  0  0  0  0  0  0  0  0  0  0
   19.3751   19.2095   21.3784 C   0  0  0  0  0  0  0  0  0  0  0  0
   18.6244   19.9986   21.5237 H   0  0  0  0  0  0  0  0  0  0  0  0
   18.8369   18.2516   21.3960 H   0  0  0  0  0  0  0  0  0  0  0  0
   20.3977   19.2492   22.5364 C   0  0  0  0  0  0  0  0  0  0  0  0
   20.9355   20.2072   22.5174 H   0  0  0  0  0  0  0  0  0  0  0  0
   21.1481   18.4600   22.3898 H   0  0  0  0  0  0  0  0  0  0  0  0
   19.7173   19.0656   23.9118 C   0  0  0  0  0  0  0  0  0  0  0  0
   18.9679   19.8559   24.0512 H   0  0  0  0  0  0  0  0  0  0  0  0
   19.1790   18.1087   23.9191 H   0  0  0  0  0  0  0  0  0  0  0  0
   20.7490   19.1031   25.0691 C   0  0  0  0  0  0  0  0  0  0  0  0
   21.3131   20.0437   25.0188 H   0  0  0  0  0  0  0  0  0  0  0  0
   21.4854   18.3014   24.9249 H   0  0  0  0  0  0  0  0  0  0  0  0
   20.1434   18.9722   26.4866 C   0  0  2  0  0  0  0  0  0  0  0  0
   20.9694   19.0447   27.2010 H   0  0  0  0  0  0  0  0  0  0  0  0
   19.4612   17.6099   26.7012 C   0  0  0  0  0  0  0  0  0  0  0  0
   19.1633   17.4914   27.7502 H   0  0  0  0  0  0  0  0  0  0  0  0
   18.5611   17.5051   26.0840 H   0  0  0  0  0  0  0  0  0  0  0  0
   20.1452   16.7882   26.4550 H   0  0  0  0  0  0  0  0  0  0  0  0
   19.2067   20.1014   26.8170 N   0  3  0  0  0  0  0  0  0  0  0  0
   19.6665   21.0113   26.7197 H   0  0  0  0  0  0  0  0  0  0  0  0
   18.8633   20.0332   27.7793 H   0  0  0  0  0  0  0  0  0  0  0  0
   18.3913   20.1001   26.1991 H   0  0  0  0  0  0  0  0  0  0  0  0
  1  2  1  0  0  0  0
  1  3  1  0  0  0  0
  1  4  1  0  0  0  0
  1  5  1  0  0  0  0
  5  6  1  0  0  0  0
  5  7  1  0  0  0  0
  5  8  1  0  0  0  0
  8  9  1  0  0  0  0
  8 10  1  0  0  0  0
  8 11  1  0  0  0  0
 11 12  1  0  0  0  0
 11 13  1  0  0  0  0
 11 14  1  0  0  0  0
 14 15  1  0  0  0  0
 14 16  1  0  0  0  0
 14 17  1  0  0  0  0
 17 18  1  0  0  0  0
 17 19  1  0  0  0  0
 17 20  1  0  0  0  0
 20 21  1  0  0  0  0
 20 22  1  0  0  0  0
 22 23  1  0  0  0  0
 22 24  1  0  0  0  0
 22 25  1  0  0  0  0
 20 26  1  0  0  0  0
 26 27  1  0  0  0  0
 26 28  1  0  0  0  0
 26 29  1  0  0  0  0
M  END
> <VM2 Rank>
2

> <Conf_Id>
1448

> <Probability>
5.09

> <Sum Probability>
15.47

> <Delta G>
0.425

> <G>
34.127

> <E>
-3.403

> <-TS>
37.530

> <U+W>
-27.548

> <U>
24.513

> <W>
-52.061

> <W(PB)>
-54.558

> <W(SA)>
2.497

> <Valence>
3.678

> <Coulomb>
19.662

> <VdW>
1.174

> <VdW6>
-8.569

> <VdW12>
9.743

> <Bond>
0.224

> <Angle>
1.211

> <Pdih>
2.243

> <Idih>
0.000

> <Tether>
0.000

$$$$
VeraChem MOL file


 29 28  0  0  0  0  0  0  0  0999 V2000     
   20.2031   19.4673   18.6904 C   0  0  0  0  0  0  0  0  0  0  0  0
   20.5985   20.4914   18.7045 H   0  0  0  0  0  0  0  0  0  0  0  0
   21.0525   18.7733   18.6438 H   0  0  0  0  0  0  0  0  0  0  0  0
   19.6169   19.3449   17.7704 H   0  0  0  0  0  0  0  0  0  0  0  0
   19.3302   19.1928   19.9333 C   0  0  0  0  0  0  0  0  0  0  0  0
   18.9221   18.1741   19.8744 H   0  0  0  0  0  0  0  0  0  0  0  0
   18.4716   19.8789   19.9345 H   0  0  0  0  0  0  0  0  0  0  0  0
   20.1320   19.3585   21.2431 C   0  0  0  0  0  0  0  0  0  0  0  0
   20.9904   18.6726   21.2360 H   0  0  0  0  0  0  0  0  0  0  0  0
   20.5398   20.3775   21.2964 H   0  0  0  0  0  0  0  0  0  0  0  0
   19.2613   19.0843   22.4899 C   0  0  0  0  0  0  0  0  0  0  0  0
   18.8541   18.0651   22.4360 H   0  0  0  0  0  0  0  0  0  0  0  0
   18.4027   19.7701   22.4947 H   0  0  0  0  0  0  0  0  0  0  0  0
   20.0638   19.2507   23.8002 C   0  0  0  0  0  0  0  0  0  0  0  0
   20.9233   18.5679   23.7813 H   0  0  0  0  0  0  0  0  0  0  0  0
   20.4666   20.2716   23.8563 H   0  0  0  0  0  0  0  0  0  0  0  0
   19.1902   18.9709   25.0478 C   0  0  0  0  0  0  0  0  0  0  0  0
   18.8392   17.9305   25.0284 H   0  0  0  0  0  0  0  0  0  0  0  0
   18.2937   19.6028   24.9953 H   0  0  0  0  0  0  0  0  0  0  0  0
   19.9086   19.2524   26.3872 C   0  0  2  0  0  0  0  0  0  0  0  0
   20.2851   20.2797   26.3655 H   0  0  0  0  0  0  0  0  0  0  0  0
   21.0972   18.3024   26.6195 C   0  0  0  0  0  0  0  0  0  0  0  0
   20.7789   17.2530   26.5862 H   0  0  0  0  0  0  0  0  0  0  0  0
   21.8787   18.4491   25.8651 H   0  0  0  0  0  0  0  0  0  0  0  0
   21.5542   18.4881   27.5993 H   0  0  0  0  0  0  0  0  0  0  0  0
   18.9496   19.1767   27.5426 N   0  3  0  0  0  0  0  0  0  0  0  0
   19.4123   19.4013   28.4281 H   0  0  0  0  0  0  0  0  0  0  0  0
   18.5499   18.2390   27.6361 H   0  0  0  0  0  0  0  0  0  0  0  0
   18.1715   19.8332   27.4306 H   0  0  0  0  0  0  0  0  0  0  0  0
  1  2  1  0  0  0  0
  1  3  1  0  0  0  0
  1  4  1  0  0  0  0
  1  5  1  0  0  0  0
  5  6  1  0  0  0  0
  5  7  1  0  0  0  0
  5  8  1  0  0  0  0
  8  9  1  0  0  0  0
  8 10  1  0  0  0  0
  8 11  1  0  0  0  0
 11 12  1  0  0  0  0
 11 13  1  0  0  0  0
 11 14  1  0  0  0  0
 14 15  1  0  0  0  0
 14 16  1  0  0  0  0
 14 17  1  0  0  0  0
 17 18  1  0  0  0  0
 17 19  1  0  0  0  0
 17 20  1  0  0  0  0
 20 21  1  0  0  0  0
 20 22  1  0  0  0  0
 22 23  1  0  0  0  0
 22 24  1  0  0  0  0
 22 25  1  0  0  0  0
 20 26  1  0  0  0  0
 26 27  1  0  0  0  0
 26 28  1  0  0  0  0
 26 29  1  0  0  0  0
M  END
> <VM2 Rank>
3

> <Conf_Id>
58

> <Probability>
5.07

> <Sum Probability>
20.55

> <Delta G>
0.427

> <G>
34.129

> <E>
-3.270

> <-TS>
37.399

> <U+W>
-27.414

> <U>
24.279

> <W>
-51.694

> <W(PB)>
-54.271

> <W(SA)>
2.577

> <Valence>
3.709

> <Coulomb>
19.380

> <VdW>
1.191

> <VdW6>
-8.093

> <VdW12>
9.284

> <Bond>
0.200

> <Angle>
1.161

> <Pdih>
2.348

> <Idih>
0.000

> <Tether>
0.000

$$$$
VeraChem MOL file


 29 28  0  0  0  0  0  0  0  0999 V2000     
   18.8287   18.7944   19.4037 C   0  0  0  0  0  0  0  0  0  0  0  0
   18.6829   17.8743   19.9832 H   0  0  0  0  0  0  0  0  0  0  0  0
   17.9439   19.4301   19.5381 H   0  0  0  0  0  0  0  0  0  0  0  0
   18.8816   18.5120   18.3443 H   0  0  0  0  0  0  0  0  0  0  0  0
   20.1157   19.5361   19.8305 C   0  0  0  0  0  0  0  0  0  0  0  0
   20.2825   20.3785   19.1448 H   0  0  0  0  0  0  0  0  0  0  0  0
   20.9819   18.8696   19.7152 H   0  0  0  0  0  0  0  0  0  0  0  0
   20.0615   20.0783   21.2791 C   0  0  0  0  0  0  0  0  0  0  0  0
   20.9617   20.6821   21.4591 H   0  0  0  0  0  0  0  0  0  0  0  0
   19.2060   20.7597   21.3837 H   0  0  0  0  0  0  0  0  0  0  0  0
   19.9770   18.9655   22.3510 C   0  0  0  0  0  0  0  0  0  0  0  0
   20.8047   18.2569   22.2094 H   0  0  0  0  0  0  0  0  0  0  0  0
   19.0455   18.3976   22.2275 H   0  0  0  0  0  0  0  0  0  0  0  0
   20.0307   19.5438   23.7832 C   0  0  0  0  0  0  0  0  0  0  0  0
   20.9657   20.1056   23.9168 H   0  0  0  0  0  0  0  0  0  0  0  0
   19.2069   20.2582   23.9131 H   0  0  0  0  0  0  0  0  0  0  0  0
   19.9408   18.4306   24.8552 C   0  0  0  0  0  0  0  0  0  0  0  0
   20.7388   17.6982   24.6739 H   0  0  0  0  0  0  0  0  0  0  0  0
   18.9902   17.8906   24.7512 H   0  0  0  0  0  0  0  0  0  0  0  0
   20.0775   18.9690   26.2957 C   0  0  2  0  0  0  0  0  0  0  0  0
   21.0191   19.5222   26.3673 H   0  0  0  0  0  0  0  0  0  0  0  0
   20.1237   17.8056   27.2990 C   0  0  0  0  0  0  0  0  0  0  0  0
   20.2576   18.1796   28.3215 H   0  0  0  0  0  0  0  0  0  0  0  0
   19.1976   17.2179   27.2683 H   0  0  0  0  0  0  0  0  0  0  0  0
   20.9623   17.1335   27.0782 H   0  0  0  0  0  0  0  0  0  0  0  0
   18.9804   19.9329   26.6567 N   0  3  0  0  0  0  0  0  0  0  0  0
   18.9655   20.7364   26.0228 H   0  0  0  0  0  0  0  0  0  0  0  0
   19.0981   20.2946   27.6074 H   0  0  0  0  0  0  0  0  0  0  0  0
   18.0609   19.4857   26.6102 H   0  0  0  0  0  0  0  0  0  0  0  0
  1  2  1  0  0  0  0
  1  3  1  0  0  0  0
  1  4  1  0  0  0  0
  1  5  1  0  0  0  0
  5  6  1  0  0  0  0
  5  7  1  0  0  0  0
  5  8  1  0  0  0  0
  8  9  1  0  0  0  0
  8 10  1  0  0  0  0
  8 11  1  0  0  0  0
 11 12  1  0  0  0  0
 11 13  1  0  0  0  0
 11 14  1  0  0  0  0
 14 15  1  0  0  0  0
 14 16  1  0  0  0  0
 14 17  1  0  0  0  0
 17 18  1  0  0  0  0
 17 19  1  0  0  0  0
 17 20  1  0  0  0  0
 20 21  1  0  0  0  0
 20 22  1  0  0  0  0
 22 23  1  0  0  0  0
 22 24  1  0  0  0  0
 22 25  1  0  0  0  0
 20 26  1  0  0  0  0
 26 27  1  0  0  0  0
 26 28  1  0  0  0  0
 26 29  1  0  0  0  0
M  END
> <VM2 Rank>
4

> <Conf_Id>
1236

> <Probability>
3.90

> <Sum Probability>
24.45

> <Delta G>
0.583

> <G>
34.285

> <E>
-3.210

> <-TS>
37.496

> <U+W>
-27.355

> <U>
24.589

> <W>
-51.944

> <W(PB)>
-54.479

> <W(SA)>
2.535

> <Valence>
3.670

> <Coulomb>
19.723

> <VdW>
1.196

> <VdW6>
-8.561

> <VdW12>
9.756

> <Bond>
0.223

> <Angle>
1.119

> <Pdih>
2.329

> <Idih>
0.000

> <Tether>
0.000

$$$$
VeraChem MOL file


 29 28  0  0  0  0  0  0  0  0999 V2000     
   20.4858   18.8972   19.3013 C   0  0  0  0  0  0  0  0  0  0  0  0
   20.3543   18.5904   18.2556 H   0  0  0  0  0  0  0  0  0  0  0  0
   21.2785   19.6559   19.3315 H   0  0  0  0  0  0  0  0  0  0  0  0
   20.8285   18.0187   19.8619 H   0  0  0  0  0  0  0  0  0  0  0  0
   19.1618   19.4539   19.8720 C   0  0  0  0  0  0  0  0  0  0  0  0
   18.3941   18.6676   19.8590 H   0  0  0  0  0  0  0  0  0  0  0  0
   18.7974   20.2504   19.2082 H   0  0  0  0  0  0  0  0  0  0  0  0
   19.3011   20.0257   21.3035 C   0  0  0  0  0  0  0  0  0  0  0  0
   20.0550   20.8249   21.3073 H   0  0  0  0  0  0  0  0  0  0  0  0
   18.3492   20.4972   21.5844 H   0  0  0  0  0  0  0  0  0  0  0  0
   19.6675   18.9572   22.3612 C   0  0  0  0  0  0  0  0  0  0  0  0
   20.6507   18.5262   22.1311 H   0  0  0  0  0  0  0  0  0  0  0  0
   18.9401   18.1348   22.3190 H   0  0  0  0  0  0  0  0  0  0  0  0
   19.6950   19.5492   23.7885 C   0  0  0  0  0  0  0  0  0  0  0  0
   20.4227   20.3717   23.8293 H   0  0  0  0  0  0  0  0  0  0  0  0
   18.7116   19.9805   24.0183 H   0  0  0  0  0  0  0  0  0  0  0  0
   20.0643   18.4806   24.8459 C   0  0  0  0  0  0  0  0  0  0  0  0
   21.0239   18.0240   24.5688 H   0  0  0  0  0  0  0  0  0  0  0  0
   19.3188   17.6743   24.8353 H   0  0  0  0  0  0  0  0  0  0  0  0
   20.1827   19.0600   26.2721 C   0  0  2  0  0  0  0  0  0  0  0  0
   20.9119   19.8757   26.2516 H   0  0  0  0  0  0  0  0  0  0  0  0
   20.6894   17.9840   27.2457 C   0  0  0  0  0  0  0  0  0  0  0  0
   19.9898   17.1408   27.3046 H   0  0  0  0  0  0  0  0  0  0  0  0
   21.6649   17.5970   26.9258 H   0  0  0  0  0  0  0  0  0  0  0  0
   20.8106   18.3988   28.2540 H   0  0  0  0  0  0  0  0  0  0  0  0
   18.8885   19.6482   26.7638 N   0  3  0  0  0  0  0  0  0  0  0  0
   18.9906   20.0449   27.7024 H   0  0  0  0  0  0  0  0  0  0  0  0
   18.1504   18.9406   26.8085 H   0  0  0  0  0  0  0  0  0  0  0  0
   18.5610   20.3977   26.1484 H   0  0  0  0  0  0  0  0  0  0  0  0
  1  2  1  0  0  0  0
  1  3  1  0  0  0  0
  1  4  1  0  0  0  0
  1  5  1  0  0  0  0
  5  6  1  0  0  0  0
  5  7  1  0  0  0  0
  5  8  1  0  0  0  0
  8  9  1  0  0  0  0
  8 10  1  0  0  0  0
  8 11  1  0  0  0  0
 11 12  1  0  0  0  0
 11 13  1  0  0  0  0
 11 14  1  0  0  0  0
 14 15  1  0  0  0  0
 14 16  1  0  0  0  0
 14 17  1  0  0  0  0
 17 18  1  0  0  0  0
 17 19  1  0  0  0  0
 17 20  1  0  0  0  0
 20 21  1  0  0  0  0
 20 22  1  0  0  0  0
 22 23  1  0  0  0  0
 22 24  1  0  0  0  0
 22 25  1  0  0  0  0
 20 26  1  0  0  0  0
 26 27  1  0  0  0  0
 26 28  1  0  0  0  0
 26 29  1  0  0  0  0
M  END
> <VM2 Rank>
5

> <Conf_Id>
231

> <Probability>
3.80

> <Sum Probability>
28.25

> <Delta G>
0.599

> <G>
34.301

> <E>
-3.195

> <-TS>
37.495

> <U+W>
-27.339

> <U>
24.573

> <W>
-51.912

> <W(PB)>
-54.449

> <W(SA)>
2.537

> <Valence>
3.669

> <Coulomb>
19.705

> <VdW>
1.199

> <VdW6>
-8.560

> <VdW12>
9.759

> <Bond>
0.223

> <Angle>
1.119

> <Pdih>
2.327

> <Idih>
0.000

> <Tether>
0.000

$$$$
VeraChem MOL file


 29 28  0  0  0  0  0  0  0  0999 V2000     
   20.6751   18.9878   19.1354 C   0  0  0  0  0  0  0  0  0  0  0  0
   21.2760   18.1144   19.4208 H   0  0  0  0  0  0  0  0  0  0  0  0
   20.3358   18.8402   18.1019 H   0  0  0  0  0  0  0  0  0  0  0  0
   21.3261   19.8716   19.1535 H   0  0  0  0  0  0  0  0  0  0  0  0
   19.4708   19.1666   20.0839 C   0  0  0  0  0  0  0  0  0  0  0  0
   18.8214   18.2822   20.0196 H   0  0  0  0  0  0  0  0  0  0  0  0
   18.8707   20.0256   19.7525 H   0  0  0  0  0  0  0  0  0  0  0  0
   19.9210   19.3772   21.5465 C   0  0  0  0  0  0  0  0  0  0  0  0
   20.5269   18.5174   21.8604 H   0  0  0  0  0  0  0  0  0  0  0  0
   20.5677   20.2635   21.6059 H   0  0  0  0  0  0  0  0  0  0  0  0
   18.7136   19.5521   22.4989 C   0  0  0  0  0  0  0  0  0  0  0  0
   18.0965   18.6431   22.4865 H   0  0  0  0  0  0  0  0  0  0  0  0
   18.0758   20.3625   22.1197 H   0  0  0  0  0  0  0  0  0  0  0  0
   19.1142   19.8878   23.9567 C   0  0  0  0  0  0  0  0  0  0  0  0
   19.7292   20.7984   23.9681 H   0  0  0  0  0  0  0  0  0  0  0  0
   18.1984   20.1264   24.5131 H   0  0  0  0  0  0  0  0  0  0  0  0
   19.8699   18.7380   24.6716 C   0  0  0  0  0  0  0  0  0  0  0  0
   20.7968   18.5194   24.1273 H   0  0  0  0  0  0  0  0  0  0  0  0
   19.2649   17.8219   24.6440 H   0  0  0  0  0  0  0  0  0  0  0  0
   20.2342   19.0751   26.1339 C   0  0  2  0  0  0  0  0  0  0  0  0
   20.8046   20.0091   26.1387 H   0  0  0  0  0  0  0  0  0  0  0  0
   21.1161   17.9681   26.7335 C   0  0  0  0  0  0  0  0  0  0  0  0
   21.4077   18.2179   27.7611 H   0  0  0  0  0  0  0  0  0  0  0  0
   20.5882   17.0064   26.7520 H   0  0  0  0  0  0  0  0  0  0  0  0
   22.0356   17.8420   26.1484 H   0  0  0  0  0  0  0  0  0  0  0  0
   19.0210   19.3033   26.9936 N   0  3  0  0  0  0  0  0  0  0  0  0
   18.4311   18.4680   27.0354 H   0  0  0  0  0  0  0  0  0  0  0  0
   18.4461   20.0697   26.6335 H   0  0  0  0  0  0  0  0  0  0  0  0
   19.2830   19.5424   27.9543 H   0  0  0  0  0  0  0  0  0  0  0  0
  1  2  1  0  0  0  0
  1  3  1  0  0  0  0
  1  4  1  0  0  0  0
  1  5  1  0  0  0  0
  5  6  1  0  0  0  0
  5  7  1  0  0  0  0
  5  8  1  0  0  0  0
  8  9  1  0  0  0  0
  8 10  1  0  0  0  0
  8 11  1  0  0  0  0
 11 12  1  0  0  0  0
 11 13  1  0  0  0  0
 11 14  1  0  0  0  0
 14 15  1  0  0  0  0
 14 16  1  0  0  0  0
 14 17  1  0  0  0  0
 17 18  1  0  0  0  0
 17 19  1  0  0  0  0
 17 20  1  0  0  0  0
 20 21  1  0  0  0  0
 20 22  1  0  0  0  0
 22 23  1  0  0  0  0
 22 24  1  0  0  0  0
 22 25  1  0  0  0  0
 20 26  1  0  0  0  0
 26 27  1  0  0  0  0
 26 28  1  0  0  0  0
 26 29  1  0  0  0  0
M  END
> <VM2 Rank>
6

> <Conf_Id>
625

> <Probability>
3.49

> <Sum Probability>
31.74

> <Delta G>
0.650

> <G>
34.353

> <E>
-3.103

> <-TS>
37.456

> <U+W>
-27.248

> <U>
24.710

> <W>
-51.958

> <W(PB)>
-54.511

> <W(SA)>
2.553

> <Valence>
3.735

> <Coulomb>
19.760

> <VdW>
1.216

> <VdW6>
-8.624

> <VdW12>
9.840

> <Bond>
0.236

> <Angle>
1.168

> <Pdih>
2.331

> <Idih>
0.000

> <Tether>
0.000

$$$$
VeraChem MOL file


 29 28  0  0  0  0  0  0  0  0999 V2000     
   19.7045   20.0255   19.0213 C   0  0  0  0  0  0  0  0  0  0  0  0
   20.4611   20.3915   18.3152 H   0  0  0  0  0  0  0  0  0  0  0  0
   19.2424   19.1299   18.5858 H   0  0  0  0  0  0  0  0  0  0  0  0
   18.9303   20.7980   19.1164 H   0  0  0  0  0  0  0  0  0  0  0  0
   20.3440   19.7098   20.3900 C   0  0  0  0  0  0  0  0  0  0  0  0
   20.8268   20.6150   20.7842 H   0  0  0  0  0  0  0  0  0  0  0  0
   21.1363   18.9596   20.2579 H   0  0  0  0  0  0  0  0  0  0  0  0
   19.2995   19.1921   21.4033 C   0  0  0  0  0  0  0  0  0  0  0  0
   18.5086   19.9442   21.5305 H   0  0  0  0  0  0  0  0  0  0  0  0
   18.8179   18.2890   21.0033 H   0  0  0  0  0  0  0  0  0  0  0  0
   19.9363   18.8743   22.7749 C   0  0  0  0  0  0  0  0  0  0  0  0
   20.4223   19.7790   23.1636 H   0  0  0  0  0  0  0  0  0  0  0  0
   20.7242   18.1193   22.6463 H   0  0  0  0  0  0  0  0  0  0  0  0
   18.8871   18.3578   23.7884 C   0  0  0  0  0  0  0  0  0  0  0  0
   18.1091   19.1181   23.9389 H   0  0  0  0  0  0  0  0  0  0  0  0
   18.3772   17.4827   23.3625 H   0  0  0  0  0  0  0  0  0  0  0  0
   19.5031   17.9514   25.1516 C   0  0  0  0  0  0  0  0  0  0  0  0
   20.2035   17.1214   24.9890 H   0  0  0  0  0  0  0  0  0  0  0  0
   18.7088   17.5594   25.8006 H   0  0  0  0  0  0  0  0  0  0  0  0
   20.2407   19.0964   25.8814 C   0  0  2  0  0  0  0  0  0  0  0  0
   21.0408   19.4614   25.2307 H   0  0  0  0  0  0  0  0  0  0  0  0
   20.8786   18.5794   27.1804 C   0  0  0  0  0  0  0  0  0  0  0  0
   20.1166   18.2048   27.8754 H   0  0  0  0  0  0  0  0  0  0  0  0
   21.5812   17.7630   26.9713 H   0  0  0  0  0  0  0  0  0  0  0  0
   21.4369   19.3784   27.6836 H   0  0  0  0  0  0  0  0  0  0  0  0
   19.3423   20.2693   26.1627 N   0  3  0  0  0  0  0  0  0  0  0  0
   19.8513   21.0297   26.6224 H   0  0  0  0  0  0  0  0  0  0  0  0
   18.5658   20.0053   26.7749 H   0  0  0  0  0  0  0  0  0  0  0  0
   18.9411   20.6448   25.2990 H   0  0  0  0  0  0  0  0  0  0  0  0
  1  2  1  0  0  0  0
  1  3  1  0  0  0  0
  1  4  1  0  0  0  0
  1  5  1  0  0  0  0
  5  6  1  0  0  0  0
  5  7  1  0  0  0  0
  5  8  1  0  0  0  0
  8  9  1  0  0  0  0
  8 10  1  0  0  0  0
  8 11  1  0  0  0  0
 11 12  1  0  0  0  0
 11 13  1  0  0  0  0
 11 14  1  0  0  0  0
 14 15  1  0  0  0  0
 14 16  1  0  0  0  0
 14 17  1  0  0  0  0
 17 18  1  0  0  0  0
 17 19  1  0  0  0  0
 17 20  1  0  0  0  0
 20 21  1  0  0  0  0
 20 22  1  0  0  0  0
 22 23  1  0  0  0  0
 22 24  1  0  0  0  0
 22 25  1  0  0  0  0
 20 26  1  0  0  0  0
 26 27  1  0  0  0  0
 26 28  1  0  0  0  0
 26 29  1  0  0  0  0
M  END
> <VM2 Rank>
7

> <Conf_Id>
1296

> <Probability>
3.43

> <Sum Probability>
35.17

> <Delta G>
0.661

> <G>
34.363

> <E>
-3.215

> <-TS>
37.578

> <U+W>
-27.360

> <U>
24.672

> <W>
-52.032

> <W(PB)>
-54.582

> <W(SA)>
2.550

> <Valence>
3.465

> <Coulomb>
20.280

> <VdW>
0.927

> <VdW6>
-8.843

> <VdW12>
9.770

> <Bond>
0.217

> <Angle>
1.094

> <Pdih>
2.153

> <Idih>
0.000

> <Tether>
0.000

$$$$
VeraChem MOL file


 29 28  0  0  0  0  0  0  0  0999 V2000     
   18.6221   18.9159   19.2918 C   0  0  0  0  0  0  0  0  0  0  0  0
   18.8579   18.8308   18.2231 H   0  0  0  0  0  0  0  0  0  0  0  0
   18.1683   17.9694   19.6133 H   0  0  0  0  0  0  0  0  0  0  0  0
   17.8744   19.7111   19.4098 H   0  0  0  0  0  0  0  0  0  0  0  0
   19.8949   19.2261   20.1076 C   0  0  0  0  0  0  0  0  0  0  0  0
   20.3446   20.1592   19.7402 H   0  0  0  0  0  0  0  0  0  0  0  0
   20.6358   18.4310   19.9439 H   0  0  0  0  0  0  0  0  0  0  0  0
   19.5905   19.3519   21.6168 C   0  0  0  0  0  0  0  0  0  0  0  0
   18.8512   20.1491   21.7755 H   0  0  0  0  0  0  0  0  0  0  0  0
   19.1338   18.4177   21.9686 H   0  0  0  0  0  0  0  0  0  0  0  0
   20.8669   19.6587   22.4362 C   0  0  0  0  0  0  0  0  0  0  0  0
   21.3514   20.5539   22.0223 H   0  0  0  0  0  0  0  0  0  0  0  0
   21.5875   18.8373   22.3212 H   0  0  0  0  0  0  0  0  0  0  0  0
   20.5921   19.9013   23.9406 C   0  0  0  0  0  0  0  0  0  0  0  0
   21.5303   20.2144   24.4193 H   0  0  0  0  0  0  0  0  0  0  0  0
   19.8929   20.7413   24.0482 H   0  0  0  0  0  0  0  0  0  0  0  0
   20.0435   18.6519   24.6761 C   0  0  0  0  0  0  0  0  0  0  0  0
   20.7003   17.7977   24.4642 H   0  0  0  0  0  0  0  0  0  0  0  0
   19.0505   18.3902   24.2894 H   0  0  0  0  0  0  0  0  0  0  0  0
   19.9585   18.8473   26.2051 C   0  0  2  0  0  0  0  0  0  0  0  0
   20.9523   19.1228   26.5715 H   0  0  0  0  0  0  0  0  0  0  0  0
   19.5380   17.5369   26.8893 C   0  0  0  0  0  0  0  0  0  0  0  0
   18.5423   17.2172   26.5570 H   0  0  0  0  0  0  0  0  0  0  0  0
   20.2487   16.7327   26.6616 H   0  0  0  0  0  0  0  0  0  0  0  0
   19.5118   17.6589   27.9792 H   0  0  0  0  0  0  0  0  0  0  0  0
   19.0295   19.9659   26.5905 N   0  3  0  0  0  0  0  0  0  0  0  0
   19.0020   20.0963   27.6058 H   0  0  0  0  0  0  0  0  0  0  0  0
   18.0726   19.7800   26.2789 H   0  0  0  0  0  0  0  0  0  0  0  0
   19.3226   20.8543   26.1751 H   0  0  0  0  0  0  0  0  0  0  0  0
  1  2  1  0  0  0  0
  1  3  1  0  0  0  0
  1  4  1  0  0  0  0
  1  5  1  0  0  0  0
  5  6  1  0  0  0  0
  5  7  1  0  0  0  0
  5  8  1  0  0  0  0
  8  9  1  0  0  0  0
  8 10  1  0  0  0  0
  8 11  1  0  0  0  0
 11 12  1  0  0  0  0
 11 13  1  0  0  0  0
 11 14  1  0  0  0  0
 14 15  1  0  0  0  0
 14 16  1  0  0  0  0
 14 17  1  0  0  0  0
 17 18  1  0  0  0  0
 17 19  1  0  0  0  0
 17 20  1  0  0  0  0
 20 21  1  0  0  0  0
 20 22  1  0  0  0  0
 22 23  1  0  0  0  0
 22 24  1  0  0  0  0
 22 25  1  0  0  0  0
 20 26  1  0  0  0  0
 26 27  1  0  0  0  0
 26 28  1  0  0  0  0
 26 29  1  0  0  0  0
M  END
> <VM2 Rank>
8

> <Conf_Id>
987

> <Probability>
3.41

> <Sum Probability>
38.58

> <Delta G>
0.663

> <G>
34.366

> <E>
-3.137

> <-TS>
37.503

> <U+W>
-27.282

> <U>
24.740

> <W>
-52.022

> <W(PB)>
-54.547

> <W(SA)>
2.525

> <Valence>
3.693

> <Coulomb>
19.918

> <VdW>
1.129

> <VdW6>
-8.666

> <VdW12>
9.795

> <Bond>
0.229

> <Angle>
1.104

> <Pdih>
2.361

> <Idih>
0.000

> <Tether>
0.000

$$$$
VeraChem MOL file


 29 28  0  0  0  0  0  0  0  0999 V2000     
   19.1697   20.2660   19.2416 C   0  0  0  0  0  0  0  0  0  0  0  0
   18.2210   20.7491   18.9740 H   0  0  0  0  0  0  0  0  0  0  0  0
   19.9583   21.0289   19.2065 H   0  0  0  0  0  0  0  0  0  0  0  0
   19.3904   19.5104   18.4763 H   0  0  0  0  0  0  0  0  0  0  0  0
   19.0792   19.6267   20.6434 C   0  0  0  0  0  0  0  0  0  0  0  0
   18.2639   18.8898   20.6556 H   0  0  0  0  0  0  0  0  0  0  0  0
   18.8173   20.4045   21.3727 H   0  0  0  0  0  0  0  0  0  0  0  0
   20.4076   18.9429   21.0444 C   0  0  0  0  0  0  0  0  0  0  0  0
   20.6915   18.2281   20.2597 H   0  0  0  0  0  0  0  0  0  0  0  0
   21.2116   19.6906   21.0854 H   0  0  0  0  0  0  0  0  0  0  0  0
   20.3336   18.1855   22.3930 C   0  0  0  0  0  0  0  0  0  0  0  0
   21.2745   17.6357   22.5336 H   0  0  0  0  0  0  0  0  0  0  0  0
   19.5383   17.4287   22.3464 H   0  0  0  0  0  0  0  0  0  0  0  0
   20.1032   19.1115   23.6115 C   0  0  0  0  0  0  0  0  0  0  0  0
   20.8711   19.8974   23.6245 H   0  0  0  0  0  0  0  0  0  0  0  0
   19.1322   19.6124   23.5139 H   0  0  0  0  0  0  0  0  0  0  0  0
   20.1489   18.3245   24.9439 C   0  0  0  0  0  0  0  0  0  0  0  0
   21.1054   17.7886   25.0073 H   0  0  0  0  0  0  0  0  0  0  0  0
   19.3603   17.5602   24.9508 H   0  0  0  0  0  0  0  0  0  0  0  0
   20.0045   19.2313   26.1852 C   0  0  2  0  0  0  0  0  0  0  0  0
   20.7840   19.9983   26.1423 H   0  0  0  0  0  0  0  0  0  0  0  0
   20.2032   18.4128   27.4708 C   0  0  0  0  0  0  0  0  0  0  0  0
   20.1381   19.0577   28.3558 H   0  0  0  0  0  0  0  0  0  0  0  0
   19.4423   17.6276   27.5631 H   0  0  0  0  0  0  0  0  0  0  0  0
   21.1905   17.9344   27.4798 H   0  0  0  0  0  0  0  0  0  0  0  0
   18.6861   19.9550   26.2202 N   0  3  0  0  0  0  0  0  0  0  0  0
   18.6160   20.5648   27.0399 H   0  0  0  0  0  0  0  0  0  0  0  0
   17.9016   19.2988   26.2580 H   0  0  0  0  0  0  0  0  0  0  0  0
   18.5593   20.5410   25.3907 H   0  0  0  0  0  0  0  0  0  0  0  0
  1  2  1  0  0  0  0
  1  3  1  0  0  0  0
  1  4  1  0  0  0  0
  1  5  1  0  0  0  0
  5  6  1  0  0  0  0
  5  7  1  0  0  0  0
  5  8  1  0  0  0  0
  8  9  1  0  0  0  0
  8 10  1  0  0  0  0
  8 11  1  0  0  0  0
 11 12  1  0  0  0  0
 11 13  1  0  0  0  0
 11 14  1  0  0  0  0
 14 15  1  0  0  0  0
 14 16  1  0  0  0  0
 14 17  1  0  0  0  0
 17 18  1  0  0  0  0
 17 19  1  0  0  0  0
 17 20  1  0  0  0  0
 20 21  1  0  0  0  0
 20 22  1  0  0  0  0
 22 23  1  0  0  0  0
 22 24  1  0  0  0  0
 22 25  1  0  0  0  0
 20 26  1  0  0  0  0
 26 27  1  0  0  0  0
 26 28  1  0  0  0  0
 26 29  1  0  0  0  0
M  END
> <VM2 Rank>
9

> <Conf_Id>
1134

> <Probability>
3.25

> <Sum Probability>
41.84

> <Delta G>
0.692

> <G>
34.394

> <E>
-3.084

> <-TS>
37.478

> <U+W>
-27.228

> <U>
25.011

> <W>
-52.239

> <W(PB)>
-54.750

> <W(SA)>
2.511

> <Valence>
3.709

> <Coulomb>
20.124

> <VdW>
1.178

> <VdW6>
-8.623

> <VdW12>
9.801

> <Bond>
0.228

> <Angle>
1.140

> <Pdih>
2.340

> <Idih>
0.000

> <Tether>
0.000

$$$$
VeraChem MOL file


 29 28  0  0  0  0  0  0  0  0999 V2000     
   19.8087   20.3258   19.1845 C   0  0  0  0  0  0  0  0  0  0  0  0
   19.6639   19.5320   18.4401 H   0  0  0  0  0  0  0  0  0  0  0  0
   18.8774   20.9028   19.2548 H   0  0  0  0  0  0  0  0  0  0  0  0
   20.5940   20.9968   18.8129 H   0  0  0  0  0  0  0  0  0  0  0  0
   20.2001   19.7362   20.5561 C   0  0  0  0  0  0  0  0  0  0  0  0
   20.3757   20.5599   21.2605 H   0  0  0  0  0  0  0  0  0  0  0  0
   21.1490   19.1901   20.4604 H   0  0  0  0  0  0  0  0  0  0  0  0
   19.1054   18.7896   21.1026 C   0  0  0  0  0  0  0  0  0  0  0  0
   18.1710   19.3489   21.2483 H   0  0  0  0  0  0  0  0  0  0  0  0
   18.8896   18.0207   20.3479 H   0  0  0  0  0  0  0  0  0  0  0  0
   19.4992   18.0832   22.4231 C   0  0  0  0  0  0  0  0  0  0  0  0
   20.4242   17.5101   22.2711 H   0  0  0  0  0  0  0  0  0  0  0  0
   18.7192   17.3499   22.6706 H   0  0  0  0  0  0  0  0  0  0  0  0
   19.6746   19.0537   23.6157 C   0  0  0  0  0  0  0  0  0  0  0  0
   20.5058   19.7431   23.4179 H   0  0  0  0  0  0  0  0  0  0  0  0
   18.7677   19.6641   23.7189 H   0  0  0  0  0  0  0  0  0  0  0  0
   19.9534   18.2928   24.9347 C   0  0  0  0  0  0  0  0  0  0  0  0
   20.8285   17.6448   24.7918 H   0  0  0  0  0  0  0  0  0  0  0  0
   19.1084   17.6315   25.1685 H   0  0  0  0  0  0  0  0  0  0  0  0
   20.2211   19.2347   26.1284 C   0  0  2  0  0  0  0  0  0  0  0  0
   21.0500   19.8981   25.8628 H   0  0  0  0  0  0  0  0  0  0  0  0
   20.6302   18.4234   27.3681 C   0  0  0  0  0  0  0  0  0  0  0  0
   20.8573   19.0889   28.2101 H   0  0  0  0  0  0  0  0  0  0  0  0
   19.8290   17.7409   27.6780 H   0  0  0  0  0  0  0  0  0  0  0  0
   21.5279   17.8264   27.1645 H   0  0  0  0  0  0  0  0  0  0  0  0
   19.0433   20.1167   26.4409 N   0  3  0  0  0  0  0  0  0  0  0  0
   18.7865   20.6959   25.6370 H   0  0  0  0  0  0  0  0  0  0  0  0
   19.2454   20.7480   27.2215 H   0  0  0  0  0  0  0  0  0  0  0  0
   18.2214   19.5638   26.6983 H   0  0  0  0  0  0  0  0  0  0  0  0
  1  2  1  0  0  0  0
  1  3  1  0  0  0  0
  1  4  1  0  0  0  0
  1  5  1  0  0  0  0
  5  6  1  0  0  0  0
  5  7  1  0  0  0  0
  5  8  1  0  0  0  0
  8  9  1  0  0  0  0
  8 10  1  0  0  0  0
  8 11  1  0  0  0  0
 11 12  1  0  0  0  0
 11 13  1  0  0  0  0
 11 14  1  0  0  0  0
 14 15  1  0  0  0  0
 14 16  1  0  0  0  0
 14 17  1  0  0  0  0
 17 18  1  0  0  0  0
 17 19  1  0  0  0  0
 17 20  1  0  0  0  0
 20 21  1  0  0  0  0
 20 22  1  0  0  0  0
 22 23  1  0  0  0  0
 22 24  1  0  0  0  0
 22 25  1  0  0  0  0
 20 26  1  0  0  0  0
 26 27  1  0  0  0  0
 26 28  1  0  0  0  0
 26 29  1  0  0  0  0
M  END
> <VM2 Rank>
10

> <Conf_Id>
1561

> <Probability>
3.21

> <Sum Probability>
45.05

> <Delta G>
0.699

> <G>
34.401

> <E>
-3.085

> <-TS>
37.486

> <U+W>
-27.230

> <U>
24.820

> <W>
-52.050

> <W(PB)>
-54.564

> <W(SA)>
2.514

> <Valence>
3.711

> <Coulomb>
19.938

> <VdW>
1.171

> <VdW6>
-8.614

> <VdW12>
9.786

> <Bond>
0.226

> <Angle>
1.142

> <Pdih>
2.342

> <Idih>
0.000

> <Tether>
0.000

$$$$
VeraChem MOL file


 29 28  0  0  0  0  0  0  0  0999 V2000     
   20.2023   19.6775   18.9796 C   0  0  0  0  0  0  0  0  0  0  0  0
   19.4974   18.9456   18.5641 H   0  0  0  0  0  0  0  0  0  0  0  0
   20.1887   20.5639   18.3322 H   0  0  0  0  0  0  0  0  0  0  0  0
   21.2101   19.2441   18.9366 H   0  0  0  0  0  0  0  0  0  0  0  0
   19.8218   20.0539   20.4271 C   0  0  0  0  0  0  0  0  0  0  0  0
   18.8242   20.5150   20.4337 H   0  0  0  0  0  0  0  0  0  0  0  0
   20.5238   20.8113   20.8033 H   0  0  0  0  0  0  0  0  0  0  0  0
   19.8335   18.8228   21.3600 C   0  0  0  0  0  0  0  0  0  0  0  0
   19.1324   18.0678   20.9782 H   0  0  0  0  0  0  0  0  0  0  0  0
   20.8320   18.3642   21.3486 H   0  0  0  0  0  0  0  0  0  0  0  0
   19.4529   19.1959   22.8104 C   0  0  0  0  0  0  0  0  0  0  0  0
   18.4528   19.6510   22.8211 H   0  0  0  0  0  0  0  0  0  0  0  0
   20.1537   19.9556   23.1815 H   0  0  0  0  0  0  0  0  0  0  0  0
   19.4690   17.9613   23.7431 C   0  0  0  0  0  0  0  0  0  0  0  0
   18.8048   17.1899   23.3295 H   0  0  0  0  0  0  0  0  0  0  0  0
   20.4734   17.5178   23.7571 H   0  0  0  0  0  0  0  0  0  0  0  0
   19.0079   18.2814   25.1885 C   0  0  0  0  0  0  0  0  0  0  0  0
   19.0305   17.3585   25.7831 H   0  0  0  0  0  0  0  0  0  0  0  0
   17.9564   18.5958   25.1548 H   0  0  0  0  0  0  0  0  0  0  0  0
   19.8287   19.3748   25.9122 C   0  0  2  0  0  0  0  0  0  0  0  0
   19.7919   20.2886   25.3119 H   0  0  0  0  0  0  0  0  0  0  0  0
   21.3023   18.9686   26.0915 C   0  0  0  0  0  0  0  0  0  0  0  0
   21.8506   19.7387   26.6479 H   0  0  0  0  0  0  0  0  0  0  0  0
   21.3891   18.0237   26.6421 H   0  0  0  0  0  0  0  0  0  0  0  0
   21.8025   18.8497   25.1233 H   0  0  0  0  0  0  0  0  0  0  0  0
   19.2176   19.7197   27.2417 N   0  3  0  0  0  0  0  0  0  0  0  0
   19.7346   20.4711   27.7075 H   0  0  0  0  0  0  0  0  0  0  0  0
   19.2158   18.9138   27.8727 H   0  0  0  0  0  0  0  0  0  0  0  0
   18.2481   20.0339   27.1411 H   0  0  0  0  0  0  0  0  0  0  0  0
  1  2  1  0  0  0  0
  1  3  1  0  0  0  0
  1  4  1  0  0  0  0
  1  5  1  0  0  0  0
  5  6  1  0  0  0  0
  5  7  1  0  0  0  0
  5  8  1  0  0  0  0
  8  9  1  0  0  0  0
  8 10  1  0  0  0  0
  8 11  1  0  0  0  0
 11 12  1  0  0  0  0
 11 13  1  0  0  0  0
 11 14  1  0  0  0  0
 14 15  1  0  0  0  0
 14 16  1  0  0  0  0
 14 17  1  0  0  0  0
 17 18  1  0  0  0  0
 17 19  1  0  0  0  0
 17 20  1  0  0  0  0
 20 21  1  0  0  0  0
 20 22  1  0  0  0  0
 22 23  1  0  0  0  0
 22 24  1  0  0  0  0
 22 25  1  0  0  0  0
 20 26  1  0  0  0  0
 26 27  1  0  0  0  0
 26 28  1  0  0  0  0
 26 29  1  0  0  0  0
M  END
> <VM2 Rank>
11

> <Conf_Id>
1562

> <Probability>
2.25

> <Sum Probability>
47.30

> <Delta G>
0.912

> <G>
34.614

> <E>
-3.060

> <-TS>
37.674

> <U+W>
-27.205

> <U>
24.848

> <W>
-52.053

> <W(PB)>
-54.585

> <W(SA)>
2.533

> <Valence>
3.959

> <Coulomb>
19.891

> <VdW>
0.998

> <VdW6>
-9.070

> <VdW12>
10.067

> <Bond>
0.229

> <Angle>
1.422

> <Pdih>
2.308

> <Idih>
0.000

> <Tether>
0.000

$$$$
VeraChem MOL file


 29 28  0  0  0  0  0  0  0  0999 V2000     
   19.1002   20.0458   19.3977 C   0  0  0  0  0  0  0  0  0  0  0  0
   18.2251   20.1772   20.0462 H   0  0  0  0  0  0  0  0  0  0  0  0
   19.7037   20.9616   19.4436 H   0  0  0  0  0  0  0  0  0  0  0  0
   18.7344   19.9361   18.3685 H   0  0  0  0  0  0  0  0  0  0  0  0
   19.9324   18.8107   19.8102 C   0  0  0  0  0  0  0  0  0  0  0  0
   20.7223   18.6505   19.0631 H   0  0  0  0  0  0  0  0  0  0  0  0
   19.2990   17.9130   19.7852 H   0  0  0  0  0  0  0  0  0  0  0  0
   20.5890   18.9492   21.2049 C   0  0  0  0  0  0  0  0  0  0  0  0
   21.2465   18.0841   21.3679 H   0  0  0  0  0  0  0  0  0  0  0  0
   21.2367   19.8367   21.2188 H   0  0  0  0  0  0  0  0  0  0  0  0
   19.5656   19.0316   22.3627 C   0  0  0  0  0  0  0  0  0  0  0  0
   18.8873   18.1686   22.3147 H   0  0  0  0  0  0  0  0  0  0  0  0
   18.9466   19.9313   22.2501 H   0  0  0  0  0  0  0  0  0  0  0  0
   20.2620   19.0644   23.7422 C   0  0  0  0  0  0  0  0  0  0  0  0
   20.8821   18.1650   23.8508 H   0  0  0  0  0  0  0  0  0  0  0  0
   20.9391   19.9285   23.7901 H   0  0  0  0  0  0  0  0  0  0  0  0
   19.2375   19.1458   24.9005 C   0  0  0  0  0  0  0  0  0  0  0  0
   18.6004   18.2513   24.8950 H   0  0  0  0  0  0  0  0  0  0  0  0
   18.5736   20.0017   24.7203 H   0  0  0  0  0  0  0  0  0  0  0  0
   19.8848   19.3147   26.2940 C   0  0  2  0  0  0  0  0  0  0  0  0
   20.5458   20.1862   26.2621 H   0  0  0  0  0  0  0  0  0  0  0  0
   20.7177   18.0857   26.7003 C   0  0  0  0  0  0  0  0  0  0  0  0
   21.1199   18.2096   27.7134 H   0  0  0  0  0  0  0  0  0  0  0  0
   20.1104   17.1721   26.6849 H   0  0  0  0  0  0  0  0  0  0  0  0
   21.5718   17.9427   26.0285 H   0  0  0  0  0  0  0  0  0  0  0  0
   18.8468   19.6081   27.3414 N   0  3  0  0  0  0  0  0  0  0  0  0
   19.2745   19.7599   28.2595 H   0  0  0  0  0  0  0  0  0  0  0  0
   18.1835   18.8345   27.4376 H   0  0  0  0  0  0  0  0  0  0  0  0
   18.3083   20.4489   27.1136 H   0  0  0  0  0  0  0  0  0  0  0  0
  1  2  1  0  0  0  0
  1  3  1  0  0  0  0
  1  4  1  0  0  0  0
  1  5  1  0  0  0  0
  5  6  1  0  0  0  0
  5  7  1  0  0  0  0
  5  8  1  0  0  0  0
  8  9  1  0  0  0  0
  8 10  1  0  0  0  0
  8 11  1  0  0  0  0
 11 12  1  0  0  0  0
 11 13  1  0  0  0  0
 11 14  1  0  0  0  0
 14 15  1  0  0  0  0
 14 16  1  0  0  0  0
 14 17  1  0  0  0  0
 17 18  1  0  0  0  0
 17 19  1  0  0  0  0
 17 20  1  0  0  0  0
 20 21  1  0  0  0  0
 20 22  1  0  0  0  0
 22 23  1  0  0  0  0
 22 24  1  0  0  0  0
 22 25  1  0  0  0  0
 20 26  1  0  0  0  0
 26 27  1  0  0  0  0
 26 28  1  0  0  0  0
 26 29  1  0  0  0  0
M  END
> <VM2 Rank>
12

> <Conf_Id>
1606

> <Probability>
1.86

> <Sum Probability>
49.16

> <Delta G>
1.024

> <G>
34.727

> <E>
-2.782

> <-TS>
37.509

> <U+W>
-26.927

> <U>
24.926

> <W>
-51.852

> <W(PB)>
-54.366

> <W(SA)>
2.514

> <Valence>
4.212

> <Coulomb>
19.386

> <VdW>
1.329

> <VdW6>
-8.714

> <VdW12>
10.043

> <Bond>
0.235

> <Angle>
1.400

> <Pdih>
2.577

> <Idih>
0.000

> <Tether>
0.000

$$$$
VeraChem MOL file


 29 28  0  0  0  0  0  0  0  0999 V2000     
   18.9123   18.7261   19.3815 C   0  0  0  0  0  0  0  0  0  0  0  0
   18.5893   18.9751   18.3624 H   0  0  0  0  0  0  0  0  0  0  0  0
   19.2508   17.6819   19.3808 H   0  0  0  0  0  0  0  0  0  0  0  0
   18.0336   18.8028   20.0337 H   0  0  0  0  0  0  0  0  0  0  0  0
   20.0426   19.6763   19.8376 C   0  0  0  0  0  0  0  0  0  0  0  0
   19.6704   20.7101   19.8588 H   0  0  0  0  0  0  0  0  0  0  0  0
   20.8471   19.6544   19.0892 H   0  0  0  0  0  0  0  0  0  0  0  0
   20.6381   19.3060   21.2174 C   0  0  0  0  0  0  0  0  0  0  0  0
   21.0269   18.2789   21.1851 H   0  0  0  0  0  0  0  0  0  0  0  0
   21.5015   19.9575   21.4106 H   0  0  0  0  0  0  0  0  0  0  0  0
   19.6289   19.4462   22.3821 C   0  0  0  0  0  0  0  0  0  0  0  0
   18.7935   18.7483   22.2387 H   0  0  0  0  0  0  0  0  0  0  0  0
   19.2037   20.4592   22.3781 H   0  0  0  0  0  0  0  0  0  0  0  0
   20.2909   19.1681   23.7507 C   0  0  0  0  0  0  0  0  0  0  0  0
   20.7226   18.1587   23.7393 H   0  0  0  0  0  0  0  0  0  0  0  0
   21.1215   19.8704   23.9062 H   0  0  0  0  0  0  0  0  0  0  0  0
   19.2787   19.3001   24.9152 C   0  0  0  0  0  0  0  0  0  0  0  0
   18.4807   18.5548   24.7987 H   0  0  0  0  0  0  0  0  0  0  0  0
   18.7969   20.2846   24.8491 H   0  0  0  0  0  0  0  0  0  0  0  0
   19.9186   19.1623   26.3155 C   0  0  2  0  0  0  0  0  0  0  0  0
   20.7367   19.8852   26.3917 H   0  0  0  0  0  0  0  0  0  0  0  0
   20.4892   17.7532   26.5570 C   0  0  0  0  0  0  0  0  0  0  0  0
   19.7166   16.9849   26.4283 H   0  0  0  0  0  0  0  0  0  0  0  0
   21.3122   17.5325   25.8676 H   0  0  0  0  0  0  0  0  0  0  0  0
   20.8879   17.6674   27.5753 H   0  0  0  0  0  0  0  0  0  0  0  0
   18.9368   19.5176   27.3972 N   0  3  0  0  0  0  0  0  0  0  0  0
   19.3675   19.4661   28.3248 H   0  0  0  0  0  0  0  0  0  0  0  0
   18.1342   18.8822   27.3973 H   0  0  0  0  0  0  0  0  0  0  0  0
   18.5761   20.4692   27.2814 H   0  0  0  0  0  0  0  0  0  0  0  0
  1  2  1  0  0  0  0
  1  3  1  0  0  0  0
  1  4  1  0  0  0  0
  1  5  1  0  0  0  0
  5  6  1  0  0  0  0
  5  7  1  0  0  0  0
  5  8  1  0  0  0  0
  8  9  1  0  0  0  0
  8 10  1  0  0  0  0
  8 11  1  0  0  0  0
 11 12  1  0  0  0  0
 11 13  1  0  0  0  0
 11 14  1  0  0  0  0
 14 15  1  0  0  0  0
 14 16  1  0  0  0  0
 14 17  1  0  0  0  0
 17 18  1  0  0  0  0
 17 19  1  0  0  0  0
 17 20  1  0  0  0  0
 20 21  1  0  0  0  0
 20 22  1  0  0  0  0
 22 23  1  0  0  0  0
 22 24  1  0  0  0  0
 22 25  1  0  0  0  0
 20 26  1  0  0  0  0
 26 27  1  0  0  0  0
 26 28  1  0  0  0  0
 26 29  1  0  0  0  0
M  END
> <VM2 Rank>
13

> <Conf_Id>
905

> <Probability>
1.70

> <Sum Probability>
50.86

> <Delta G>
1.077

> <G>
34.780

> <E>
-2.730

> <-TS>
37.509

> <U+W>
-26.874

> <U>
24.913

> <W>
-51.787

> <W(PB)>
-54.314

> <W(SA)>
2.527

> <Valence>
4.213

> <Coulomb>
19.377

> <VdW>
1.323

> <VdW6>
-8.715

> <VdW12>
10.038

> <Bond>
0.234

> <Angle>
1.400

> <Pdih>
2.579

> <Idih>
0.000

> <Tether>
0.000

$$$$
VeraChem MOL file


 29 28  0  0  0  0  0  0  0  0999 V2000     
   20.6834   19.4596   19.1718 C   0  0  0  0  0  0  0  0  0  0  0  0
   20.3535   19.6752   18.1472 H   0  0  0  0  0  0  0  0  0  0  0  0
   21.3874   20.2467   19.4719 H   0  0  0  0  0  0  0  0  0  0  0  0
   21.2241   18.5043   19.1579 H   0  0  0  0  0  0  0  0  0  0  0  0
   19.4763   19.3996   20.1316 C   0  0  0  0  0  0  0  0  0  0  0  0
   18.7743   18.6278   19.7860 H   0  0  0  0  0  0  0  0  0  0  0  0
   18.9367   20.3565   20.0994 H   0  0  0  0  0  0  0  0  0  0  0  0
   19.9133   19.0964   21.5818 C   0  0  0  0  0  0  0  0  0  0  0  0
   20.4502   18.1382   21.6093 H   0  0  0  0  0  0  0  0  0  0  0  0
   20.6205   19.8689   21.9108 H   0  0  0  0  0  0  0  0  0  0  0  0
   18.7038   19.0401   22.5458 C   0  0  0  0  0  0  0  0  0  0  0  0
   17.9710   18.3192   22.1576 H   0  0  0  0  0  0  0  0  0  0  0  0
   18.1975   20.0151   22.5629 H   0  0  0  0  0  0  0  0  0  0  0  0
   19.0809   18.6254   23.9893 C   0  0  0  0  0  0  0  0  0  0  0  0
   18.1525   18.4976   24.5610 H   0  0  0  0  0  0  0  0  0  0  0  0
   19.5679   17.6416   23.9637 H   0  0  0  0  0  0  0  0  0  0  0  0
   19.9949   19.6561   24.7067 C   0  0  0  0  0  0  0  0  0  0  0  0
   19.5452   20.6545   24.6281 H   0  0  0  0  0  0  0  0  0  0  0  0
   20.9608   19.7162   24.1901 H   0  0  0  0  0  0  0  0  0  0  0  0
   20.2634   19.3560   26.2004 C   0  0  2  0  0  0  0  0  0  0  0  0
   20.9051   20.1560   26.5824 H   0  0  0  0  0  0  0  0  0  0  0  0
   21.0106   18.0255   26.3967 C   0  0  0  0  0  0  0  0  0  0  0  0
   20.3880   17.1664   26.1200 H   0  0  0  0  0  0  0  0  0  0  0  0
   21.9241   17.9983   25.7898 H   0  0  0  0  0  0  0  0  0  0  0  0
   21.3048   17.9020   27.4462 H   0  0  0  0  0  0  0  0  0  0  0  0
   19.0095   19.3972   27.0298 N   0  3  0  0  0  0  0  0  0  0  0  0
   18.5281   20.2964   26.9381 H   0  0  0  0  0  0  0  0  0  0  0  0
   19.2138   19.2592   28.0237 H   0  0  0  0  0  0  0  0  0  0  0  0
   18.3528   18.6656   26.7470 H   0  0  0  0  0  0  0  0  0  0  0  0
  1  2  1  0  0  0  0
  1  3  1  0  0  0  0
  1  4  1  0  0  0  0
  1  5  1  0  0  0  0
  5  6  1  0  0  0  0
  5  7  1  0  0  0  0
  5  8  1  0  0  0  0
  8  9  1  0  0  0  0
  8 10  1  0  0  0  0
  8 11  1  0  0  0  0
 11 12  1  0  0  0  0
 11 13  1  0  0  0  0
 11 14  1  0  0  0  0
 14 15  1  0  0  0  0
 14 16  1  0  0  0  0
 14 17  1  0  0  0  0
 17 18  1  0  0  0  0
 17 19  1  0  0  0  0
 17 20  1  0  0  0  0
 20 21  1  0  0  0  0
 20 22  1  0  0  0  0
 22 23  1  0  0  0  0
 22 24  1  0  0  0  0
 22 25  1  0  0  0  0
 20 26  1  0  0  0  0
 26 27  1  0  0  0  0
 26 28  1  0  0  0  0
 26 29  1  0  0  0  0
M  END
> <VM2 Rank>
14

> <Conf_Id>
989

> <Probability>
1.67

> <Sum Probability>
52.53

> <Delta G>
1.090

> <G>
34.792

> <E>
-2.850

> <-TS>
37.643

> <U+W>
-26.995

> <U>
25.162

> <W>
-52.157

> <W(PB)>
-54.678

> <W(SA)>
2.521

> <Valence>
4.202

> <Coulomb>
19.686

> <VdW>
1.274

> <VdW6>
-9.288

> <VdW12>
10.561

> <Bond>
0.271

> <Angle>
1.436

> <Pdih>
2.495

> <Idih>
0.000

> <Tether>
0.000

$$$$
VeraChem MOL file


 29 28  0  0  0  0  0  0  0  0999 V2000     
   20.4597   19.9124   19.1357 C   0  0  0  0  0  0  0  0  0  0  0  0
   21.3873   19.3280   19.0801 H   0  0  0  0  0  0  0  0  0  0  0  0
   19.7393   19.4789   18.4298 H   0  0  0  0  0  0  0  0  0  0  0  0
   20.6843   20.9340   18.8027 H   0  0  0  0  0  0  0  0  0  0  0  0
   19.8945   19.9194   20.5719 C   0  0  0  0  0  0  0  0  0  0  0  0
   18.9845   20.5348   20.6022 H   0  0  0  0  0  0  0  0  0  0  0  0
   20.6244   20.3962   21.2393 H   0  0  0  0  0  0  0  0  0  0  0  0
   19.5741   18.4886   21.0649 C   0  0  0  0  0  0  0  0  0  0  0  0
   18.9058   18.0029   20.3405 H   0  0  0  0  0  0  0  0  0  0  0  0
   20.4946   17.8889   21.0848 H   0  0  0  0  0  0  0  0  0  0  0  0
   18.8987   18.4494   22.4577 C   0  0  0  0  0  0  0  0  0  0  0  0
   18.6053   17.4125   22.6725 H   0  0  0  0  0  0  0  0  0  0  0  0
   17.9687   19.0339   22.4311 H   0  0  0  0  0  0  0  0  0  0  0  0
   19.8072   18.9625   23.6008 C   0  0  0  0  0  0  0  0  0  0  0  0
   20.7580   18.4143   23.5746 H   0  0  0  0  0  0  0  0  0  0  0  0
   20.0424   20.0235   23.4449 H   0  0  0  0  0  0  0  0  0  0  0  0
   19.1345   18.7924   24.9851 C   0  0  0  0  0  0  0  0  0  0  0  0
   18.9607   17.7266   25.1844 H   0  0  0  0  0  0  0  0  0  0  0  0
   18.1454   19.2684   24.9533 H   0  0  0  0  0  0  0  0  0  0  0  0
   19.9390   19.4144   26.1492 C   0  0  2  0  0  0  0  0  0  0  0  0
   20.1332   20.4644   25.9099 H   0  0  0  0  0  0  0  0  0  0  0  0
   21.2885   18.7063   26.3659 C   0  0  0  0  0  0  0  0  0  0  0  0
   21.8134   19.1316   27.2301 H   0  0  0  0  0  0  0  0  0  0  0  0
   21.1490   17.6333   26.5470 H   0  0  0  0  0  0  0  0  0  0  0  0
   21.9459   18.8261   25.4970 H   0  0  0  0  0  0  0  0  0  0  0  0
   19.1399   19.4107   27.4227 N   0  3  0  0  0  0  0  0  0  0  0  0
   18.9160   18.4574   27.7210 H   0  0  0  0  0  0  0  0  0  0  0  0
   18.2552   19.9151   27.3144 H   0  0  0  0  0  0  0  0  0  0  0  0
   19.6534   19.8575   28.1878 H   0  0  0  0  0  0  0  0  0  0  0  0
  1  2  1  0  0  0  0
  1  3  1  0  0  0  0
  1  4  1  0  0  0  0
  1  5  1  0  0  0  0
  5  6  1  0  0  0  0
  5  7  1  0  0  0  0
  5  8  1  0  0  0  0
  8  9  1  0  0  0  0
  8 10  1  0  0  0  0
  8 11  1  0  0  0  0
 11 12  1  0  0  0  0
 11 13  1  0  0  0  0
 11 14  1  0  0  0  0
 14 15  1  0  0  0  0
 14 16  1  0  0  0  0
 14 17  1  0  0  0  0
 17 18  1  0  0  0  0
 17 19  1  0  0  0  0
 17 20  1  0  0  0  0
 20 21  1  0  0  0  0
 20 22  1  0  0  0  0
 22 23  1  0  0  0  0
 22 24  1  0  0  0  0
 22 25  1  0  0  0  0
 20 26  1  0  0  0  0
 26 27  1  0  0  0  0
 26 28  1  0  0  0  0
 26 29  1  0  0  0  0
M  END
> <VM2 Rank>
15

> <Conf_Id>
1048

> <Probability>
1.66

> <Sum Probability>
54.19

> <Delta G>
1.093

> <G>
34.795

> <E>
-2.706

> <-TS>
37.502

> <U+W>
-26.851

> <U>
25.086

> <W>
-51.937

> <W(PB)>
-54.491

> <W(SA)>
2.553

> <Valence>
4.251

> <Coulomb>
19.539

> <VdW>
1.297

> <VdW6>
-8.776

> <VdW12>
10.073

> <Bond>
0.238

> <Angle>
1.421

> <Pdih>
2.591

> <Idih>
0.000

> <Tether>
0.000

$$$$
VeraChem MOL file


 29 28  0  0  0  0  0  0  0  0999 V2000     
   18.5741   19.2294   19.2953 C   0  0  0  0  0  0  0  0  0  0  0  0
   18.3248   18.1603   19.2836 H   0  0  0  0  0  0  0  0  0  0  0  0
   17.7173   19.7760   19.7104 H   0  0  0  0  0  0  0  0  0  0  0  0
   18.7103   19.5551   18.2559 H   0  0  0  0  0  0  0  0  0  0  0  0
   19.8518   19.4917   20.1203 C   0  0  0  0  0  0  0  0  0  0  0  0
   20.0943   20.5632   20.0863 H   0  0  0  0  0  0  0  0  0  0  0  0
   20.6973   18.9604   19.6612 H   0  0  0  0  0  0  0  0  0  0  0  0
   19.6871   19.0411   21.5886 C   0  0  0  0  0  0  0  0  0  0  0  0
   18.8348   19.5719   22.0324 H   0  0  0  0  0  0  0  0  0  0  0  0
   19.4467   17.9694   21.6175 H   0  0  0  0  0  0  0  0  0  0  0  0
   20.9663   19.3074   22.4178 C   0  0  0  0  0  0  0  0  0  0  0  0
   21.1800   20.3851   22.4338 H   0  0  0  0  0  0  0  0  0  0  0  0
   21.8218   18.8310   21.9193 H   0  0  0  0  0  0  0  0  0  0  0  0
   20.8838   18.7727   23.8686 C   0  0  0  0  0  0  0  0  0  0  0  0
   20.7018   17.6902   23.8413 H   0  0  0  0  0  0  0  0  0  0  0  0
   21.8628   18.9118   24.3477 H   0  0  0  0  0  0  0  0  0  0  0  0
   19.7987   19.4767   24.7236 C   0  0  0  0  0  0  0  0  0  0  0  0
   18.7998   19.2337   24.3398 H   0  0  0  0  0  0  0  0  0  0  0  0
   19.9199   20.5628   24.6180 H   0  0  0  0  0  0  0  0  0  0  0  0
   19.8678   19.1198   26.2258 C   0  0  2  0  0  0  0  0  0  0  0  0
   20.8794   19.3349   26.5836 H   0  0  0  0  0  0  0  0  0  0  0  0
   19.5665   17.6322   26.4816 C   0  0  0  0  0  0  0  0  0  0  0  0
   18.5822   17.3529   26.0854 H   0  0  0  0  0  0  0  0  0  0  0  0
   20.3204   16.9871   26.0157 H   0  0  0  0  0  0  0  0  0  0  0  0
   19.5743   17.4158   27.5570 H   0  0  0  0  0  0  0  0  0  0  0  0
   18.9399   19.9850   27.0324 N   0  3  0  0  0  0  0  0  0  0  0  0
   19.1507   20.9798   26.9107 H   0  0  0  0  0  0  0  0  0  0  0  0
   19.0117   19.7789   28.0329 H   0  0  0  0  0  0  0  0  0  0  0  0
   17.9636   19.8417   26.7603 H   0  0  0  0  0  0  0  0  0  0  0  0
  1  2  1  0  0  0  0
  1  3  1  0  0  0  0
  1  4  1  0  0  0  0
  1  5  1  0  0  0  0
  5  6  1  0  0  0  0
  5  7  1  0  0  0  0
  5  8  1  0  0  0  0
  8  9  1  0  0  0  0
  8 10  1  0  0  0  0
  8 11  1  0  0  0  0
 11 12  1  0  0  0  0
 11 13  1  0  0  0  0
 11 14  1  0  0  0  0
 14 15  1  0  0  0  0
 14 16  1  0  0  0  0
 14 17  1  0  0  0  0
 17 18  1  0  0  0  0
 17 19  1  0  0  0  0
 17 20  1  0  0  0  0
 20 21  1  0  0  0  0
 20 22  1  0  0  0  0
 22 23  1  0  0  0  0
 22 24  1  0  0  0  0
 22 25  1  0  0  0  0
 20 26  1  0  0  0  0
 26 27  1  0  0  0  0
 26 28  1  0  0  0  0
 26 29  1  0  0  0  0
M  END
> <VM2 Rank>
16

> <Conf_Id>
39

> <Probability>
1.60

> <Sum Probability>
55.79

> <Delta G>
1.115

> <G>
34.817

> <E>
-2.717

> <-TS>
37.534

> <U+W>
-26.861

> <U>
25.129

> <W>
-51.990

> <W(PB)>
-54.526

> <W(SA)>
2.536

> <Valence>
4.206

> <Coulomb>
19.678

> <VdW>
1.245

> <VdW6>
-8.834

> <VdW12>
10.079

> <Bond>
0.240

> <Angle>
1.353

> <Pdih>
2.613

> <Idih>
0.000

> <Tether>
0.000

$$$$
VeraChem MOL file


 29 28  0  0  0  0  0  0  0  0999 V2000     
   20.6589   19.2270   19.1208 C   0  0  0  0  0  0  0  0  0  0  0  0
   19.8018   19.1999   18.4353 H   0  0  0  0  0  0  0  0  0  0  0  0
   21.0743   20.2431   19.1090 H   0  0  0  0  0  0  0  0  0  0  0  0
   21.4248   18.5449   18.7294 H   0  0  0  0  0  0  0  0  0  0  0  0
   20.2412   18.8156   20.5485 C   0  0  0  0  0  0  0  0  0  0  0  0
   21.1303   18.8151   21.1928 H   0  0  0  0  0  0  0  0  0  0  0  0
   19.8572   17.7860   20.5332 H   0  0  0  0  0  0  0  0  0  0  0  0
   19.1645   19.7663   21.1232 C   0  0  0  0  0  0  0  0  0  0  0  0
   19.5681   20.7861   21.1895 H   0  0  0  0  0  0  0  0  0  0  0  0
   18.3203   19.8141   20.4216 H   0  0  0  0  0  0  0  0  0  0  0  0
   18.6262   19.3299   22.5080 C   0  0  0  0  0  0  0  0  0  0  0  0
   18.2104   18.3152   22.4377 H   0  0  0  0  0  0  0  0  0  0  0  0
   17.7887   19.9884   22.7770 H   0  0  0  0  0  0  0  0  0  0  0  0
   19.6905   19.3818   23.6306 C   0  0  0  0  0  0  0  0  0  0  0  0
   20.4971   18.6751   23.4014 H   0  0  0  0  0  0  0  0  0  0  0  0
   20.1395   20.3841   23.6641 H   0  0  0  0  0  0  0  0  0  0  0  0
   19.0803   19.0433   25.0131 C   0  0  0  0  0  0  0  0  0  0  0  0
   18.6851   18.0188   25.0024 H   0  0  0  0  0  0  0  0  0  0  0  0
   18.2225   19.7058   25.1887 H   0  0  0  0  0  0  0  0  0  0  0  0
   20.0710   19.2065   26.1885 C   0  0  2  0  0  0  0  0  0  0  0  0
   20.4827   20.2198   26.1523 H   0  0  0  0  0  0  0  0  0  0  0  0
   21.2363   18.2038   26.1100 C   0  0  0  0  0  0  0  0  0  0  0  0
   20.8692   17.1704   26.0771 H   0  0  0  0  0  0  0  0  0  0  0  0
   21.8539   18.3782   25.2215 H   0  0  0  0  0  0  0  0  0  0  0  0
   21.8915   18.3041   26.9841 H   0  0  0  0  0  0  0  0  0  0  0  0
   19.3671   19.0819   27.5111 N   0  3  0  0  0  0  0  0  0  0  0  0
   18.9517   18.1537   27.6278 H   0  0  0  0  0  0  0  0  0  0  0  0
   18.6143   19.7701   27.6040 H   0  0  0  0  0  0  0  0  0  0  0  0
   20.0118   19.2287   28.2932 H   0  0  0  0  0  0  0  0  0  0  0  0
  1  2  1  0  0  0  0
  1  3  1  0  0  0  0
  1  4  1  0  0  0  0
  1  5  1  0  0  0  0
  5  6  1  0  0  0  0
  5  7  1  0  0  0  0
  5  8  1  0  0  0  0
  8  9  1  0  0  0  0
  8 10  1  0  0  0  0
  8 11  1  0  0  0  0
 11 12  1  0  0  0  0
 11 13  1  0  0  0  0
 11 14  1  0  0  0  0
 14 15  1  0  0  0  0
 14 16  1  0  0  0  0
 14 17  1  0  0  0  0
 17 18  1  0  0  0  0
 17 19  1  0  0  0  0
 17 20  1  0  0  0  0
 20 21  1  0  0  0  0
 20 22  1  0  0  0  0
 22 23  1  0  0  0  0
 22 24  1  0  0  0  0
 22 25  1  0  0  0  0
 20 26  1  0  0  0  0
 26 27  1  0  0  0  0
 26 28  1  0  0  0  0
 26 29  1  0  0  0  0
M  END
> <VM2 Rank>
17

> <Conf_Id>
321

> <Probability>
1.59

> <Sum Probability>
57.38

> <Delta G>
1.120

> <G>
34.822

> <E>
-2.670

> <-TS>
37.493

> <U+W>
-26.815

> <U>
25.086

> <W>
-51.900

> <W(PB)>
-54.413

> <W(SA)>
2.513

> <Valence>
4.252

> <Coulomb>
19.525

> <VdW>
1.309

> <VdW6>
-8.788

> <VdW12>
10.097

> <Bond>
0.241

> <Angle>
1.423

> <Pdih>
2.589

> <Idih>
0.000

> <Tether>
0.000

$$$$
VeraChem MOL file


 29 28  0  0  0  0  0  0  0  0999 V2000     
   20.3069   18.5736   19.5179 C   0  0  0  0  0  0  0  0  0  0  0  0
   20.2479   18.5630   18.4218 H   0  0  0  0  0  0  0  0  0  0  0  0
   21.2471   19.0673   19.7930 H   0  0  0  0  0  0  0  0  0  0  0  0
   20.3513   17.5322   19.8621 H   0  0  0  0  0  0  0  0  0  0  0  0
   19.0853   19.3055   20.1183 C   0  0  0  0  0  0  0  0  0  0  0  0
   18.1679   18.8480   19.7224 H   0  0  0  0  0  0  0  0  0  0  0  0
   19.0781   20.3511   19.7802 H   0  0  0  0  0  0  0  0  0  0  0  0
   19.0391   19.2546   21.6644 C   0  0  0  0  0  0  0  0  0  0  0  0
   18.0949   19.7046   22.0006 H   0  0  0  0  0  0  0  0  0  0  0  0
   19.0168   18.2057   21.9879 H   0  0  0  0  0  0  0  0  0  0  0  0
   20.2219   19.9951   22.3380 C   0  0  0  0  0  0  0  0  0  0  0  0
   20.3031   21.0040   21.9106 H   0  0  0  0  0  0  0  0  0  0  0  0
   21.1661   19.4841   22.1079 H   0  0  0  0  0  0  0  0  0  0  0  0
   20.0728   20.1219   23.8738 C   0  0  0  0  0  0  0  0  0  0  0  0
   20.8979   20.7402   24.2539 H   0  0  0  0  0  0  0  0  0  0  0  0
   19.1464   20.6655   24.1024 H   0  0  0  0  0  0  0  0  0  0  0  0
   20.0861   18.7563   24.6069 C   0  0  0  0  0  0  0  0  0  0  0  0
   20.9670   18.1870   24.2816 H   0  0  0  0  0  0  0  0  0  0  0  0
   19.2061   18.1655   24.3226 H   0  0  0  0  0  0  0  0  0  0  0  0
   20.1269   18.9023   26.1432 C   0  0  2  0  0  0  0  0  0  0  0  0
   21.0001   19.5068   26.4073 H   0  0  0  0  0  0  0  0  0  0  0  0
   20.2749   17.5243   26.8077 C   0  0  0  0  0  0  0  0  0  0  0  0
   20.3418   17.6242   27.8981 H   0  0  0  0  0  0  0  0  0  0  0  0
   19.4195   16.8775   26.5754 H   0  0  0  0  0  0  0  0  0  0  0  0
   21.1871   17.0213   26.4631 H   0  0  0  0  0  0  0  0  0  0  0  0
   18.9221   19.6225   26.6839 N   0  3  0  0  0  0  0  0  0  0  0  0
   18.9758   19.7302   27.7009 H   0  0  0  0  0  0  0  0  0  0  0  0
   18.0587   19.1145   26.4742 H   0  0  0  0  0  0  0  0  0  0  0  0
   18.8351   20.5592   26.2806 H   0  0  0  0  0  0  0  0  0  0  0  0
  1  2  1  0  0  0  0
  1  3  1  0  0  0  0
  1  4  1  0  0  0  0
  1  5  1  0  0  0  0
  5  6  1  0  0  0  0
  5  7  1  0  0  0  0
  5  8  1  0  0  0  0
  8  9  1  0  0  0  0
  8 10  1  0  0  0  0
  8 11  1  0  0  0  0
 11 12  1  0  0  0  0
 11 13  1  0  0  0  0
 11 14  1  0  0  0  0
 14 15  1  0  0  0  0
 14 16  1  0  0  0  0
 14 17  1  0  0  0  0
 17 18  1  0  0  0  0
 17 19  1  0  0  0  0
 17 20  1  0  0  0  0
 20 21  1  0  0  0  0
 20 22  1  0  0  0  0
 22 23  1  0  0  0  0
 22 24  1  0  0  0  0
 22 25  1  0  0  0  0
 20 26  1  0  0  0  0
 26 27  1  0  0  0  0
 26 28  1  0  0  0  0
 26 29  1  0  0  0  0
M  END
> <VM2 Rank>
18

> <Conf_Id>
1040

> <Probability>
1.55

> <Sum Probability>
58.93

> <Delta G>
1.132

> <G>
34.835

> <E>
-2.801

> <-TS>
37.636

> <U+W>
-26.946

> <U>
25.270

> <W>
-52.216

> <W(PB)>
-54.702

> <W(SA)>
2.486

> <Valence>
4.168

> <Coulomb>
19.867

> <VdW>
1.235

> <VdW6>
-9.311

> <VdW12>
10.546

> <Bond>
0.263

> <Angle>
1.298

> <Pdih>
2.606

> <Idih>
0.000

> <Tether>
0.000

$$$$
VeraChem MOL file


 29 28  0  0  0  0  0  0  0  0999 V2000     
   20.9124   19.7241   19.6765 C   0  0  0  0  0  0  0  0  0  0  0  0
   21.8819   19.8110   20.1840 H   0  0  0  0  0  0  0  0  0  0  0  0
   20.8524   18.7266   19.2219 H   0  0  0  0  0  0  0  0  0  0  0  0
   20.8880   20.4654   18.8671 H   0  0  0  0  0  0  0  0  0  0  0  0
   19.7476   19.9552   20.6622 C   0  0  0  0  0  0  0  0  0  0  0  0
   18.7938   19.8966   20.1193 H   0  0  0  0  0  0  0  0  0  0  0  0
   19.8156   20.9714   21.0753 H   0  0  0  0  0  0  0  0  0  0  0  0
   19.7583   18.9236   21.8116 C   0  0  0  0  0  0  0  0  0  0  0  0
   19.6871   17.9096   21.3945 H   0  0  0  0  0  0  0  0  0  0  0  0
   20.7194   18.9856   22.3387 H   0  0  0  0  0  0  0  0  0  0  0  0
   18.5944   19.1577   22.8040 C   0  0  0  0  0  0  0  0  0  0  0  0
   17.6464   19.1604   22.2485 H   0  0  0  0  0  0  0  0  0  0  0  0
   18.6854   20.1565   23.2510 H   0  0  0  0  0  0  0  0  0  0  0  0
   18.5044   18.0818   23.9171 C   0  0  0  0  0  0  0  0  0  0  0  0
   17.6300   18.2946   24.5468 H   0  0  0  0  0  0  0  0  0  0  0  0
   18.3050   17.1052   23.4549 H   0  0  0  0  0  0  0  0  0  0  0  0
   19.7664   17.9605   24.8124 C   0  0  0  0  0  0  0  0  0  0  0  0
   20.5956   17.5620   24.2140 H   0  0  0  0  0  0  0  0  0  0  0  0
   19.5772   17.2147   25.5959 H   0  0  0  0  0  0  0  0  0  0  0  0
   20.2058   19.2889   25.4669 C   0  0  2  0  0  0  0  0  0  0  0  0
   20.3923   20.0182   24.6729 H   0  0  0  0  0  0  0  0  0  0  0  0
   21.5107   19.0926   26.2542 C   0  0  0  0  0  0  0  0  0  0  0  0
   22.3099   18.7255   25.5982 H   0  0  0  0  0  0  0  0  0  0  0  0
   21.8475   20.0412   26.6901 H   0  0  0  0  0  0  0  0  0  0  0  0
   21.3781   18.3698   27.0689 H   0  0  0  0  0  0  0  0  0  0  0  0
   19.1362   19.8716   26.3491 N   0  3  0  0  0  0  0  0  0  0  0  0
   18.2718   20.0345   25.8255 H   0  0  0  0  0  0  0  0  0  0  0  0
   19.4278   20.7673   26.7506 H   0  0  0  0  0  0  0  0  0  0  0  0
   18.9125   19.2447   27.1265 H   0  0  0  0  0  0  0  0  0  0  0  0
  1  2  1  0  0  0  0
  1  3  1  0  0  0  0
  1  4  1  0  0  0  0
  1  5  1  0  0  0  0
  5  6  1  0  0  0  0
  5  7  1  0  0  0  0
  5  8  1  0  0  0  0
  8  9  1  0  0  0  0
  8 10  1  0  0  0  0
  8 11  1  0  0  0  0
 11 12  1  0  0  0  0
 11 13  1  0  0  0  0
 11 14  1  0  0  0  0
 14 15  1  0  0  0  0
 14 16  1  0  0  0  0
 14 17  1  0  0  0  0
 17 18  1  0  0  0  0
 17 19  1  0  0  0  0
 17 20  1  0  0  0  0
 20 21  1  0  0  0  0
 20 22  1  0  0  0  0
 22 23  1  0  0  0  0
 22 24  1  0  0  0  0
 22 25  1  0  0  0  0
 20 26  1  0  0  0  0
 26 27  1  0  0  0  0
 26 28  1  0  0  0  0
 26 29  1  0  0  0  0
M  END
> <VM2 Rank>
19

> <Conf_Id>
585

> <Probability>
1.55

> <Sum Probability>
60.48

> <Delta G>
1.134

> <G>
34.836

> <E>
-3.024

> <-TS>
37.860

> <U+W>
-27.168

> <U>
25.092

> <W>
-52.260

> <W(PB)>
-54.738

> <W(SA)>
2.478

> <Valence>
3.930

> <Coulomb>
20.383

> <VdW>
0.779

> <VdW6>
-9.977

> <VdW12>
10.756

> <Bond>
0.263

> <Angle>
1.407

> <Pdih>
2.259

> <Idih>
0.000

> <Tether>
0.000

$$$$
VeraChem MOL file


 29 28  0  0  0  0  0  0  0  0999 V2000     
   19.8878   20.2402   19.4607 C   0  0  0  0  0  0  0  0  0  0  0  0
   19.0101   20.8842   19.6021 H   0  0  0  0  0  0  0  0  0  0  0  0
   20.7248   20.6701   20.0247 H   0  0  0  0  0  0  0  0  0  0  0  0
   20.1575   20.2689   18.3970 H   0  0  0  0  0  0  0  0  0  0  0  0
   19.5900   18.7899   19.9039 C   0  0  0  0  0  0  0  0  0  0  0  0
   20.4914   18.1734   19.7812 H   0  0  0  0  0  0  0  0  0  0  0  0
   18.8318   18.3632   19.2325 H   0  0  0  0  0  0  0  0  0  0  0  0
   19.0783   18.6848   21.3608 C   0  0  0  0  0  0  0  0  0  0  0  0
   18.1660   19.2866   21.4734 H   0  0  0  0  0  0  0  0  0  0  0  0
   18.7872   17.6429   21.5535 H   0  0  0  0  0  0  0  0  0  0  0  0
   20.1246   19.1203   22.4146 C   0  0  0  0  0  0  0  0  0  0  0  0
   20.3728   20.1810   22.2777 H   0  0  0  0  0  0  0  0  0  0  0  0
   21.0534   18.5526   22.2653 H   0  0  0  0  0  0  0  0  0  0  0  0
   19.6120   18.9018   23.8561 C   0  0  0  0  0  0  0  0  0  0  0  0
   18.6813   19.4672   23.9964 H   0  0  0  0  0  0  0  0  0  0  0  0
   19.3658   17.8404   23.9911 H   0  0  0  0  0  0  0  0  0  0  0  0
   20.6629   19.3405   24.9089 C   0  0  0  0  0  0  0  0  0  0  0  0
   20.9352   20.3892   24.7312 H   0  0  0  0  0  0  0  0  0  0  0  0
   21.5844   18.7609   24.7651 H   0  0  0  0  0  0  0  0  0  0  0  0
   20.2100   19.1965   26.3811 C   0  0  2  0  0  0  0  0  0  0  0  0
   21.0256   19.5670   27.0098 H   0  0  0  0  0  0  0  0  0  0  0  0
   19.9548   17.7292   26.7674 C   0  0  0  0  0  0  0  0  0  0  0  0
   19.0835   17.3174   26.2444 H   0  0  0  0  0  0  0  0  0  0  0  0
   20.8257   17.1061   26.5290 H   0  0  0  0  0  0  0  0  0  0  0  0
   19.7696   17.6432   27.8451 H   0  0  0  0  0  0  0  0  0  0  0  0
   19.0157   20.0529   26.7005 N   0  3  0  0  0  0  0  0  0  0  0  0
   19.1932   21.0388   26.4878 H   0  0  0  0  0  0  0  0  0  0  0  0
   18.7672   19.9934   27.6921 H   0  0  0  0  0  0  0  0  0  0  0  0
   18.1965   19.7633   26.1605 H   0  0  0  0  0  0  0  0  0  0  0  0
  1  2  1  0  0  0  0
  1  3  1  0  0  0  0
  1  4  1  0  0  0  0
  1  5  1  0  0  0  0
  5  6  1  0  0  0  0
  5  7  1  0  0  0  0
  5  8  1  0  0  0  0
  8  9  1  0  0  0  0
  8 10  1  0  0  0  0
  8 11  1  0  0  0  0
 11 12  1  0  0  0  0
 11 13  1  0  0  0  0
 11 14  1  0  0  0  0
 14 15  1  0  0  0  0
 14 16  1  0  0  0  0
 14 17  1  0  0  0  0
 17 18  1  0  0  0  0
 17 19  1  0  0  0  0
 17 20  1  0  0  0  0
 20 21  1  0  0  0  0
 20 22  1  0  0  0  0
 22 23  1  0  0  0  0
 22 24  1  0  0  0  0
 22 25  1  0  0  0  0
 20 26  1  0  0  0  0
 26 27  1  0  0  0  0
 26 28  1  0  0  0  0
 26 29  1  0  0  0  0
M  END
> <VM2 Rank>
20

> <Conf_Id>
189

> <Probability>
1.52

> <Sum Probability>
62.00

> <Delta G>
1.146

> <G>
34.848

> <E>
-2.792

> <-TS>
37.640

> <U+W>
-26.937

> <U>
25.147

> <W>
-52.084

> <W(PB)>
-54.572

> <W(SA)>
2.489

> <Valence>
4.181

> <Coulomb>
19.656

> <VdW>
1.310

> <VdW6>
-9.191

> <VdW12>
10.501

> <Bond>
0.259

> <Angle>
1.449

> <Pdih>
2.473

> <Idih>
0.000

> <Tether>
0.000

$$$$
VeraChem MOL file


 29 28  0  0  0  0  0  0  0  0999 V2000     
   19.1174   20.2365   19.2407 C   0  0  0  0  0  0  0  0  0  0  0  0
   18.1624   20.6101   19.6326 H   0  0  0  0  0  0  0  0  0  0  0  0
   19.8403   21.0626   19.2568 H   0  0  0  0  0  0  0  0  0  0  0  0
   18.9614   19.9455   18.1938 H   0  0  0  0  0  0  0  0  0  0  0  0
   19.6264   19.0381   20.0694 C   0  0  0  0  0  0  0  0  0  0  0  0
   20.5635   18.6653   19.6327 H   0  0  0  0  0  0  0  0  0  0  0  0
   18.8988   18.2167   20.0076 H   0  0  0  0  0  0  0  0  0  0  0  0
   19.8552   19.4212   21.5483 C   0  0  0  0  0  0  0  0  0  0  0  0
   20.5849   20.2408   21.6047 H   0  0  0  0  0  0  0  0  0  0  0  0
   18.9147   19.8009   21.9676 H   0  0  0  0  0  0  0  0  0  0  0  0
   20.3616   18.2185   22.3805 C   0  0  0  0  0  0  0  0  0  0  0  0
   21.2545   17.8013   21.8946 H   0  0  0  0  0  0  0  0  0  0  0  0
   19.6073   17.4196   22.3760 H   0  0  0  0  0  0  0  0  0  0  0  0
   20.7262   18.5803   23.8417 C   0  0  0  0  0  0  0  0  0  0  0  0
   21.2106   17.7048   24.2927 H   0  0  0  0  0  0  0  0  0  0  0  0
   21.4745   19.3848   23.8455 H   0  0  0  0  0  0  0  0  0  0  0  0
   19.5039   18.9976   24.7005 C   0  0  0  0  0  0  0  0  0  0  0  0
   18.7610   18.1891   24.7058 H   0  0  0  0  0  0  0  0  0  0  0  0
   19.0188   19.8639   24.2349 H   0  0  0  0  0  0  0  0  0  0  0  0
   19.8659   19.3801   26.1542 C   0  0  2  0  0  0  0  0  0  0  0  0
   20.6501   20.1428   26.1235 H   0  0  0  0  0  0  0  0  0  0  0  0
   20.3860   18.1772   26.9618 C   0  0  0  0  0  0  0  0  0  0  0  0
   20.5759   18.4646   28.0033 H   0  0  0  0  0  0  0  0  0  0  0  0
   19.6586   17.3558   26.9634 H   0  0  0  0  0  0  0  0  0  0  0  0
   21.3306   17.7997   26.5542 H   0  0  0  0  0  0  0  0  0  0  0  0
   18.6934   20.0065   26.8568 N   0  3  0  0  0  0  0  0  0  0  0  0
   18.9391   20.2972   27.8076 H   0  0  0  0  0  0  0  0  0  0  0  0
   17.9089   19.3530   26.9305 H   0  0  0  0  0  0  0  0  0  0  0  0
   18.3568   20.8375   26.3619 H   0  0  0  0  0  0  0  0  0  0  0  0
  1  2  1  0  0  0  0
  1  3  1  0  0  0  0
  1  4  1  0  0  0  0
  1  5  1  0  0  0  0
  5  6  1  0  0  0  0
  5  7  1  0  0  0  0
  5  8  1  0  0  0  0
  8  9  1  0  0  0  0
  8 10  1  0  0  0  0
  8 11  1  0  0  0  0
 11 12  1  0  0  0  0
 11 13  1  0  0  0  0
 11 14  1  0  0  0  0
 14 15  1  0  0  0  0
 14 16  1  0  0  0  0
 14 17  1  0  0  0  0
 17 18  1  0  0  0  0
 17 19  1  0  0  0  0
 17 20  1  0  0  0  0
 20 21  1  0  0  0  0
 20 22  1  0  0  0  0
 22 23  1  0  0  0  0
 22 24  1  0  0  0  0
 22 25  1  0  0  0  0
 20 26  1  0  0  0  0
 26 27  1  0  0  0  0
 26 28  1  0  0  0  0
 26 29  1  0  0  0  0
M  END
> <VM2 Rank>
21

> <Conf_Id>
277

> <Probability>
1.50

> <Sum Probability>
63.50

> <Delta G>
1.152

> <G>
34.854

> <E>
-2.567

> <-TS>
37.421

> <U+W>
-26.712

> <U>
25.442

> <W>
-52.153

> <W(PB)>
-54.675

> <W(SA)>
2.522

> <Valence>
4.343

> <Coulomb>
19.740

> <VdW>
1.360

> <VdW6>
-8.739

> <VdW12>
10.099

> <Bond>
0.251

> <Angle>
1.483

> <Pdih>
2.608

> <Idih>
0.000

> <Tether>
0.000

$$$$
VeraChem MOL file


 29 28  0  0  0  0  0  0  0  0999 V2000     
   20.4991   18.9697   19.3630 C   0  0  0  0  0  0  0  0  0  0  0  0
   20.4428   17.8734   19.3707 H   0  0  0  0  0  0  0  0  0  0  0  0
   20.6330   19.2918   18.3222 H   0  0  0  0  0  0  0  0  0  0  0  0
   21.3948   19.2724   19.9194 H   0  0  0  0  0  0  0  0  0  0  0  0
   19.2197   19.5960   19.9625 C   0  0  0  0  0  0  0  0  0  0  0  0
   18.3707   19.3654   19.3040 H   0  0  0  0  0  0  0  0  0  0  0  0
   19.3134   20.6910   19.9714 H   0  0  0  0  0  0  0  0  0  0  0  0
   18.8952   19.0869   21.3876 C   0  0  0  0  0  0  0  0  0  0  0  0
   17.9199   19.4932   21.6891 H   0  0  0  0  0  0  0  0  0  0  0  0
   18.7827   17.9941   21.3697 H   0  0  0  0  0  0  0  0  0  0  0  0
   19.9563   19.4855   22.4411 C   0  0  0  0  0  0  0  0  0  0  0  0
   20.1031   20.5741   22.4194 H   0  0  0  0  0  0  0  0  0  0  0  0
   20.9221   19.0276   22.1902 H   0  0  0  0  0  0  0  0  0  0  0  0
   19.5435   19.0478   23.8647 C   0  0  0  0  0  0  0  0  0  0  0  0
   18.5798   19.5087   24.1184 H   0  0  0  0  0  0  0  0  0  0  0  0
   19.3912   17.9605   23.8735 H   0  0  0  0  0  0  0  0  0  0  0  0
   20.6127   19.4427   24.9165 C   0  0  0  0  0  0  0  0  0  0  0  0
   20.7902   20.5248   24.8611 H   0  0  0  0  0  0  0  0  0  0  0  0
   21.5681   18.9666   24.6591 H   0  0  0  0  0  0  0  0  0  0  0  0
   20.2549   19.0807   26.3773 C   0  0  2  0  0  0  0  0  0  0  0  0
   21.0721   19.4394   27.0106 H   0  0  0  0  0  0  0  0  0  0  0  0
   20.1385   17.5606   26.5850 C   0  0  0  0  0  0  0  0  0  0  0  0
   20.0204   17.3273   27.6503 H   0  0  0  0  0  0  0  0  0  0  0  0
   19.2750   17.1433   26.0535 H   0  0  0  0  0  0  0  0  0  0  0  0
   21.0415   17.0483   26.2304 H   0  0  0  0  0  0  0  0  0  0  0  0
   19.0161   19.7861   26.8563 N   0  3  0  0  0  0  0  0  0  0  0  0
   19.1028   20.8022   26.7628 H   0  0  0  0  0  0  0  0  0  0  0  0
   18.8284   19.5842   27.8426 H   0  0  0  0  0  0  0  0  0  0  0  0
   18.1937   19.4960   26.3215 H   0  0  0  0  0  0  0  0  0  0  0  0
  1  2  1  0  0  0  0
  1  3  1  0  0  0  0
  1  4  1  0  0  0  0
  1  5  1  0  0  0  0
  5  6  1  0  0  0  0
  5  7  1  0  0  0  0
  5  8  1  0  0  0  0
  8  9  1  0  0  0  0
  8 10  1  0  0  0  0
  8 11  1  0  0  0  0
 11 12  1  0  0  0  0
 11 13  1  0  0  0  0
 11 14  1  0  0  0  0
 14 15  1  0  0  0  0
 14 16  1  0  0  0  0
 14 17  1  0  0  0  0
 17 18  1  0  0  0  0
 17 19  1  0  0  0  0
 17 20  1  0  0  0  0
 20 21  1  0  0  0  0
 20 22  1  0  0  0  0
 22 23  1  0  0  0  0
 22 24  1  0  0  0  0
 22 25  1  0  0  0  0
 20 26  1  0  0  0  0
 26 27  1  0  0  0  0
 26 28  1  0  0  0  0
 26 29  1  0  0  0  0
M  END
> <VM2 Rank>
22

> <Conf_Id>
1376

> <Probability>
1.47

> <Sum Probability>
64.98

> <Delta G>
1.164

> <G>
34.866

> <E>
-2.775

> <-TS>
37.641

> <U+W>
-26.919

> <U>
25.121

> <W>
-52.040

> <W(PB)>
-54.555

> <W(SA)>
2.515

> <Valence>
4.180

> <Coulomb>
19.632

> <VdW>
1.309

> <VdW6>
-9.192

> <VdW12>
10.501

> <Bond>
0.259

> <Angle>
1.449

> <Pdih>
2.473

> <Idih>
0.000

> <Tether>
0.000

$$$$
VeraChem MOL file


 29 28  0  0  0  0  0  0  0  0999 V2000     
   18.7343   19.0242   19.3168 C   0  0  0  0  0  0  0  0  0  0  0  0
   19.4880   19.3131   18.5727 H   0  0  0  0  0  0  0  0  0  0  0  0
   18.2056   18.1411   18.9353 H   0  0  0  0  0  0  0  0  0  0  0  0
   18.0069   19.8420   19.4022 H   0  0  0  0  0  0  0  0  0  0  0  0
   19.3889   18.7202   20.6810 C   0  0  0  0  0  0  0  0  0  0  0  0
   20.0887   17.8803   20.5701 H   0  0  0  0  0  0  0  0  0  0  0  0
   18.6106   18.3963   21.3845 H   0  0  0  0  0  0  0  0  0  0  0  0
   20.1369   19.9530   21.2413 C   0  0  0  0  0  0  0  0  0  0  0  0
   20.8524   20.3088   20.4872 H   0  0  0  0  0  0  0  0  0  0  0  0
   19.4263   20.7752   21.4036 H   0  0  0  0  0  0  0  0  0  0  0  0
   20.9091   19.6674   22.5528 C   0  0  0  0  0  0  0  0  0  0  0  0
   21.5001   20.5578   22.8079 H   0  0  0  0  0  0  0  0  0  0  0  0
   21.6306   18.8559   22.3850 H   0  0  0  0  0  0  0  0  0  0  0  0
   19.9911   19.3122   23.7471 C   0  0  0  0  0  0  0  0  0  0  0  0
   19.2379   20.1014   23.8697 H   0  0  0  0  0  0  0  0  0  0  0  0
   19.4515   18.3827   23.5288 H   0  0  0  0  0  0  0  0  0  0  0  0
   20.8023   19.1457   25.0586 C   0  0  0  0  0  0  0  0  0  0  0  0
   21.3735   20.0638   25.2487 H   0  0  0  0  0  0  0  0  0  0  0  0
   21.5465   18.3492   24.9259 H   0  0  0  0  0  0  0  0  0  0  0  0
   19.9548   18.8302   26.3138 C   0  0  2  0  0  0  0  0  0  0  0  0
   20.6421   18.7718   27.1635 H   0  0  0  0  0  0  0  0  0  0  0  0
   19.2371   17.4738   26.2025 C   0  0  0  0  0  0  0  0  0  0  0  0
   19.9484   16.6751   25.9583 H   0  0  0  0  0  0  0  0  0  0  0  0
   18.7595   17.2138   27.1551 H   0  0  0  0  0  0  0  0  0  0  0  0
   18.4581   17.4887   25.4310 H   0  0  0  0  0  0  0  0  0  0  0  0
   18.9815   19.9293   26.6400 N   0  3  0  0  0  0  0  0  0  0  0  0
   19.4571   20.8283   26.7601 H   0  0  0  0  0  0  0  0  0  0  0  0
   18.4731   19.7335   27.5071 H   0  0  0  0  0  0  0  0  0  0  0  0
   18.2883   20.0438   25.8964 H   0  0  0  0  0  0  0  0  0  0  0  0
  1  2  1  0  0  0  0
  1  3  1  0  0  0  0
  1  4  1  0  0  0  0
  1  5  1  0  0  0  0
  5  6  1  0  0  0  0
  5  7  1  0  0  0  0
  5  8  1  0  0  0  0
  8  9  1  0  0  0  0
  8 10  1  0  0  0  0
  8 11  1  0  0  0  0
 11 12  1  0  0  0  0
 11 13  1  0  0  0  0
 11 14  1  0  0  0  0
 14 15  1  0  0  0  0
 14 16  1  0  0  0  0
 14 17  1  0  0  0  0
 17 18  1  0  0  0  0
 17 19  1  0  0  0  0
 17 20  1  0  0  0  0
 20 21  1  0  0  0  0
 20 22  1  0  0  0  0
 22 23  1  0  0  0  0
 22 24  1  0  0  0  0
 22 25  1  0  0  0  0
 20 26  1  0  0  0  0
 26 27  1  0  0  0  0
 26 28  1  0  0  0  0
 26 29  1  0  0  0  0
M  END
> <VM2 Rank>
23

> <Conf_Id>
586

> <Probability>
1.45

> <Sum Probability>
66.43

> <Delta G>
1.174

> <G>
34.876

> <E>
-2.753

> <-TS>
37.629

> <U+W>
-26.897

> <U>
25.354

> <W>
-52.251

> <W(PB)>
-54.740

> <W(SA)>
2.488

> <Valence>
4.221

> <Coulomb>
19.855

> <VdW>
1.278

> <VdW6>
-9.276

> <VdW12>
10.554

> <Bond>
0.264

> <Angle>
1.471

> <Pdih>
2.486

> <Idih>
0.000

> <Tether>
0.000

$$$$
VeraChem MOL file


 29 28  0  0  0  0  0  0  0  0999 V2000     
   19.7448   20.3592   19.2499 C   0  0  0  0  0  0  0  0  0  0  0  0
   18.7852   20.8796   19.3670 H   0  0  0  0  0  0  0  0  0  0  0  0
   20.5467   21.0519   19.5369 H   0  0  0  0  0  0  0  0  0  0  0  0
   19.8709   20.1199   18.1860 H   0  0  0  0  0  0  0  0  0  0  0  0
   19.7877   19.0757   20.1060 C   0  0  0  0  0  0  0  0  0  0  0  0
   20.7446   18.5604   19.9430 H   0  0  0  0  0  0  0  0  0  0  0  0
   18.9969   18.3891   19.7726 H   0  0  0  0  0  0  0  0  0  0  0  0
   19.6115   19.3847   21.6092 C   0  0  0  0  0  0  0  0  0  0  0  0
   20.4012   20.0783   21.9257 H   0  0  0  0  0  0  0  0  0  0  0  0
   18.6528   19.8974   21.7671 H   0  0  0  0  0  0  0  0  0  0  0  0
   19.6589   18.0983   22.4686 C   0  0  0  0  0  0  0  0  0  0  0  0
   20.6387   17.6136   22.3575 H   0  0  0  0  0  0  0  0  0  0  0  0
   18.9172   17.3852   22.0831 H   0  0  0  0  0  0  0  0  0  0  0  0
   19.3675   18.3425   23.9697 C   0  0  0  0  0  0  0  0  0  0  0  0
   18.3842   18.8201   24.0733 H   0  0  0  0  0  0  0  0  0  0  0  0
   19.2908   17.3642   24.4612 H   0  0  0  0  0  0  0  0  0  0  0  0
   20.4549   19.1963   24.6779 C   0  0  0  0  0  0  0  0  0  0  0  0
   20.5092   20.1861   24.2086 H   0  0  0  0  0  0  0  0  0  0  0  0
   21.4384   18.7332   24.5241 H   0  0  0  0  0  0  0  0  0  0  0  0
   20.2337   19.4029   26.1951 C   0  0  2  0  0  0  0  0  0  0  0  0
   21.0312   20.0619   26.5522 H   0  0  0  0  0  0  0  0  0  0  0  0
   20.3354   18.0847   26.9825 C   0  0  0  0  0  0  0  0  0  0  0  0
   20.3179   18.2812   28.0615 H   0  0  0  0  0  0  0  0  0  0  0  0
   19.5037   17.4083   26.7529 H   0  0  0  0  0  0  0  0  0  0  0  0
   21.2746   17.5656   26.7545 H   0  0  0  0  0  0  0  0  0  0  0  0
   18.9417   20.1115   26.4951 N   0  3  0  0  0  0  0  0  0  0  0  0
   18.8865   21.0124   26.0114 H   0  0  0  0  0  0  0  0  0  0  0  0
   18.8396   20.2951   27.4974 H   0  0  0  0  0  0  0  0  0  0  0  0
   18.1361   19.5535   26.2013 H   0  0  0  0  0  0  0  0  0  0  0  0
  1  2  1  0  0  0  0
  1  3  1  0  0  0  0
  1  4  1  0  0  0  0
  1  5  1  0  0  0  0
  5  6  1  0  0  0  0
  5  7  1  0  0  0  0
  5  8  1  0  0  0  0
  8  9  1  0  0  0  0
  8 10  1  0  0  0  0
  8 11  1  0  0  0  0
 11 12  1  0  0  0  0
 11 13  1  0  0  0  0
 11 14  1  0  0  0  0
 14 15  1  0  0  0  0
 14 16  1  0  0  0  0
 14 17  1  0  0  0  0
 17 18  1  0  0  0  0
 17 19  1  0  0  0  0
 17 20  1  0  0  0  0
 20 21  1  0  0  0  0
 20 22  1  0  0  0  0
 22 23  1  0  0  0  0
 22 24  1  0  0  0  0
 22 25  1  0  0  0  0
 20 26  1  0  0  0  0
 26 27  1  0  0  0  0
 26 28  1  0  0  0  0
 26 29  1  0  0  0  0
M  END
> <VM2 Rank>
24

> <Conf_Id>
1364

> <Probability>
1.36

> <Sum Probability>
67.79

> <Delta G>
1.211

> <G>
34.913

> <E>
-2.677

> <-TS>
37.591

> <U+W>
-26.822

> <U>
25.474

> <W>
-52.296

> <W(PB)>
-54.795

> <W(SA)>
2.500

> <Valence>
4.286

> <Coulomb>
19.883

> <VdW>
1.305

> <VdW6>
-9.235

> <VdW12>
10.540

> <Bond>
0.276

> <Angle>
1.498

> <Pdih>
2.512

> <Idih>
0.000

> <Tether>
0.000

$$$$
VeraChem MOL file


 29 28  0  0  0  0  0  0  0  0999 V2000     
   18.6412   19.4593   19.3602 C   0  0  0  0  0  0  0  0  0  0  0  0
   19.4247   19.5571   18.5974 H   0  0  0  0  0  0  0  0  0  0  0  0
   18.2329   18.4418   19.3027 H   0  0  0  0  0  0  0  0  0  0  0  0
   17.8355   20.1607   19.1073 H   0  0  0  0  0  0  0  0  0  0  0  0
   19.1980   19.7541   20.7691 C   0  0  0  0  0  0  0  0  0  0  0  0
   18.3784   19.6868   21.4966 H   0  0  0  0  0  0  0  0  0  0  0  0
   19.5721   20.7869   20.8040 H   0  0  0  0  0  0  0  0  0  0  0  0
   20.3329   18.7742   21.1496 C   0  0  0  0  0  0  0  0  0  0  0  0
   19.9445   17.7466   21.1678 H   0  0  0  0  0  0  0  0  0  0  0  0
   21.1027   18.7986   20.3660 H   0  0  0  0  0  0  0  0  0  0  0  0
   21.0047   19.0995   22.5064 C   0  0  0  0  0  0  0  0  0  0  0  0
   21.4077   20.1213   22.4809 H   0  0  0  0  0  0  0  0  0  0  0  0
   21.8670   18.4309   22.6356 H   0  0  0  0  0  0  0  0  0  0  0  0
   20.0577   18.9406   23.7201 C   0  0  0  0  0  0  0  0  0  0  0  0
   19.2322   19.6582   23.6392 H   0  0  0  0  0  0  0  0  0  0  0  0
   19.6152   17.9361   23.6990 H   0  0  0  0  0  0  0  0  0  0  0  0
   20.8079   19.1614   25.0595 C   0  0  0  0  0  0  0  0  0  0  0  0
   21.2911   20.1472   25.0435 H   0  0  0  0  0  0  0  0  0  0  0  0
   21.6207   18.4282   25.1456 H   0  0  0  0  0  0  0  0  0  0  0  0
   19.9229   19.0715   26.3252 C   0  0  2  0  0  0  0  0  0  0  0  0
   20.5672   19.2710   27.1870 H   0  0  0  0  0  0  0  0  0  0  0  0
   19.3190   17.6686   26.5108 C   0  0  0  0  0  0  0  0  0  0  0  0
   18.8122   17.5947   27.4808 H   0  0  0  0  0  0  0  0  0  0  0  0
   18.5841   17.4367   25.7308 H   0  0  0  0  0  0  0  0  0  0  0  0
   20.1021   16.9006   26.4854 H   0  0  0  0  0  0  0  0  0  0  0  0
   18.8517   20.1268   26.3531 N   0  3  0  0  0  0  0  0  0  0  0  0
   18.3163   20.0930   27.2255 H   0  0  0  0  0  0  0  0  0  0  0  0
   18.1905   20.0050   25.5821 H   0  0  0  0  0  0  0  0  0  0  0  0
   19.2492   21.0672   26.2740 H   0  0  0  0  0  0  0  0  0  0  0  0
  1  2  1  0  0  0  0
  1  3  1  0  0  0  0
  1  4  1  0  0  0  0
  1  5  1  0  0  0  0
  5  6  1  0  0  0  0
  5  7  1  0  0  0  0
  5  8  1  0  0  0  0
  8  9  1  0  0  0  0
  8 10  1  0  0  0  0
  8 11  1  0  0  0  0
 11 12  1  0  0  0  0
 11 13  1  0  0  0  0
 11 14  1  0  0  0  0
 14 15  1  0  0  0  0
 14 16  1  0  0  0  0
 14 17  1  0  0  0  0
 17 18  1  0  0  0  0
 17 19  1  0  0  0  0
 17 20  1  0  0  0  0
 20 21  1  0  0  0  0
 20 22  1  0  0  0  0
 22 23  1  0  0  0  0
 22 24  1  0  0  0  0
 22 25  1  0  0  0  0
 20 26  1  0  0  0  0
 26 27  1  0  0  0  0
 26 28  1  0  0  0  0
 26 29  1  0  0  0  0
M  END
> <VM2 Rank>
25

> <Conf_Id>
1195

> <Probability>
1.30

> <Sum Probability>
69.09

> <Delta G>
1.238

> <G>
34.940

> <E>
-2.687

> <-TS>
37.628

> <U+W>
-26.832

> <U>
25.544

> <W>
-52.376

> <W(PB)>
-54.870

> <W(SA)>
2.494

> <Valence>
4.218

> <Coulomb>
20.055

> <VdW>
1.271

> <VdW6>
-9.271

> <VdW12>
10.543

> <Bond>
0.264

> <Angle>
1.469

> <Pdih>
2.486

> <Idih>
0.000

> <Tether>
0.000

$$$$
VeraChem MOL file


 29 28  0  0  0  0  0  0  0  0999 V2000     
   20.9140   19.7973   20.0856 C   0  0  0  0  0  0  0  0  0  0  0  0
   21.5381   19.5257   20.9461 H   0  0  0  0  0  0  0  0  0  0  0  0
   20.9600   18.9794   19.3549 H   0  0  0  0  0  0  0  0  0  0  0  0
   21.3587   20.6876   19.6225 H   0  0  0  0  0  0  0  0  0  0  0  0
   19.4556   20.0798   20.5114 C   0  0  0  0  0  0  0  0  0  0  0  0
   18.9011   20.4609   19.6425 H   0  0  0  0  0  0  0  0  0  0  0  0
   19.4366   20.8863   21.2565 H   0  0  0  0  0  0  0  0  0  0  0  0
   18.7193   18.8293   21.0560 C   0  0  0  0  0  0  0  0  0  0  0  0
   17.6863   19.1079   21.3058 H   0  0  0  0  0  0  0  0  0  0  0  0
   18.6435   18.0843   20.2521 H   0  0  0  0  0  0  0  0  0  0  0  0
   19.3739   18.1608   22.2925 C   0  0  0  0  0  0  0  0  0  0  0  0
   20.3668   17.7745   22.0269 H   0  0  0  0  0  0  0  0  0  0  0  0
   18.7728   17.2836   22.5690 H   0  0  0  0  0  0  0  0  0  0  0  0
   19.4864   19.1004   23.5167 C   0  0  0  0  0  0  0  0  0  0  0  0
   20.1480   19.9440   23.2790 H   0  0  0  0  0  0  0  0  0  0  0  0
   18.4967   19.5201   23.7399 H   0  0  0  0  0  0  0  0  0  0  0  0
   20.0402   18.3586   24.7573 C   0  0  0  0  0  0  0  0  0  0  0  0
   21.0019   17.8979   24.4946 H   0  0  0  0  0  0  0  0  0  0  0  0
   19.3642   17.5383   25.0327 H   0  0  0  0  0  0  0  0  0  0  0  0
   20.2492   19.2891   25.9715 C   0  0  2  0  0  0  0  0  0  0  0  0
   20.9056   20.1097   25.6659 H   0  0  0  0  0  0  0  0  0  0  0  0
   20.9317   18.5263   27.1181 C   0  0  0  0  0  0  0  0  0  0  0  0
   21.1162   19.1911   27.9710 H   0  0  0  0  0  0  0  0  0  0  0  0
   20.3105   17.6906   27.4641 H   0  0  0  0  0  0  0  0  0  0  0  0
   21.8995   18.1222   26.7959 H   0  0  0  0  0  0  0  0  0  0  0  0
   18.9656   19.9143   26.4449 N   0  3  0  0  0  0  0  0  0  0  0  0
   19.1256   20.5432   27.2371 H   0  0  0  0  0  0  0  0  0  0  0  0
   18.2944   19.2036   26.7480 H   0  0  0  0  0  0  0  0  0  0  0  0
   18.5213   20.4624   25.7033 H   0  0  0  0  0  0  0  0  0  0  0  0
  1  2  1  0  0  0  0
  1  3  1  0  0  0  0
  1  4  1  0  0  0  0
  1  5  1  0  0  0  0
  5  6  1  0  0  0  0
  5  7  1  0  0  0  0
  5  8  1  0  0  0  0
  8  9  1  0  0  0  0
  8 10  1  0  0  0  0
  8 11  1  0  0  0  0
 11 12  1  0  0  0  0
 11 13  1  0  0  0  0
 11 14  1  0  0  0  0
 14 15  1  0  0  0  0
 14 16  1  0  0  0  0
 14 17  1  0  0  0  0
 17 18  1  0  0  0  0
 17 19  1  0  0  0  0
 17 20  1  0  0  0  0
 20 21  1  0  0  0  0
 20 22  1  0  0  0  0
 22 23  1  0  0  0  0
 22 24  1  0  0  0  0
 22 25  1  0  0  0  0
 20 26  1  0  0  0  0
 26 27  1  0  0  0  0
 26 28  1  0  0  0  0
 26 29  1  0  0  0  0
M  END
> <VM2 Rank>
26

> <Conf_Id>
1501

> <Probability>
1.28

> <Sum Probability>
70.37

> <Delta G>
1.246

> <G>
34.948

> <E>
-2.870

> <-TS>
37.818

> <U+W>
-27.015

> <U>
25.212

> <W>
-52.227

> <W(PB)>
-54.717

> <W(SA)>
2.490

> <Valence>
4.125

> <Coulomb>
19.950

> <VdW>
1.137

> <VdW6>
-9.556

> <VdW12>
10.692

> <Bond>
0.266

> <Angle>
1.520

> <Pdih>
2.339

> <Idih>
0.000

> <Tether>
0.000

$$$$
VeraChem MOL file


 29 28  0  0  0  0  0  0  0  0999 V2000     
   20.8437   19.4760   19.7586 C   0  0  0  0  0  0  0  0  0  0  0  0
   21.2608   20.0915   18.9511 H   0  0  0  0  0  0  0  0  0  0  0  0
   21.6202   19.3688   20.5261 H   0  0  0  0  0  0  0  0  0  0  0  0
   20.6277   18.4820   19.3458 H   0  0  0  0  0  0  0  0  0  0  0  0
   19.5656   20.1294   20.3314 C   0  0  0  0  0  0  0  0  0  0  0  0
   18.8682   20.3267   19.5053 H   0  0  0  0  0  0  0  0  0  0  0  0
   19.8135   21.1082   20.7650 H   0  0  0  0  0  0  0  0  0  0  0  0
   18.8486   19.2551   21.3882 C   0  0  0  0  0  0  0  0  0  0  0  0
   17.9015   19.7420   21.6589 H   0  0  0  0  0  0  0  0  0  0  0  0
   18.5821   18.2866   20.9430 H   0  0  0  0  0  0  0  0  0  0  0  0
   19.6848   19.0281   22.6702 C   0  0  0  0  0  0  0  0  0  0  0  0
   19.9976   20.0008   23.0720 H   0  0  0  0  0  0  0  0  0  0  0  0
   20.6000   18.4736   22.4248 H   0  0  0  0  0  0  0  0  0  0  0  0
   18.8888   18.2425   23.7397 C   0  0  0  0  0  0  0  0  0  0  0  0
   17.9847   18.8012   24.0165 H   0  0  0  0  0  0  0  0  0  0  0  0
   18.5390   17.2967   23.3034 H   0  0  0  0  0  0  0  0  0  0  0  0
   19.7220   17.9204   25.0066 C   0  0  0  0  0  0  0  0  0  0  0  0
   20.5637   17.2754   24.7210 H   0  0  0  0  0  0  0  0  0  0  0  0
   19.1064   17.3318   25.6998 H   0  0  0  0  0  0  0  0  0  0  0  0
   20.2688   19.1657   25.7400 C   0  0  2  0  0  0  0  0  0  0  0  0
   20.8956   19.7292   25.0426 H   0  0  0  0  0  0  0  0  0  0  0  0
   21.1403   18.7439   26.9334 C   0  0  0  0  0  0  0  0  0  0  0  0
   20.5573   18.1775   27.6705 H   0  0  0  0  0  0  0  0  0  0  0  0
   21.9761   18.1150   26.6024 H   0  0  0  0  0  0  0  0  0  0  0  0
   21.5635   19.6230   27.4349 H   0  0  0  0  0  0  0  0  0  0  0  0
   19.1735   20.0950   26.1859 N   0  3  0  0  0  0  0  0  0  0  0  0
   18.5436   19.6368   26.8497 H   0  0  0  0  0  0  0  0  0  0  0  0
   18.6095   20.4112   25.3922 H   0  0  0  0  0  0  0  0  0  0  0  0
   19.5525   20.9275   26.6461 H   0  0  0  0  0  0  0  0  0  0  0  0
  1  2  1  0  0  0  0
  1  3  1  0  0  0  0
  1  4  1  0  0  0  0
  1  5  1  0  0  0  0
  5  6  1  0  0  0  0
  5  7  1  0  0  0  0
  5  8  1  0  0  0  0
  8  9  1  0  0  0  0
  8 10  1  0  0  0  0
  8 11  1  0  0  0  0
 11 12  1  0  0  0  0
 11 13  1  0  0  0  0
 11 14  1  0  0  0  0
 14 15  1  0  0  0  0
 14 16  1  0  0  0  0
 14 17  1  0  0  0  0
 17 18  1  0  0  0  0
 17 19  1  0  0  0  0
 17 20  1  0  0  0  0
 20 21  1  0  0  0  0
 20 22  1  0  0  0  0
 22 23  1  0  0  0  0
 22 24  1  0  0  0  0
 22 25  1  0  0  0  0
 20 26  1  0  0  0  0
 26 27  1  0  0  0  0
 26 28  1  0  0  0  0
 26 29  1  0  0  0  0
M  END
> <VM2 Rank>
27

> <Conf_Id>
1034

> <Probability>
1.28

> <Sum Probability>
71.65

> <Delta G>
1.249

> <G>
34.951

> <E>
-2.741

> <-TS>
37.692

> <U+W>
-26.885

> <U>
25.266

> <W>
-52.151

> <W(PB)>
-54.661

> <W(SA)>
2.509

> <Valence>
3.967

> <Coulomb>
20.251

> <VdW>
1.048

> <VdW6>
-9.487

> <VdW12>
10.535

> <Bond>
0.252

> <Angle>
1.329

> <Pdih>
2.385

> <Idih>
0.000

> <Tether>
0.000

$$$$
VeraChem MOL file


 29 28  0  0  0  0  0  0  0  0999 V2000     
   18.3076   19.5303   20.2947 C   0  0  0  0  0  0  0  0  0  0  0  0
   17.8719   19.1259   21.2168 H   0  0  0  0  0  0  0  0  0  0  0  0
   17.6213   20.2975   19.9135 H   0  0  0  0  0  0  0  0  0  0  0  0
   18.3548   18.7226   19.5528 H   0  0  0  0  0  0  0  0  0  0  0  0
   19.7075   20.1339   20.5477 C   0  0  0  0  0  0  0  0  0  0  0  0
   19.6387   20.9249   21.3063 H   0  0  0  0  0  0  0  0  0  0  0  0
   20.0505   20.6291   19.6286 H   0  0  0  0  0  0  0  0  0  0  0  0
   20.7665   19.0816   20.9649 C   0  0  0  0  0  0  0  0  0  0  0  0
   20.9089   18.3745   20.1361 H   0  0  0  0  0  0  0  0  0  0  0  0
   21.7331   19.5864   21.0984 H   0  0  0  0  0  0  0  0  0  0  0  0
   20.4351   18.2796   22.2499 C   0  0  0  0  0  0  0  0  0  0  0  0
   21.2471   17.5607   22.4260 H   0  0  0  0  0  0  0  0  0  0  0  0
   19.5293   17.6790   22.0931 H   0  0  0  0  0  0  0  0  0  0  0  0
   20.2647   19.1665   23.5064 C   0  0  0  0  0  0  0  0  0  0  0  0
   21.1566   19.7953   23.6345 H   0  0  0  0  0  0  0  0  0  0  0  0
   19.4123   19.8423   23.3637 H   0  0  0  0  0  0  0  0  0  0  0  0
   20.0448   18.3161   24.7810 C   0  0  0  0  0  0  0  0  0  0  0  0
   20.8803   17.6112   24.8862 H   0  0  0  0  0  0  0  0  0  0  0  0
   19.1355   17.7103   24.6708 H   0  0  0  0  0  0  0  0  0  0  0  0
   19.9489   19.1682   26.0651 C   0  0  2  0  0  0  0  0  0  0  0  0
   20.8530   19.7805   26.1386 H   0  0  0  0  0  0  0  0  0  0  0  0
   19.8779   18.2614   27.3040 C   0  0  0  0  0  0  0  0  0  0  0  0
   19.8464   18.8605   28.2224 H   0  0  0  0  0  0  0  0  0  0  0  0
   18.9842   17.6253   27.2797 H   0  0  0  0  0  0  0  0  0  0  0  0
   20.7591   17.6104   27.3617 H   0  0  0  0  0  0  0  0  0  0  0  0
   18.7829   20.1184   26.0403 N   0  3  0  0  0  0  0  0  0  0  0  0
   17.8941   19.6159   25.9695 H   0  0  0  0  0  0  0  0  0  0  0  0
   18.8401   20.7593   25.2444 H   0  0  0  0  0  0  0  0  0  0  0  0
   18.7467   20.6878   26.8907 H   0  0  0  0  0  0  0  0  0  0  0  0
  1  2  1  0  0  0  0
  1  3  1  0  0  0  0
  1  4  1  0  0  0  0
  1  5  1  0  0  0  0
  5  6  1  0  0  0  0
  5  7  1  0  0  0  0
  5  8  1  0  0  0  0
  8  9  1  0  0  0  0
  8 10  1  0  0  0  0
  8 11  1  0  0  0  0
 11 12  1  0  0  0  0
 11 13  1  0  0  0  0
 11 14  1  0  0  0  0
 14 15  1  0  0  0  0
 14 16  1  0  0  0  0
 14 17  1  0  0  0  0
 17 18  1  0  0  0  0
 17 19  1  0  0  0  0
 17 20  1  0  0  0  0
 20 21  1  0  0  0  0
 20 22  1  0  0  0  0
 22 23  1  0  0  0  0
 22 24  1  0  0  0  0
 22 25  1  0  0  0  0
 20 26  1  0  0  0  0
 26 27  1  0  0  0  0
 26 28  1  0  0  0  0
 26 29  1  0  0  0  0
M  END
> <VM2 Rank>
28

> <Conf_Id>
1033

> <Probability>
1.25

> <Sum Probability>
72.90

> <Delta G>
1.262

> <G>
34.964

> <E>
-2.857

> <-TS>
37.821

> <U+W>
-27.001

> <U>
25.448

> <W>
-52.449

> <W(PB)>
-54.940

> <W(SA)>
2.491

> <Valence>
4.118

> <Coulomb>
20.194

> <VdW>
1.135

> <VdW6>
-9.587

> <VdW12>
10.722

> <Bond>
0.268

> <Angle>
1.523

> <Pdih>
2.327

> <Idih>
0.000

> <Tether>
0.000

$$$$
VeraChem MOL file


 29 28  0  0  0  0  0  0  0  0999 V2000     
   19.6013   19.8389   19.2620 C   0  0  0  0  0  0  0  0  0  0  0  0
   18.7403   20.5081   19.3877 H   0  0  0  0  0  0  0  0  0  0  0  0
   20.5125   20.4015   19.4996 H   0  0  0  0  0  0  0  0  0  0  0  0
   19.6555   19.5573   18.2024 H   0  0  0  0  0  0  0  0  0  0  0  0
   19.4615   18.5807   20.1487 C   0  0  0  0  0  0  0  0  0  0  0  0
   20.3502   17.9448   20.0320 H   0  0  0  0  0  0  0  0  0  0  0  0
   18.6098   17.9878   19.7870 H   0  0  0  0  0  0  0  0  0  0  0  0
   19.2403   18.9017   21.6467 C   0  0  0  0  0  0  0  0  0  0  0  0
   18.3500   19.5356   21.7581 H   0  0  0  0  0  0  0  0  0  0  0  0
   19.0179   17.9603   22.1652 H   0  0  0  0  0  0  0  0  0  0  0  0
   20.4583   19.5872   22.3168 C   0  0  0  0  0  0  0  0  0  0  0  0
   20.6819   20.5261   21.7942 H   0  0  0  0  0  0  0  0  0  0  0  0
   21.3482   18.9524   22.2065 H   0  0  0  0  0  0  0  0  0  0  0  0
   20.2362   19.9149   23.8139 C   0  0  0  0  0  0  0  0  0  0  0  0
   21.0915   20.5060   24.1697 H   0  0  0  0  0  0  0  0  0  0  0  0
   19.3514   20.5574   23.9148 H   0  0  0  0  0  0  0  0  0  0  0  0
   20.0890   18.6570   24.7080 C   0  0  0  0  0  0  0  0  0  0  0  0
   20.9274   17.9772   24.5062 H   0  0  0  0  0  0  0  0  0  0  0  0
   19.1719   18.1128   24.4498 H   0  0  0  0  0  0  0  0  0  0  0  0
   20.0724   18.9935   26.2146 C   0  0  2  0  0  0  0  0  0  0  0  0
   20.9850   19.5489   26.4521 H   0  0  0  0  0  0  0  0  0  0  0  0
   20.0607   17.7039   27.0507 C   0  0  0  0  0  0  0  0  0  0  0  0
   20.0864   17.9359   28.1226 H   0  0  0  0  0  0  0  0  0  0  0  0
   19.1604   17.1093   26.8510 H   0  0  0  0  0  0  0  0  0  0  0  0
   20.9370   17.0840   26.8234 H   0  0  0  0  0  0  0  0  0  0  0  0
   18.9162   19.8783   26.5926 N   0  3  0  0  0  0  0  0  0  0  0  0
   18.9328   20.1100   27.5900 H   0  0  0  0  0  0  0  0  0  0  0  0
   18.0199   19.4243   26.3978 H   0  0  0  0  0  0  0  0  0  0  0  0
   18.9354   20.7599   26.0728 H   0  0  0  0  0  0  0  0  0  0  0  0
  1  2  1  0  0  0  0
  1  3  1  0  0  0  0
  1  4  1  0  0  0  0
  1  5  1  0  0  0  0
  5  6  1  0  0  0  0
  5  7  1  0  0  0  0
  5  8  1  0  0  0  0
  8  9  1  0  0  0  0
  8 10  1  0  0  0  0
  8 11  1  0  0  0  0
 11 12  1  0  0  0  0
 11 13  1  0  0  0  0
 11 14  1  0  0  0  0
 14 15  1  0  0  0  0
 14 16  1  0  0  0  0
 14 17  1  0  0  0  0
 17 18  1  0  0  0  0
 17 19  1  0  0  0  0
 17 20  1  0  0  0  0
 20 21  1  0  0  0  0
 20 22  1  0  0  0  0
 22 23  1  0  0  0  0
 22 24  1  0  0  0  0
 22 25  1  0  0  0  0
 20 26  1  0  0  0  0
 26 27  1  0  0  0  0
 26 28  1  0  0  0  0
 26 29  1  0  0  0  0
M  END
> <VM2 Rank>
29

> <Conf_Id>
500

> <Probability>
1.24

> <Sum Probability>
74.14

> <Delta G>
1.268

> <G>
34.971

> <E>
-2.590

> <-TS>
37.561

> <U+W>
-26.735

> <U>
25.449

> <W>
-52.184

> <W(PB)>
-54.671

> <W(SA)>
2.488

> <Valence>
4.270

> <Coulomb>
19.867

> <VdW>
1.312

> <VdW6>
-9.219

> <VdW12>
10.531

> <Bond>
0.272

> <Angle>
1.393

> <Pdih>
2.605

> <Idih>
0.000

> <Tether>
0.000

$$$$
VeraChem MOL file


 29 28  0  0  0  0  0  0  0  0999 V2000     
   18.9914   18.5542   19.5725 C   0  0  0  0  0  0  0  0  0  0  0  0
   19.0195   17.5108   19.9122 H   0  0  0  0  0  0  0  0  0  0  0  0
   18.0782   19.0192   19.9640 H   0  0  0  0  0  0  0  0  0  0  0  0
   18.9161   18.5491   18.4774 H   0  0  0  0  0  0  0  0  0  0  0  0
   20.2557   19.3197   20.0241 C   0  0  0  0  0  0  0  0  0  0  0  0
   20.1917   20.3661   19.6943 H   0  0  0  0  0  0  0  0  0  0  0  0
   21.1307   18.8904   19.5163 H   0  0  0  0  0  0  0  0  0  0  0  0
   20.4916   19.2658   21.5527 C   0  0  0  0  0  0  0  0  0  0  0  0
   20.5848   18.2169   21.8629 H   0  0  0  0  0  0  0  0  0  0  0  0
   21.4557   19.7437   21.7743 H   0  0  0  0  0  0  0  0  0  0  0  0
   19.3775   19.9678   22.3697 C   0  0  0  0  0  0  0  0  0  0  0  0
   18.4299   19.4242   22.2592 H   0  0  0  0  0  0  0  0  0  0  0  0
   19.2095   20.9712   21.9548 H   0  0  0  0  0  0  0  0  0  0  0  0
   19.7101   20.1098   23.8754 C   0  0  0  0  0  0  0  0  0  0  0  0
   20.6510   20.6652   23.9931 H   0  0  0  0  0  0  0  0  0  0  0  0
   18.9280   20.7250   24.3391 H   0  0  0  0  0  0  0  0  0  0  0  0
   19.8092   18.7514   24.6164 C   0  0  0  0  0  0  0  0  0  0  0  0
   20.6064   18.1490   24.1638 H   0  0  0  0  0  0  0  0  0  0  0  0
   18.8759   18.1879   24.4857 H   0  0  0  0  0  0  0  0  0  0  0  0
   20.1142   18.9080   26.1221 C   0  0  2  0  0  0  0  0  0  0  0  0
   21.0275   19.5018   26.2271 H   0  0  0  0  0  0  0  0  0  0  0  0
   20.3567   17.5325   26.7638 C   0  0  0  0  0  0  0  0  0  0  0  0
   20.6085   17.6386   27.8262 H   0  0  0  0  0  0  0  0  0  0  0  0
   19.4667   16.8954   26.6853 H   0  0  0  0  0  0  0  0  0  0  0  0
   21.1914   17.0153   26.2744 H   0  0  0  0  0  0  0  0  0  0  0  0
   19.0295   19.6468   26.8574 N   0  3  0  0  0  0  0  0  0  0  0  0
   18.1362   19.1506   26.8009 H   0  0  0  0  0  0  0  0  0  0  0  0
   18.8873   20.5839   26.4713 H   0  0  0  0  0  0  0  0  0  0  0  0
   19.2578   19.7558   27.8497 H   0  0  0  0  0  0  0  0  0  0  0  0
  1  2  1  0  0  0  0
  1  3  1  0  0  0  0
  1  4  1  0  0  0  0
  1  5  1  0  0  0  0
  5  6  1  0  0  0  0
  5  7  1  0  0  0  0
  5  8  1  0  0  0  0
  8  9  1  0  0  0  0
  8 10  1  0  0  0  0
  8 11  1  0  0  0  0
 11 12  1  0  0  0  0
 11 13  1  0  0  0  0
 11 14  1  0  0  0  0
 14 15  1  0  0  0  0
 14 16  1  0  0  0  0
 14 17  1  0  0  0  0
 17 18  1  0  0  0  0
 17 19  1  0  0  0  0
 17 20  1  0  0  0  0
 20 21  1  0  0  0  0
 20 22  1  0  0  0  0
 22 23  1  0  0  0  0
 22 24  1  0  0  0  0
 22 25  1  0  0  0  0
 20 26  1  0  0  0  0
 26 27  1  0  0  0  0
 26 28  1  0  0  0  0
 26 29  1  0  0  0  0
M  END
> <VM2 Rank>
30

> <Conf_Id>
305

> <Probability>
1.19

> <Sum Probability>
75.33

> <Delta G>
1.292

> <G>
34.995

> <E>
-2.604

> <-TS>
37.599

> <U+W>
-26.749

> <U>
25.263

> <W>
-52.011

> <W(PB)>
-54.533

> <W(SA)>
2.521

> <Valence>
4.207

> <Coulomb>
19.737

> <VdW>
1.319

> <VdW6>
-9.273

> <VdW12>
10.592

> <Bond>
0.271

> <Angle>
1.357

> <Pdih>
2.579

> <Idih>
0.000

> <Tether>
0.000

$$$$
VeraChem MOL file


 29 28  0  0  0  0  0  0  0  0999 V2000     
   20.3870   20.7308   20.2741 C   0  0  0  0  0  0  0  0  0  0  0  0
   19.5512   21.4224   20.4416 H   0  0  0  0  0  0  0  0  0  0  0  0
   21.0849   20.8236   21.1155 H   0  0  0  0  0  0  0  0  0  0  0  0
   20.9164   21.0568   19.3695 H   0  0  0  0  0  0  0  0  0  0  0  0
   19.8829   19.2788   20.1116 C   0  0  0  0  0  0  0  0  0  0  0  0
   20.7391   18.6030   19.9780 H   0  0  0  0  0  0  0  0  0  0  0  0
   19.2908   19.2112   19.1882 H   0  0  0  0  0  0  0  0  0  0  0  0
   19.0124   18.7932   21.2957 C   0  0  0  0  0  0  0  0  0  0  0  0
   18.1475   19.4607   21.4127 H   0  0  0  0  0  0  0  0  0  0  0  0
   18.6071   17.8028   21.0466 H   0  0  0  0  0  0  0  0  0  0  0  0
   19.7861   18.7014   22.6325 C   0  0  0  0  0  0  0  0  0  0  0  0
   20.1420   19.6988   22.9186 H   0  0  0  0  0  0  0  0  0  0  0  0
   20.6753   18.0703   22.4980 H   0  0  0  0  0  0  0  0  0  0  0  0
   18.9055   18.1182   23.7636 C   0  0  0  0  0  0  0  0  0  0  0  0
   18.0242   18.7556   23.9150 H   0  0  0  0  0  0  0  0  0  0  0  0
   18.5204   17.1380   23.4501 H   0  0  0  0  0  0  0  0  0  0  0  0
   19.6682   17.9400   25.1015 C   0  0  0  0  0  0  0  0  0  0  0  0
   20.4840   17.2207   24.9495 H   0  0  0  0  0  0  0  0  0  0  0  0
   18.9937   17.4867   25.8400 H   0  0  0  0  0  0  0  0  0  0  0  0
   20.2525   19.2488   25.6788 C   0  0  2  0  0  0  0  0  0  0  0  0
   20.9387   19.6753   24.9412 H   0  0  0  0  0  0  0  0  0  0  0  0
   21.0481   18.9594   26.9613 C   0  0  0  0  0  0  0  0  0  0  0  0
   21.4985   19.8791   27.3546 H   0  0  0  0  0  0  0  0  0  0  0  0
   20.4039   18.5337   27.7408 H   0  0  0  0  0  0  0  0  0  0  0  0
   21.8605   18.2490   26.7637 H   0  0  0  0  0  0  0  0  0  0  0  0
   19.1932   20.2854   25.9349 N   0  3  0  0  0  0  0  0  0  0  0  0
   18.6817   20.5125   25.0778 H   0  0  0  0  0  0  0  0  0  0  0  0
   19.5986   21.1553   26.2921 H   0  0  0  0  0  0  0  0  0  0  0  0
   18.5112   19.9583   26.6244 H   0  0  0  0  0  0  0  0  0  0  0  0
  1  2  1  0  0  0  0
  1  3  1  0  0  0  0
  1  4  1  0  0  0  0
  1  5  1  0  0  0  0
  5  6  1  0  0  0  0
  5  7  1  0  0  0  0
  5  8  1  0  0  0  0
  8  9  1  0  0  0  0
  8 10  1  0  0  0  0
  8 11  1  0  0  0  0
 11 12  1  0  0  0  0
 11 13  1  0  0  0  0
 11 14  1  0  0  0  0
 14 15  1  0  0  0  0
 14 16  1  0  0  0  0
 14 17  1  0  0  0  0
 17 18  1  0  0  0  0
 17 19  1  0  0  0  0
 17 20  1  0  0  0  0
 20 21  1  0  0  0  0
 20 22  1  0  0  0  0
 22 23  1  0  0  0  0
 22 24  1  0  0  0  0
 22 25  1  0  0  0  0
 20 26  1  0  0  0  0
 26 27  1  0  0  0  0
 26 28  1  0  0  0  0
 26 29  1  0  0  0  0
M  END
> <VM2 Rank>
31

> <Conf_Id>
1439

> <Probability>
1.17

> <Sum Probability>
76.50

> <Delta G>
1.300

> <G>
35.002

> <E>
-2.687

> <-TS>
37.689

> <U+W>
-26.831

> <U>
25.376

> <W>
-52.207

> <W(PB)>
-54.719

> <W(SA)>
2.512

> <Valence>
3.961

> <Coulomb>
20.374

> <VdW>
1.041

> <VdW6>
-9.517

> <VdW12>
10.558

> <Bond>
0.254

> <Angle>
1.329

> <Pdih>
2.378

> <Idih>
0.000

> <Tether>
0.000

$$$$
VeraChem MOL file


 29 28  0  0  0  0  0  0  0  0999 V2000     
   21.0679   19.3522   19.7508 C   0  0  0  0  0  0  0  0  0  0  0  0
   21.7271   18.5302   20.0590 H   0  0  0  0  0  0  0  0  0  0  0  0
   20.4900   19.0188   18.8790 H   0  0  0  0  0  0  0  0  0  0  0  0
   21.7007   20.1915   19.4344 H   0  0  0  0  0  0  0  0  0  0  0  0
   20.1358   19.7777   20.9050 C   0  0  0  0  0  0  0  0  0  0  0  0
   19.5101   20.6195   20.5774 H   0  0  0  0  0  0  0  0  0  0  0  0
   20.7478   20.1412   21.7411 H   0  0  0  0  0  0  0  0  0  0  0  0
   19.2362   18.6091   21.3714 C   0  0  0  0  0  0  0  0  0  0  0  0
   18.6907   18.2116   20.5044 H   0  0  0  0  0  0  0  0  0  0  0  0
   19.8598   17.7829   21.7371 H   0  0  0  0  0  0  0  0  0  0  0  0
   18.2011   19.0142   22.4528 C   0  0  0  0  0  0  0  0  0  0  0  0
   17.5938   18.1344   22.7061 H   0  0  0  0  0  0  0  0  0  0  0  0
   17.5040   19.7446   22.0195 H   0  0  0  0  0  0  0  0  0  0  0  0
   18.7936   19.6078   23.7574 C   0  0  0  0  0  0  0  0  0  0  0  0
   19.3052   20.5548   23.5398 H   0  0  0  0  0  0  0  0  0  0  0  0
   17.9568   19.8627   24.4207 H   0  0  0  0  0  0  0  0  0  0  0  0
   19.7627   18.6459   24.4916 C   0  0  0  0  0  0  0  0  0  0  0  0
   20.6104   18.4158   23.8342 H   0  0  0  0  0  0  0  0  0  0  0  0
   19.2561   17.6938   24.6980 H   0  0  0  0  0  0  0  0  0  0  0  0
   20.3153   19.2366   25.8069 C   0  0  2  0  0  0  0  0  0  0  0  0
   20.7809   20.2008   25.5809 H   0  0  0  0  0  0  0  0  0  0  0  0
   21.3886   18.3094   26.3992 C   0  0  0  0  0  0  0  0  0  0  0  0
   21.8106   18.7398   27.3158 H   0  0  0  0  0  0  0  0  0  0  0  0
   20.9712   17.3248   26.6444 H   0  0  0  0  0  0  0  0  0  0  0  0
   22.2131   18.1641   25.6901 H   0  0  0  0  0  0  0  0  0  0  0  0
   19.2347   19.5031   26.8190 N   0  3  0  0  0  0  0  0  0  0  0  0
   19.6179   19.9104   27.6768 H   0  0  0  0  0  0  0  0  0  0  0  0
   18.7474   18.6416   27.0795 H   0  0  0  0  0  0  0  0  0  0  0  0
   18.5350   20.1559   26.4560 H   0  0  0  0  0  0  0  0  0  0  0  0
  1  2  1  0  0  0  0
  1  3  1  0  0  0  0
  1  4  1  0  0  0  0
  1  5  1  0  0  0  0
  5  6  1  0  0  0  0
  5  7  1  0  0  0  0
  5  8  1  0  0  0  0
  8  9  1  0  0  0  0
  8 10  1  0  0  0  0
  8 11  1  0  0  0  0
 11 12  1  0  0  0  0
 11 13  1  0  0  0  0
 11 14  1  0  0  0  0
 14 15  1  0  0  0  0
 14 16  1  0  0  0  0
 14 17  1  0  0  0  0
 17 18  1  0  0  0  0
 17 19  1  0  0  0  0
 17 20  1  0  0  0  0
 20 21  1  0  0  0  0
 20 22  1  0  0  0  0
 22 23  1  0  0  0  0
 22 24  1  0  0  0  0
 22 25  1  0  0  0  0
 20 26  1  0  0  0  0
 26 27  1  0  0  0  0
 26 28  1  0  0  0  0
 26 29  1  0  0  0  0
M  END
> <VM2 Rank>
32

> <Conf_Id>
1580

> <Probability>
1.16

> <Sum Probability>
77.66

> <Delta G>
1.308

> <G>
35.010

> <E>
-2.817

> <-TS>
37.827

> <U+W>
-26.962

> <U>
25.305

> <W>
-52.267

> <W(PB)>
-54.759

> <W(SA)>
2.492

> <Valence>
4.184

> <Coulomb>
19.997

> <VdW>
1.124

> <VdW6>
-9.687

> <VdW12>
10.811

> <Bond>
0.280

> <Angle>
1.609

> <Pdih>
2.295

> <Idih>
0.000

> <Tether>
0.000

$$$$
VeraChem MOL file


 29 28  0  0  0  0  0  0  0  0999 V2000     
   19.5547   19.8121   19.2267 C   0  0  0  0  0  0  0  0  0  0  0  0
   20.3076   20.6106   19.2515 H   0  0  0  0  0  0  0  0  0  0  0  0
   19.4238   19.5067   18.1805 H   0  0  0  0  0  0  0  0  0  0  0  0
   18.5996   20.2284   19.5696 H   0  0  0  0  0  0  0  0  0  0  0  0
   19.9936   18.6074   20.0900 C   0  0  0  0  0  0  0  0  0  0  0  0
   20.8806   18.1495   19.6301 H   0  0  0  0  0  0  0  0  0  0  0  0
   19.2093   17.8377   20.0778 H   0  0  0  0  0  0  0  0  0  0  0  0
   20.3339   18.9855   21.5520 C   0  0  0  0  0  0  0  0  0  0  0  0
   20.7638   18.1006   22.0378 H   0  0  0  0  0  0  0  0  0  0  0  0
   21.1179   19.7551   21.5583 H   0  0  0  0  0  0  0  0  0  0  0  0
   19.1082   19.4799   22.3620 C   0  0  0  0  0  0  0  0  0  0  0  0
   18.3262   18.7082   22.3610 H   0  0  0  0  0  0  0  0  0  0  0  0
   18.6756   20.3582   21.8661 H   0  0  0  0  0  0  0  0  0  0  0  0
   19.4455   19.8756   23.8210 C   0  0  0  0  0  0  0  0  0  0  0  0
   20.2412   20.6334   23.8215 H   0  0  0  0  0  0  0  0  0  0  0  0
   18.5592   20.3583   24.2532 H   0  0  0  0  0  0  0  0  0  0  0  0
   19.8643   18.6759   24.7099 C   0  0  0  0  0  0  0  0  0  0  0  0
   20.7662   18.2116   24.2931 H   0  0  0  0  0  0  0  0  0  0  0  0
   19.0787   17.9089   24.6933 H   0  0  0  0  0  0  0  0  0  0  0  0
   20.1602   19.0833   26.1698 C   0  0  2  0  0  0  0  0  0  0  0  0
   20.9175   19.8733   26.1587 H   0  0  0  0  0  0  0  0  0  0  0  0
   20.7221   17.8872   26.9548 C   0  0  0  0  0  0  0  0  0  0  0  0
   20.9673   18.1786   27.9836 H   0  0  0  0  0  0  0  0  0  0  0  0
   19.9979   17.0639   26.9959 H   0  0  0  0  0  0  0  0  0  0  0  0
   21.6410   17.5111   26.4880 H   0  0  0  0  0  0  0  0  0  0  0  0
   18.9535   19.6491   26.8678 N   0  3  0  0  0  0  0  0  0  0  0  0
   18.1945   18.9641   26.9145 H   0  0  0  0  0  0  0  0  0  0  0  0
   18.5941   20.4756   26.3828 H   0  0  0  0  0  0  0  0  0  0  0  0
   19.1739   19.9290   27.8278 H   0  0  0  0  0  0  0  0  0  0  0  0
  1  2  1  0  0  0  0
  1  3  1  0  0  0  0
  1  4  1  0  0  0  0
  1  5  1  0  0  0  0
  5  6  1  0  0  0  0
  5  7  1  0  0  0  0
  5  8  1  0  0  0  0
  8  9  1  0  0  0  0
  8 10  1  0  0  0  0
  8 11  1  0  0  0  0
 11 12  1  0  0  0  0
 11 13  1  0  0  0  0
 11 14  1  0  0  0  0
 14 15  1  0  0  0  0
 14 16  1  0  0  0  0
 14 17  1  0  0  0  0
 17 18  1  0  0  0  0
 17 19  1  0  0  0  0
 17 20  1  0  0  0  0
 20 21  1  0  0  0  0
 20 22  1  0  0  0  0
 22 23  1  0  0  0  0
 22 24  1  0  0  0  0
 22 25  1  0  0  0  0
 20 26  1  0  0  0  0
 26 27  1  0  0  0  0
 26 28  1  0  0  0  0
 26 29  1  0  0  0  0
M  END
> <VM2 Rank>
33

> <Conf_Id>
1302

> <Probability>
1.11

> <Sum Probability>
78.77

> <Delta G>
1.333

> <G>
35.035

> <E>
-2.459

> <-TS>
37.495

> <U+W>
-26.604

> <U>
25.451

> <W>
-52.055

> <W(PB)>
-54.545

> <W(SA)>
2.490

> <Valence>
4.319

> <Coulomb>
19.732

> <VdW>
1.400

> <VdW6>
-9.173

> <VdW12>
10.573

> <Bond>
0.281

> <Angle>
1.459

> <Pdih>
2.580

> <Idih>
0.000

> <Tether>
0.000

$$$$
VeraChem MOL file


 29 28  0  0  0  0  0  0  0  0999 V2000     
   20.2682   20.7448   20.2634 C   0  0  0  0  0  0  0  0  0  0  0  0
   19.9274   21.2865   21.1544 H   0  0  0  0  0  0  0  0  0  0  0  0
   21.3570   20.6218   20.3302 H   0  0  0  0  0  0  0  0  0  0  0  0
   20.0546   21.3768   19.3917 H   0  0  0  0  0  0  0  0  0  0  0  0
   19.5620   19.3770   20.1253 C   0  0  0  0  0  0  0  0  0  0  0  0
   19.8403   18.9309   19.1603 H   0  0  0  0  0  0  0  0  0  0  0  0
   18.4734   19.5245   20.0933 H   0  0  0  0  0  0  0  0  0  0  0  0
   19.9223   18.3814   21.2542 C   0  0  0  0  0  0  0  0  0  0  0  0
   19.4707   17.4081   21.0176 H   0  0  0  0  0  0  0  0  0  0  0  0
   21.0094   18.2223   21.2697 H   0  0  0  0  0  0  0  0  0  0  0  0
   19.4414   18.8354   22.6531 C   0  0  0  0  0  0  0  0  0  0  0  0
   18.3620   19.0377   22.6217 H   0  0  0  0  0  0  0  0  0  0  0  0
   19.9367   19.7765   22.9226 H   0  0  0  0  0  0  0  0  0  0  0  0
   19.7359   17.7672   23.7333 C   0  0  0  0  0  0  0  0  0  0  0  0
   19.2772   16.8152   23.4325 H   0  0  0  0  0  0  0  0  0  0  0  0
   20.8163   17.5779   23.7848 H   0  0  0  0  0  0  0  0  0  0  0  0
   19.1947   18.1498   25.1351 C   0  0  0  0  0  0  0  0  0  0  0  0
   19.4277   17.3412   25.8405 H   0  0  0  0  0  0  0  0  0  0  0  0
   18.0992   18.2003   25.0813 H   0  0  0  0  0  0  0  0  0  0  0  0
   19.7247   19.4886   25.7008 C   0  0  2  0  0  0  0  0  0  0  0  0
   19.4775   20.2850   24.9928 H   0  0  0  0  0  0  0  0  0  0  0  0
   21.2508   19.4695   25.8991 C   0  0  0  0  0  0  0  0  0  0  0  0
   21.7744   19.3528   24.9431 H   0  0  0  0  0  0  0  0  0  0  0  0
   21.5945   20.4110   26.3449 H   0  0  0  0  0  0  0  0  0  0  0  0
   21.5546   18.6486   26.5605 H   0  0  0  0  0  0  0  0  0  0  0  0
   19.0360   19.8424   26.9895 N   0  3  0  0  0  0  0  0  0  0  0  0
   19.3547   20.7473   27.3478 H   0  0  0  0  0  0  0  0  0  0  0  0
   19.2199   19.1447   27.7154 H   0  0  0  0  0  0  0  0  0  0  0  0
   18.0206   19.9024   26.8704 H   0  0  0  0  0  0  0  0  0  0  0  0
  1  2  1  0  0  0  0
  1  3  1  0  0  0  0
  1  4  1  0  0  0  0
  1  5  1  0  0  0  0
  5  6  1  0  0  0  0
  5  7  1  0  0  0  0
  5  8  1  0  0  0  0
  8  9  1  0  0  0  0
  8 10  1  0  0  0  0
  8 11  1  0  0  0  0
 11 12  1  0  0  0  0
 11 13  1  0  0  0  0
 11 14  1  0  0  0  0
 14 15  1  0  0  0  0
 14 16  1  0  0  0  0
 14 17  1  0  0  0  0
 17 18  1  0  0  0  0
 17 19  1  0  0  0  0
 17 20  1  0  0  0  0
 20 21  1  0  0  0  0
 20 22  1  0  0  0  0
 22 23  1  0  0  0  0
 22 24  1  0  0  0  0
 22 25  1  0  0  0  0
 20 26  1  0  0  0  0
 26 27  1  0  0  0  0
 26 28  1  0  0  0  0
 26 29  1  0  0  0  0
M  END
> <VM2 Rank>
34

> <Conf_Id>
1285

> <Probability>
0.95

> <Sum Probability>
79.71

> <Delta G>
1.428

> <G>
35.131

> <E>
-2.659

> <-TS>
37.789

> <U+W>
-26.803

> <U>
25.521

> <W>
-52.324

> <W(PB)>
-54.806

> <W(SA)>
2.483

> <Valence>
4.455

> <Coulomb>
19.959

> <VdW>
1.107

> <VdW6>
-9.753

> <VdW12>
10.860

> <Bond>
0.265

> <Angle>
1.660

> <Pdih>
2.530

> <Idih>
0.000

> <Tether>
0.000

$$$$
VeraChem MOL file


 29 28  0  0  0  0  0  0  0  0999 V2000     
   19.3786   19.6730   19.0514 C   0  0  0  0  0  0  0  0  0  0  0  0
   18.5396   20.3768   19.1295 H   0  0  0  0  0  0  0  0  0  0  0  0
   20.2596   20.2282   18.7041 H   0  0  0  0  0  0  0  0  0  0  0  0
   19.1250   18.9297   18.2844 H   0  0  0  0  0  0  0  0  0  0  0  0
   19.6535   18.9861   20.4059 C   0  0  0  0  0  0  0  0  0  0  0  0
   20.4772   18.2681   20.2894 H   0  0  0  0  0  0  0  0  0  0  0  0
   18.7663   18.4091   20.6981 H   0  0  0  0  0  0  0  0  0  0  0  0
   20.0089   20.0155   21.5047 C   0  0  0  0  0  0  0  0  0  0  0  0
   20.8449   20.6359   21.1531 H   0  0  0  0  0  0  0  0  0  0  0  0
   19.1628   20.6989   21.6602 H   0  0  0  0  0  0  0  0  0  0  0  0
   20.4121   19.3716   22.8540 C   0  0  0  0  0  0  0  0  0  0  0  0
   20.7765   20.1695   23.5141 H   0  0  0  0  0  0  0  0  0  0  0  0
   21.2595   18.6902   22.6967 H   0  0  0  0  0  0  0  0  0  0  0  0
   19.2526   18.6125   23.5480 C   0  0  0  0  0  0  0  0  0  0  0  0
   18.3932   19.2835   23.6778 H   0  0  0  0  0  0  0  0  0  0  0  0
   18.9068   17.7977   22.8990 H   0  0  0  0  0  0  0  0  0  0  0  0
   19.6563   17.9964   24.9124 C   0  0  0  0  0  0  0  0  0  0  0  0
   20.4567   17.2632   24.7455 H   0  0  0  0  0  0  0  0  0  0  0  0
   18.8042   17.4329   25.3153 H   0  0  0  0  0  0  0  0  0  0  0  0
   20.1281   19.0262   25.9634 C   0  0  2  0  0  0  0  0  0  0  0  0
   20.9930   19.5606   25.5598 H   0  0  0  0  0  0  0  0  0  0  0  0
   20.5663   18.3125   27.2520 C   0  0  0  0  0  0  0  0  0  0  0  0
   20.9398   19.0350   27.9881 H   0  0  0  0  0  0  0  0  0  0  0  0
   19.7317   17.7631   27.7053 H   0  0  0  0  0  0  0  0  0  0  0  0
   21.3739   17.5988   27.0466 H   0  0  0  0  0  0  0  0  0  0  0  0
   19.0796   20.0623   26.2620 N   0  3  0  0  0  0  0  0  0  0  0  0
   19.4162   20.7516   26.9403 H   0  0  0  0  0  0  0  0  0  0  0  0
   18.2345   19.6356   26.6510 H   0  0  0  0  0  0  0  0  0  0  0  0
   18.8082   20.5698   25.4155 H   0  0  0  0  0  0  0  0  0  0  0  0
  1  2  1  0  0  0  0
  1  3  1  0  0  0  0
  1  4  1  0  0  0  0
  1  5  1  0  0  0  0
  5  6  1  0  0  0  0
  5  7  1  0  0  0  0
  5  8  1  0  0  0  0
  8  9  1  0  0  0  0
  8 10  1  0  0  0  0
  8 11  1  0  0  0  0
 11 12  1  0  0  0  0
 11 13  1  0  0  0  0
 11 14  1  0  0  0  0
 14 15  1  0  0  0  0
 14 16  1  0  0  0  0
 14 17  1  0  0  0  0
 17 18  1  0  0  0  0
 17 19  1  0  0  0  0
 17 20  1  0  0  0  0
 20 21  1  0  0  0  0
 20 22  1  0  0  0  0
 22 23  1  0  0  0  0
 22 24  1  0  0  0  0
 22 25  1  0  0  0  0
 20 26  1  0  0  0  0
 26 27  1  0  0  0  0
 26 28  1  0  0  0  0
 26 29  1  0  0  0  0
M  END
> <VM2 Rank>
35

> <Conf_Id>
1191

> <Probability>
0.94

> <Sum Probability>
80.65

> <Delta G>
1.434

> <G>
35.136

> <E>
-2.510

> <-TS>
37.647

> <U+W>
-26.655

> <U>
25.432

> <W>
-52.087

> <W(PB)>
-54.610

> <W(SA)>
2.523

> <Valence>
4.057

> <Coulomb>
20.266

> <VdW>
1.109

> <VdW6>
-9.451

> <VdW12>
10.560

> <Bond>
0.265

> <Angle>
1.407

> <Pdih>
2.385

> <Idih>
0.000

> <Tether>
0.000

$$$$
VeraChem MOL file


 29 28  0  0  0  0  0  0  0  0999 V2000     
   19.1567   20.0998   19.3406 C   0  0  0  0  0  0  0  0  0  0  0  0
   19.0091   19.1348   18.8383 H   0  0  0  0  0  0  0  0  0  0  0  0
   18.3108   20.7488   19.0793 H   0  0  0  0  0  0  0  0  0  0  0  0
   20.0697   20.5584   18.9388 H   0  0  0  0  0  0  0  0  0  0  0  0
   19.2528   19.9193   20.8703 C   0  0  0  0  0  0  0  0  0  0  0  0
   18.3085   19.4974   21.2387 H   0  0  0  0  0  0  0  0  0  0  0  0
   19.3707   20.9029   21.3459 H   0  0  0  0  0  0  0  0  0  0  0  0
   20.4365   19.0039   21.2624 C   0  0  0  0  0  0  0  0  0  0  0  0
   20.2925   18.0051   20.8276 H   0  0  0  0  0  0  0  0  0  0  0  0
   21.3588   19.4031   20.8181 H   0  0  0  0  0  0  0  0  0  0  0  0
   20.6427   18.8800   22.7918 C   0  0  0  0  0  0  0  0  0  0  0  0
   20.8062   19.8799   23.2152 H   0  0  0  0  0  0  0  0  0  0  0  0
   21.5659   18.3125   22.9730 H   0  0  0  0  0  0  0  0  0  0  0  0
   19.4680   18.1756   23.5166 C   0  0  0  0  0  0  0  0  0  0  0  0
   18.5524   18.7735   23.4267 H   0  0  0  0  0  0  0  0  0  0  0  0
   19.2586   17.2199   23.0167 H   0  0  0  0  0  0  0  0  0  0  0  0
   19.7598   17.8943   25.0128 C   0  0  0  0  0  0  0  0  0  0  0  0
   20.6114   17.2045   25.0830 H   0  0  0  0  0  0  0  0  0  0  0  0
   18.9022   17.3680   25.4523 H   0  0  0  0  0  0  0  0  0  0  0  0
   20.0664   19.1587   25.8462 C   0  0  2  0  0  0  0  0  0  0  0  0
   20.9339   19.6595   25.4064 H   0  0  0  0  0  0  0  0  0  0  0  0
   20.4174   18.7743   27.2922 C   0  0  0  0  0  0  0  0  0  0  0  0
   21.2814   18.0986   27.3167 H   0  0  0  0  0  0  0  0  0  0  0  0
   20.6744   19.6647   27.8791 H   0  0  0  0  0  0  0  0  0  0  0  0
   19.5759   18.2711   27.7848 H   0  0  0  0  0  0  0  0  0  0  0  0
   18.9355   20.1500   25.8212 N   0  3  0  0  0  0  0  0  0  0  0  0
   18.7183   20.4404   24.8640 H   0  0  0  0  0  0  0  0  0  0  0  0
   19.1645   20.9932   26.3552 H   0  0  0  0  0  0  0  0  0  0  0  0
   18.0832   19.7526   26.2250 H   0  0  0  0  0  0  0  0  0  0  0  0
  1  2  1  0  0  0  0
  1  3  1  0  0  0  0
  1  4  1  0  0  0  0
  1  5  1  0  0  0  0
  5  6  1  0  0  0  0
  5  7  1  0  0  0  0
  5  8  1  0  0  0  0
  8  9  1  0  0  0  0
  8 10  1  0  0  0  0
  8 11  1  0  0  0  0
 11 12  1  0  0  0  0
 11 13  1  0  0  0  0
 11 14  1  0  0  0  0
 14 15  1  0  0  0  0
 14 16  1  0  0  0  0
 14 17  1  0  0  0  0
 17 18  1  0  0  0  0
 17 19  1  0  0  0  0
 17 20  1  0  0  0  0
 20 21  1  0  0  0  0
 20 22  1  0  0  0  0
 22 23  1  0  0  0  0
 22 24  1  0  0  0  0
 22 25  1  0  0  0  0
 20 26  1  0  0  0  0
 26 27  1  0  0  0  0
 26 28  1  0  0  0  0
 26 29  1  0  0  0  0
M  END
> <VM2 Rank>
36

> <Conf_Id>
661

> <Probability>
0.90

> <Sum Probability>
81.55

> <Delta G>
1.456

> <G>
35.158

> <E>
-2.535

> <-TS>
37.694

> <U+W>
-26.680

> <U>
25.640

> <W>
-52.320

> <W(PB)>
-54.809

> <W(SA)>
2.490

> <Valence>
3.985

> <Coulomb>
20.666

> <VdW>
0.990

> <VdW6>
-9.569

> <VdW12>
10.558

> <Bond>
0.256

> <Angle>
1.314

> <Pdih>
2.414

> <Idih>
0.000

> <Tether>
0.000

$$$$
VeraChem MOL file


 29 28  0  0  0  0  0  0  0  0999 V2000     
   20.4607   19.1084   19.2235 C   0  0  0  0  0  0  0  0  0  0  0  0
   21.3015   18.5265   18.8242 H   0  0  0  0  0  0  0  0  0  0  0  0
   19.5360   18.7065   18.7890 H   0  0  0  0  0  0  0  0  0  0  0  0
   20.5764   20.1454   18.8821 H   0  0  0  0  0  0  0  0  0  0  0  0
   20.4279   19.0315   20.7646 C   0  0  0  0  0  0  0  0  0  0  0  0
   21.3762   19.4127   21.1684 H   0  0  0  0  0  0  0  0  0  0  0  0
   20.3527   17.9786   21.0669 H   0  0  0  0  0  0  0  0  0  0  0  0
   19.2473   19.8414   21.3504 C   0  0  0  0  0  0  0  0  0  0  0  0
   19.2986   20.8717   20.9719 H   0  0  0  0  0  0  0  0  0  0  0  0
   18.2968   19.4269   20.9872 H   0  0  0  0  0  0  0  0  0  0  0  0
   19.2369   19.8873   22.8978 C   0  0  0  0  0  0  0  0  0  0  0  0
   18.4421   20.5740   23.2204 H   0  0  0  0  0  0  0  0  0  0  0  0
   20.1826   20.3196   23.2513 H   0  0  0  0  0  0  0  0  0  0  0  0
   19.0042   18.5029   23.5537 C   0  0  0  0  0  0  0  0  0  0  0  0
   18.1063   18.0444   23.1171 H   0  0  0  0  0  0  0  0  0  0  0  0
   19.8348   17.8257   23.3189 H   0  0  0  0  0  0  0  0  0  0  0  0
   18.8170   18.5834   25.0907 C   0  0  0  0  0  0  0  0  0  0  0  0
   18.6477   17.5721   25.4837 H   0  0  0  0  0  0  0  0  0  0  0  0
   17.8990   19.1485   25.2991 H   0  0  0  0  0  0  0  0  0  0  0  0
   19.9883   19.2404   25.8585 C   0  0  2  0  0  0  0  0  0  0  0  0
   20.1408   20.2476   25.4595 H   0  0  0  0  0  0  0  0  0  0  0  0
   21.2996   18.4504   25.7005 C   0  0  0  0  0  0  0  0  0  0  0  0
   21.6331   18.4380   24.6562 H   0  0  0  0  0  0  0  0  0  0  0  0
   22.1013   18.9096   26.2919 H   0  0  0  0  0  0  0  0  0  0  0  0
   21.1804   17.4127   26.0361 H   0  0  0  0  0  0  0  0  0  0  0  0
   19.6541   19.4102   27.3143 N   0  3  0  0  0  0  0  0  0  0  0  0
   19.4986   18.5069   27.7700 H   0  0  0  0  0  0  0  0  0  0  0  0
   18.8064   19.9702   27.4439 H   0  0  0  0  0  0  0  0  0  0  0  0
   20.4104   19.8809   27.8194 H   0  0  0  0  0  0  0  0  0  0  0  0
  1  2  1  0  0  0  0
  1  3  1  0  0  0  0
  1  4  1  0  0  0  0
  1  5  1  0  0  0  0
  5  6  1  0  0  0  0
  5  7  1  0  0  0  0
  5  8  1  0  0  0  0
  8  9  1  0  0  0  0
  8 10  1  0  0  0  0
  8 11  1  0  0  0  0
 11 12  1  0  0  0  0
 11 13  1  0  0  0  0
 11 14  1  0  0  0  0
 14 15  1  0  0  0  0
 14 16  1  0  0  0  0
 14 17  1  0  0  0  0
 17 18  1  0  0  0  0
 17 19  1  0  0  0  0
 17 20  1  0  0  0  0
 20 21  1  0  0  0  0
 20 22  1  0  0  0  0
 22 23  1  0  0  0  0
 22 24  1  0  0  0  0
 22 25  1  0  0  0  0
 20 26  1  0  0  0  0
 26 27  1  0  0  0  0
 26 28  1  0  0  0  0
 26 29  1  0  0  0  0
M  END
> <VM2 Rank>
37

> <Conf_Id>
1345

> <Probability>
0.90

> <Sum Probability>
82.45

> <Delta G>
1.457

> <G>
35.159

> <E>
-2.629

> <-TS>
37.788

> <U+W>
-26.774

> <U>
25.505

> <W>
-52.279

> <W(PB)>
-54.762

> <W(SA)>
2.483

> <Valence>
4.471

> <Coulomb>
19.979

> <VdW>
1.055

> <VdW6>
-9.824

> <VdW12>
10.879

> <Bond>
0.267

> <Angle>
1.632

> <Pdih>
2.572

> <Idih>
0.000

> <Tether>
0.000

$$$$
VeraChem MOL file


 29 28  0  0  0  0  0  0  0  0999 V2000     
   18.2672   19.0785   19.9819 C   0  0  0  0  0  0  0  0  0  0  0  0
   17.8654   18.1138   20.3182 H   0  0  0  0  0  0  0  0  0  0  0  0
   17.4186   19.7408   19.7670 H   0  0  0  0  0  0  0  0  0  0  0  0
   18.8119   18.9136   19.0431 H   0  0  0  0  0  0  0  0  0  0  0  0
   19.1857   19.7006   21.0548 C   0  0  0  0  0  0  0  0  0  0  0  0
   18.5969   19.8867   21.9627 H   0  0  0  0  0  0  0  0  0  0  0  0
   19.5483   20.6766   20.7034 H   0  0  0  0  0  0  0  0  0  0  0  0
   20.3879   18.7825   21.3778 C   0  0  0  0  0  0  0  0  0  0  0  0
   20.0271   17.8215   21.7674 H   0  0  0  0  0  0  0  0  0  0  0  0
   20.9183   18.5484   20.4445 H   0  0  0  0  0  0  0  0  0  0  0  0
   21.4011   19.4111   22.3692 C   0  0  0  0  0  0  0  0  0  0  0  0
   21.8408   20.3065   21.9087 H   0  0  0  0  0  0  0  0  0  0  0  0
   22.2337   18.7090   22.5142 H   0  0  0  0  0  0  0  0  0  0  0  0
   20.8216   19.7968   23.7546 C   0  0  0  0  0  0  0  0  0  0  0  0
   21.6320   20.2252   24.3605 H   0  0  0  0  0  0  0  0  0  0  0  0
   20.0793   20.5958   23.6331 H   0  0  0  0  0  0  0  0  0  0  0  0
   20.2014   18.5990   24.5179 C   0  0  0  0  0  0  0  0  0  0  0  0
   20.9309   17.7786   24.5438 H   0  0  0  0  0  0  0  0  0  0  0  0
   19.3220   18.2225   23.9799 H   0  0  0  0  0  0  0  0  0  0  0  0
   19.7990   18.9546   25.9652 C   0  0  2  0  0  0  0  0  0  0  0  0
   20.6821   19.3442   26.4809 H   0  0  0  0  0  0  0  0  0  0  0  0
   19.3193   17.6990   26.7106 C   0  0  0  0  0  0  0  0  0  0  0  0
   20.1033   16.9317   26.7264 H   0  0  0  0  0  0  0  0  0  0  0  0
   19.0666   17.9379   27.7510 H   0  0  0  0  0  0  0  0  0  0  0  0
   18.4300   17.2691   26.2327 H   0  0  0  0  0  0  0  0  0  0  0  0
   18.7529   20.0340   26.0221 N   0  3  0  0  0  0  0  0  0  0  0  0
   17.8899   19.7417   25.5560 H   0  0  0  0  0  0  0  0  0  0  0  0
   19.0760   20.8914   25.5659 H   0  0  0  0  0  0  0  0  0  0  0  0
   18.5141   20.2724   26.9889 H   0  0  0  0  0  0  0  0  0  0  0  0
  1  2  1  0  0  0  0
  1  3  1  0  0  0  0
  1  4  1  0  0  0  0
  1  5  1  0  0  0  0
  5  6  1  0  0  0  0
  5  7  1  0  0  0  0
  5  8  1  0  0  0  0
  8  9  1  0  0  0  0
  8 10  1  0  0  0  0
  8 11  1  0  0  0  0
 11 12  1  0  0  0  0
 11 13  1  0  0  0  0
 11 14  1  0  0  0  0
 14 15  1  0  0  0  0
 14 16  1  0  0  0  0
 14 17  1  0  0  0  0
 17 18  1  0  0  0  0
 17 19  1  0  0  0  0
 17 20  1  0  0  0  0
 20 21  1  0  0  0  0
 20 22  1  0  0  0  0
 22 23  1  0  0  0  0
 22 24  1  0  0  0  0
 22 25  1  0  0  0  0
 20 26  1  0  0  0  0
 26 27  1  0  0  0  0
 26 28  1  0  0  0  0
 26 29  1  0  0  0  0
M  END
> <VM2 Rank>
38

> <Conf_Id>
1340

> <Probability>
0.85

> <Sum Probability>
83.30

> <Delta G>
1.490

> <G>
35.193

> <E>
-2.653

> <-TS>
37.846

> <U+W>
-26.798

> <U>
25.620

> <W>
-52.418

> <W(PB)>
-54.904

> <W(SA)>
2.485

> <Valence>
4.137

> <Coulomb>
20.479

> <VdW>
1.005

> <VdW6>
-9.764

> <VdW12>
10.769

> <Bond>
0.272

> <Angle>
1.511

> <Pdih>
2.355

> <Idih>
0.000

> <Tether>
0.000

$$$$
VeraChem MOL file


 29 28  0  0  0  0  0  0  0  0999 V2000     
   19.4025   20.5551   19.7641 C   0  0  0  0  0  0  0  0  0  0  0  0
   19.9769   20.9597   18.9207 H   0  0  0  0  0  0  0  0  0  0  0  0
   18.5451   20.0049   19.3551 H   0  0  0  0  0  0  0  0  0  0  0  0
   19.0186   21.4020   20.3477 H   0  0  0  0  0  0  0  0  0  0  0  0
   20.2863   19.6369   20.6346 C   0  0  0  0  0  0  0  0  0  0  0  0
   21.1519   20.2057   21.0021 H   0  0  0  0  0  0  0  0  0  0  0  0
   20.6831   18.8198   20.0158 H   0  0  0  0  0  0  0  0  0  0  0  0
   19.5009   19.0529   21.8294 C   0  0  0  0  0  0  0  0  0  0  0  0
   19.1019   19.8786   22.4330 H   0  0  0  0  0  0  0  0  0  0  0  0
   18.6384   18.4829   21.4575 H   0  0  0  0  0  0  0  0  0  0  0  0
   20.3873   18.1365   22.7061 C   0  0  0  0  0  0  0  0  0  0  0  0
   21.2305   18.7128   23.1098 H   0  0  0  0  0  0  0  0  0  0  0  0
   20.8305   17.3556   22.0728 H   0  0  0  0  0  0  0  0  0  0  0  0
   19.6143   17.4481   23.8605 C   0  0  0  0  0  0  0  0  0  0  0  0
   18.8430   16.7925   23.4332 H   0  0  0  0  0  0  0  0  0  0  0  0
   20.3003   16.7818   24.4003 H   0  0  0  0  0  0  0  0  0  0  0  0
   18.9402   18.4200   24.8660 C   0  0  0  0  0  0  0  0  0  0  0  0
   18.4826   17.8345   25.6744 H   0  0  0  0  0  0  0  0  0  0  0  0
   18.1100   18.9304   24.3616 H   0  0  0  0  0  0  0  0  0  0  0  0
   19.8836   19.4825   25.4765 C   0  0  2  0  0  0  0  0  0  0  0  0
   20.3425   20.0461   24.6586 H   0  0  0  0  0  0  0  0  0  0  0  0
   21.0030   18.8436   26.3174 C   0  0  0  0  0  0  0  0  0  0  0  0
   20.5893   18.2296   27.1270 H   0  0  0  0  0  0  0  0  0  0  0  0
   21.6500   18.2082   25.7014 H   0  0  0  0  0  0  0  0  0  0  0  0
   21.6382   19.6168   26.7668 H   0  0  0  0  0  0  0  0  0  0  0  0
   19.1178   20.4806   26.2994 N   0  3  0  0  0  0  0  0  0  0  0  0
   19.7339   21.2077   26.6740 H   0  0  0  0  0  0  0  0  0  0  0  0
   18.6558   20.0324   27.0954 H   0  0  0  0  0  0  0  0  0  0  0  0
   18.3938   20.9491   25.7471 H   0  0  0  0  0  0  0  0  0  0  0  0
  1  2  1  0  0  0  0
  1  3  1  0  0  0  0
  1  4  1  0  0  0  0
  1  5  1  0  0  0  0
  5  6  1  0  0  0  0
  5  7  1  0  0  0  0
  5  8  1  0  0  0  0
  8  9  1  0  0  0  0
  8 10  1  0  0  0  0
  8 11  1  0  0  0  0
 11 12  1  0  0  0  0
 11 13  1  0  0  0  0
 11 14  1  0  0  0  0
 14 15  1  0  0  0  0
 14 16  1  0  0  0  0
 14 17  1  0  0  0  0
 17 18  1  0  0  0  0
 17 19  1  0  0  0  0
 17 20  1  0  0  0  0
 20 21  1  0  0  0  0
 20 22  1  0  0  0  0
 22 23  1  0  0  0  0
 22 24  1  0  0  0  0
 22 25  1  0  0  0  0
 20 26  1  0  0  0  0
 26 27  1  0  0  0  0
 26 28  1  0  0  0  0
 26 29  1  0  0  0  0
M  END
> <VM2 Rank>
39

> <Conf_Id>
262

> <Probability>
0.83

> <Sum Probability>
84.14

> <Delta G>
1.503

> <G>
35.205

> <E>
-2.773

> <-TS>
37.978

> <U+W>
-26.918

> <U>
25.707

> <W>
-52.625

> <W(PB)>
-55.091

> <W(SA)>
2.466

> <Valence>
4.405

> <Coulomb>
20.449

> <VdW>
0.853

> <VdW6>
-10.191

> <VdW12>
11.044

> <Bond>
0.273

> <Angle>
1.693

> <Pdih>
2.439

> <Idih>
0.000

> <Tether>
0.000

$$$$
VeraChem MOL file


 29 28  0  0  0  0  0  0  0  0999 V2000     
   18.3551   18.9224   19.9420 C   0  0  0  0  0  0  0  0  0  0  0  0
   17.5700   19.5549   20.3765 H   0  0  0  0  0  0  0  0  0  0  0  0
   18.7539   19.4325   19.0554 H   0  0  0  0  0  0  0  0  0  0  0  0
   17.8884   17.9858   19.6102 H   0  0  0  0  0  0  0  0  0  0  0  0
   19.4715   18.6405   20.9695 C   0  0  0  0  0  0  0  0  0  0  0  0
   20.2263   17.9824   20.5170 H   0  0  0  0  0  0  0  0  0  0  0  0
   19.0424   18.0959   21.8210 H   0  0  0  0  0  0  0  0  0  0  0  0
   20.1420   19.9470   21.4554 C   0  0  0  0  0  0  0  0  0  0  0  0
   20.4972   20.5117   20.5824 H   0  0  0  0  0  0  0  0  0  0  0  0
   19.3961   20.5873   21.9444 H   0  0  0  0  0  0  0  0  0  0  0  0
   21.3447   19.7121   22.4057 C   0  0  0  0  0  0  0  0  0  0  0  0
   21.7776   20.6857   22.6736 H   0  0  0  0  0  0  0  0  0  0  0  0
   22.1313   19.1746   21.8584 H   0  0  0  0  0  0  0  0  0  0  0  0
   21.0195   18.9313   23.7052 C   0  0  0  0  0  0  0  0  0  0  0  0
   20.7129   17.9092   23.4500 H   0  0  0  0  0  0  0  0  0  0  0  0
   21.9438   18.8337   24.2912 H   0  0  0  0  0  0  0  0  0  0  0  0
   19.9378   19.6156   24.5799 C   0  0  0  0  0  0  0  0  0  0  0  0
   18.9731   19.6123   24.0568 H   0  0  0  0  0  0  0  0  0  0  0  0
   20.2158   20.6687   24.7187 H   0  0  0  0  0  0  0  0  0  0  0  0
   19.7650   18.9655   25.9712 C   0  0  2  0  0  0  0  0  0  0  0  0
   20.7429   18.9389   26.4618 H   0  0  0  0  0  0  0  0  0  0  0  0
   19.2285   17.5261   25.8743 C   0  0  0  0  0  0  0  0  0  0  0  0
   19.0670   17.1059   26.8746 H   0  0  0  0  0  0  0  0  0  0  0  0
   18.2744   17.4938   25.3336 H   0  0  0  0  0  0  0  0  0  0  0  0
   19.9386   16.8698   25.3581 H   0  0  0  0  0  0  0  0  0  0  0  0
   18.8718   19.7955   26.8507 N   0  3  0  0  0  0  0  0  0  0  0  0
   19.2333   20.7470   26.9643 H   0  0  0  0  0  0  0  0  0  0  0  0
   18.7862   19.3887   27.7866 H   0  0  0  0  0  0  0  0  0  0  0  0
   17.9278   19.8691   26.4620 H   0  0  0  0  0  0  0  0  0  0  0  0
  1  2  1  0  0  0  0
  1  3  1  0  0  0  0
  1  4  1  0  0  0  0
  1  5  1  0  0  0  0
  5  6  1  0  0  0  0
  5  7  1  0  0  0  0
  5  8  1  0  0  0  0
  8  9  1  0  0  0  0
  8 10  1  0  0  0  0
  8 11  1  0  0  0  0
 11 12  1  0  0  0  0
 11 13  1  0  0  0  0
 11 14  1  0  0  0  0
 14 15  1  0  0  0  0
 14 16  1  0  0  0  0
 14 17  1  0  0  0  0
 17 18  1  0  0  0  0
 17 19  1  0  0  0  0
 17 20  1  0  0  0  0
 20 21  1  0  0  0  0
 20 22  1  0  0  0  0
 22 23  1  0  0  0  0
 22 24  1  0  0  0  0
 22 25  1  0  0  0  0
 20 26  1  0  0  0  0
 26 27  1  0  0  0  0
 26 28  1  0  0  0  0
 26 29  1  0  0  0  0
M  END
> <VM2 Rank>
40

> <Conf_Id>
1365

> <Probability>
0.67

> <Sum Probability>
84.81

> <Delta G>
1.637

> <G>
35.339

> <E>
-2.533

> <-TS>
37.872

> <U+W>
-26.677

> <U>
25.699

> <W>
-52.376

> <W(PB)>
-54.830

> <W(SA)>
2.454

> <Valence>
4.645

> <Coulomb>
19.935

> <VdW>
1.119

> <VdW6>
-9.960

> <VdW12>
11.079

> <Bond>
0.284

> <Angle>
1.754

> <Pdih>
2.607

> <Idih>
0.000

> <Tether>
0.000

$$$$
VeraChem MOL file


 29 28  0  0  0  0  0  0  0  0999 V2000     
   19.9960   19.2115   18.9972 C   0  0  0  0  0  0  0  0  0  0  0  0
   20.9106   18.6075   18.9342 H   0  0  0  0  0  0  0  0  0  0  0  0
   19.2791   18.8150   18.2666 H   0  0  0  0  0  0  0  0  0  0  0  0
   20.2439   20.2395   18.7022 H   0  0  0  0  0  0  0  0  0  0  0  0
   19.4019   19.1704   20.4211 C   0  0  0  0  0  0  0  0  0  0  0  0
   19.1294   18.1346   20.6624 H   0  0  0  0  0  0  0  0  0  0  0  0
   18.4740   19.7587   20.4455 H   0  0  0  0  0  0  0  0  0  0  0  0
   20.3973   19.7209   21.4696 C   0  0  0  0  0  0  0  0  0  0  0  0
   21.3026   19.0984   21.4843 H   0  0  0  0  0  0  0  0  0  0  0  0
   20.7193   20.7250   21.1608 H   0  0  0  0  0  0  0  0  0  0  0  0
   19.8081   19.8145   22.8985 C   0  0  0  0  0  0  0  0  0  0  0  0
   18.9034   20.4378   22.8828 H   0  0  0  0  0  0  0  0  0  0  0  0
   20.5355   20.3409   23.5302 H   0  0  0  0  0  0  0  0  0  0  0  0
   19.4827   18.4347   23.5251 C   0  0  0  0  0  0  0  0  0  0  0  0
   18.7403   17.9156   22.9056 H   0  0  0  0  0  0  0  0  0  0  0  0
   20.3792   17.8010   23.5172 H   0  0  0  0  0  0  0  0  0  0  0  0
   18.9143   18.5360   24.9644 C   0  0  0  0  0  0  0  0  0  0  0  0
   18.6827   17.5259   25.3274 H   0  0  0  0  0  0  0  0  0  0  0  0
   17.9561   19.0705   24.9214 H   0  0  0  0  0  0  0  0  0  0  0  0
   19.8317   19.2458   25.9882 C   0  0  2  0  0  0  0  0  0  0  0  0
   20.0440   20.2544   25.6220 H   0  0  0  0  0  0  0  0  0  0  0  0
   21.1674   18.5057   26.1794 C   0  0  0  0  0  0  0  0  0  0  0  0
   21.0042   17.4670   26.4926 H   0  0  0  0  0  0  0  0  0  0  0  0
   21.7535   18.4977   25.2531 H   0  0  0  0  0  0  0  0  0  0  0  0
   21.7774   19.0005   26.9452 H   0  0  0  0  0  0  0  0  0  0  0  0
   19.1366   19.4165   27.3103 N   0  3  0  0  0  0  0  0  0  0  0  0
   18.2644   19.9443   27.2125 H   0  0  0  0  0  0  0  0  0  0  0  0
   19.7247   19.9212   27.9797 H   0  0  0  0  0  0  0  0  0  0  0  0
   18.9036   18.5123   27.7297 H   0  0  0  0  0  0  0  0  0  0  0  0
  1  2  1  0  0  0  0
  1  3  1  0  0  0  0
  1  4  1  0  0  0  0
  1  5  1  0  0  0  0
  5  6  1  0  0  0  0
  5  7  1  0  0  0  0
  5  8  1  0  0  0  0
  8  9  1  0  0  0  0
  8 10  1  0  0  0  0
  8 11  1  0  0  0  0
 11 12  1  0  0  0  0
 11 13  1  0  0  0  0
 11 14  1  0  0  0  0
 14 15  1  0  0  0  0
 14 16  1  0  0  0  0
 14 17  1  0  0  0  0
 17 18  1  0  0  0  0
 17 19  1  0  0  0  0
 17 20  1  0  0  0  0
 20 21  1  0  0  0  0
 20 22  1  0  0  0  0
 22 23  1  0  0  0  0
 22 24  1  0  0  0  0
 22 25  1  0  0  0  0
 20 26  1  0  0  0  0
 26 27  1  0  0  0  0
 26 28  1  0  0  0  0
 26 29  1  0  0  0  0
M  END
> <VM2 Rank>
41

> <Conf_Id>
344

> <Probability>
0.67

> <Sum Probability>
85.47

> <Delta G>
1.638

> <G>
35.340

> <E>
-2.400

> <-TS>
37.740

> <U+W>
-26.544

> <U>
25.622

> <W>
-52.166

> <W(PB)>
-54.631

> <W(SA)>
2.464

> <Valence>
4.553

> <Coulomb>
19.890

> <VdW>
1.179

> <VdW6>
-9.672

> <VdW12>
10.851

> <Bond>
0.276

> <Angle>
1.749

> <Pdih>
2.528

> <Idih>
0.000

> <Tether>
0.000

$$$$
VeraChem MOL file


 29 28  0  0  0  0  0  0  0  0999 V2000     
   19.2424   20.1833   19.6294 C   0  0  0  0  0  0  0  0  0  0  0  0
   18.3229   20.5842   20.0752 H   0  0  0  0  0  0  0  0  0  0  0  0
   20.0772   20.8333   19.9194 H   0  0  0  0  0  0  0  0  0  0  0  0
   19.1406   20.2436   18.5381 H   0  0  0  0  0  0  0  0  0  0  0  0
   19.4821   18.7217   20.0703 C   0  0  0  0  0  0  0  0  0  0  0  0
   20.4203   18.3528   19.6328 H   0  0  0  0  0  0  0  0  0  0  0  0
   18.6818   18.0911   19.6584 H   0  0  0  0  0  0  0  0  0  0  0  0
   19.5149   18.5425   21.6072 C   0  0  0  0  0  0  0  0  0  0  0  0
   18.5615   18.8870   22.0289 H   0  0  0  0  0  0  0  0  0  0  0  0
   19.5855   17.4695   21.8323 H   0  0  0  0  0  0  0  0  0  0  0  0
   20.6956   19.2816   22.2858 C   0  0  0  0  0  0  0  0  0  0  0  0
   20.5762   20.3671   22.1713 H   0  0  0  0  0  0  0  0  0  0  0  0
   21.6288   19.0161   21.7703 H   0  0  0  0  0  0  0  0  0  0  0  0
   20.8497   18.9421   23.7886 C   0  0  0  0  0  0  0  0  0  0  0  0
   21.0097   17.8612   23.8970 H   0  0  0  0  0  0  0  0  0  0  0  0
   21.7588   19.4308   24.1655 H   0  0  0  0  0  0  0  0  0  0  0  0
   19.6399   19.3933   24.6469 C   0  0  0  0  0  0  0  0  0  0  0  0
   18.7478   18.8157   24.3737 H   0  0  0  0  0  0  0  0  0  0  0  0
   19.4174   20.4429   24.4137 H   0  0  0  0  0  0  0  0  0  0  0  0
   19.8811   19.2699   26.1685 C   0  0  2  0  0  0  0  0  0  0  0  0
   20.7931   19.8212   26.4173 H   0  0  0  0  0  0  0  0  0  0  0  0
   20.0609   17.8062   26.6091 C   0  0  0  0  0  0  0  0  0  0  0  0
   19.1929   17.1973   26.3269 H   0  0  0  0  0  0  0  0  0  0  0  0
   20.9548   17.3609   26.1571 H   0  0  0  0  0  0  0  0  0  0  0  0
   20.1818   17.7424   27.6975 H   0  0  0  0  0  0  0  0  0  0  0  0
   18.7694   19.9154   26.9482 N   0  3  0  0  0  0  0  0  0  0  0  0
   17.8728   19.4535   26.7736 H   0  0  0  0  0  0  0  0  0  0  0  0
   18.6602   20.9034   26.7017 H   0  0  0  0  0  0  0  0  0  0  0  0
   18.9449   19.8708   27.9562 H   0  0  0  0  0  0  0  0  0  0  0  0
  1  2  1  0  0  0  0
  1  3  1  0  0  0  0
  1  4  1  0  0  0  0
  1  5  1  0  0  0  0
  5  6  1  0  0  0  0
  5  7  1  0  0  0  0
  5  8  1  0  0  0  0
  8  9  1  0  0  0  0
  8 10  1  0  0  0  0
  8 11  1  0  0  0  0
 11 12  1  0  0  0  0
 11 13  1  0  0  0  0
 11 14  1  0  0  0  0
 14 15  1  0  0  0  0
 14 16  1  0  0  0  0
 14 17  1  0  0  0  0
 17 18  1  0  0  0  0
 17 19  1  0  0  0  0
 17 20  1  0  0  0  0
 20 21  1  0  0  0  0
 20 22  1  0  0  0  0
 22 23  1  0  0  0  0
 22 24  1  0  0  0  0
 22 25  1  0  0  0  0
 20 26  1  0  0  0  0
 26 27  1  0  0  0  0
 26 28  1  0  0  0  0
 26 29  1  0  0  0  0
M  END
> <VM2 Rank>
42

> <Conf_Id>
671

> <Probability>
0.66

> <Sum Probability>
86.13

> <Delta G>
1.640

> <G>
35.342

> <E>
-2.323

> <-TS>
37.665

> <U+W>
-26.468

> <U>
25.687

> <W>
-52.155

> <W(PB)>
-54.644

> <W(SA)>
2.489

> <Valence>
4.682

> <Coulomb>
19.653

> <VdW>
1.352

> <VdW6>
-9.478

> <VdW12>
10.830

> <Bond>
0.274

> <Angle>
1.549

> <Pdih>
2.858

> <Idih>
0.000

> <Tether>
0.000

$$$$
VeraChem MOL file


 29 28  0  0  0  0  0  0  0  0999 V2000     
   21.0026   18.9265   19.7855 C   0  0  0  0  0  0  0  0  0  0  0  0
   21.7881   19.6321   20.0860 H   0  0  0  0  0  0  0  0  0  0  0  0
   21.4902   18.0037   19.4453 H   0  0  0  0  0  0  0  0  0  0  0  0
   20.4641   19.3575   18.9314 H   0  0  0  0  0  0  0  0  0  0  0  0
   20.0419   18.6349   20.9576 C   0  0  0  0  0  0  0  0  0  0  0  0
   20.6087   18.1694   21.7749 H   0  0  0  0  0  0  0  0  0  0  0  0
   19.2859   17.9047   20.6368 H   0  0  0  0  0  0  0  0  0  0  0  0
   19.3452   19.9222   21.4575 C   0  0  0  0  0  0  0  0  0  0  0  0
   20.0979   20.6362   21.8168 H   0  0  0  0  0  0  0  0  0  0  0  0
   18.8485   20.4115   20.6083 H   0  0  0  0  0  0  0  0  0  0  0  0
   18.2851   19.6675   22.5603 C   0  0  0  0  0  0  0  0  0  0  0  0
   17.4746   19.0567   22.1392 H   0  0  0  0  0  0  0  0  0  0  0  0
   17.8254   20.6267   22.8355 H   0  0  0  0  0  0  0  0  0  0  0  0
   18.8130   18.9761   23.8439 C   0  0  0  0  0  0  0  0  0  0  0  0
   17.9674   18.8487   24.5322 H   0  0  0  0  0  0  0  0  0  0  0  0
   19.1585   17.9641   23.5982 H   0  0  0  0  0  0  0  0  0  0  0  0
   19.9426   19.7728   24.5518 C   0  0  0  0  0  0  0  0  0  0  0  0
   19.6090   20.8063   24.7125 H   0  0  0  0  0  0  0  0  0  0  0  0
   20.8185   19.8350   23.8940 H   0  0  0  0  0  0  0  0  0  0  0  0
   20.3980   19.1869   25.9089 C   0  0  2  0  0  0  0  0  0  0  0  0
   21.1769   19.8470   26.3029 H   0  0  0  0  0  0  0  0  0  0  0  0
   21.0107   17.7839   25.7552 C   0  0  0  0  0  0  0  0  0  0  0  0
   20.2597   17.0445   25.4525 H   0  0  0  0  0  0  0  0  0  0  0  0
   21.8114   17.7882   25.0052 H   0  0  0  0  0  0  0  0  0  0  0  0
   21.4461   17.4495   26.7048 H   0  0  0  0  0  0  0  0  0  0  0  0
   19.2970   19.1851   26.9334 N   0  3  0  0  0  0  0  0  0  0  0  0
   19.6324   18.8533   27.8423 H   0  0  0  0  0  0  0  0  0  0  0  0
   18.5264   18.5755   26.6491 H   0  0  0  0  0  0  0  0  0  0  0  0
   18.9127   20.1240   27.0729 H   0  0  0  0  0  0  0  0  0  0  0  0
  1  2  1  0  0  0  0
  1  3  1  0  0  0  0
  1  4  1  0  0  0  0
  1  5  1  0  0  0  0
  5  6  1  0  0  0  0
  5  7  1  0  0  0  0
  5  8  1  0  0  0  0
  8  9  1  0  0  0  0
  8 10  1  0  0  0  0
  8 11  1  0  0  0  0
 11 12  1  0  0  0  0
 11 13  1  0  0  0  0
 11 14  1  0  0  0  0
 14 15  1  0  0  0  0
 14 16  1  0  0  0  0
 14 17  1  0  0  0  0
 17 18  1  0  0  0  0
 17 19  1  0  0  0  0
 17 20  1  0  0  0  0
 20 21  1  0  0  0  0
 20 22  1  0  0  0  0
 22 23  1  0  0  0  0
 22 24  1  0  0  0  0
 22 25  1  0  0  0  0
 20 26  1  0  0  0  0
 26 27  1  0  0  0  0
 26 28  1  0  0  0  0
 26 29  1  0  0  0  0
M  END
> <VM2 Rank>
43

> <Conf_Id>
1245

> <Probability>
0.62

> <Sum Probability>
86.75

> <Delta G>
1.684

> <G>
35.387

> <E>
-2.615

> <-TS>
38.002

> <U+W>
-26.759

> <U>
25.698

> <W>
-52.458

> <W(PB)>
-54.885

> <W(SA)>
2.427

> <Valence>
4.638

> <Coulomb>
19.916

> <VdW>
1.144

> <VdW6>
-10.434

> <VdW12>
11.578

> <Bond>
0.315

> <Angle>
1.852

> <Pdih>
2.471

> <Idih>
0.000

> <Tether>
0.000

$$$$
VeraChem MOL file


 29 28  0  0  0  0  0  0  0  0999 V2000     
   19.6749   20.5816   20.1551 C   0  0  0  0  0  0  0  0  0  0  0  0
   19.2475   20.9924   21.0783 H   0  0  0  0  0  0  0  0  0  0  0  0
   20.2664   21.3764   19.6825 H   0  0  0  0  0  0  0  0  0  0  0  0
   18.8501   20.3275   19.4769 H   0  0  0  0  0  0  0  0  0  0  0  0
   20.5585   19.3466   20.4416 C   0  0  0  0  0  0  0  0  0  0  0  0
   21.3634   19.6199   21.1369 H   0  0  0  0  0  0  0  0  0  0  0  0
   21.0566   19.0445   19.5098 H   0  0  0  0  0  0  0  0  0  0  0  0
   19.7641   18.1345   20.9911 C   0  0  0  0  0  0  0  0  0  0  0  0
   19.0484   17.8032   20.2261 H   0  0  0  0  0  0  0  0  0  0  0  0
   20.4570   17.2946   21.1378 H   0  0  0  0  0  0  0  0  0  0  0  0
   18.9952   18.3902   22.3131 C   0  0  0  0  0  0  0  0  0  0  0  0
   18.4641   17.4683   22.5873 H   0  0  0  0  0  0  0  0  0  0  0  0
   18.2185   19.1497   22.1528 H   0  0  0  0  0  0  0  0  0  0  0  0
   19.9089   18.8134   23.4881 C   0  0  0  0  0  0  0  0  0  0  0  0
   20.7114   18.0729   23.6008 H   0  0  0  0  0  0  0  0  0  0  0  0
   20.3871   19.7753   23.2610 H   0  0  0  0  0  0  0  0  0  0  0  0
   19.1152   18.9433   24.8112 C   0  0  0  0  0  0  0  0  0  0  0  0
   18.6922   17.9681   25.0870 H   0  0  0  0  0  0  0  0  0  0  0  0
   18.2636   19.6157   24.6427 H   0  0  0  0  0  0  0  0  0  0  0  0
   19.9512   19.4984   25.9869 C   0  0  2  0  0  0  0  0  0  0  0  0
   20.3934   20.4495   25.6746 H   0  0  0  0  0  0  0  0  0  0  0  0
   21.0875   18.5430   26.3934 C   0  0  0  0  0  0  0  0  0  0  0  0
   21.8168   18.4232   25.5840 H   0  0  0  0  0  0  0  0  0  0  0  0
   21.6298   18.9355   27.2624 H   0  0  0  0  0  0  0  0  0  0  0  0
   20.6975   17.5514   26.6552 H   0  0  0  0  0  0  0  0  0  0  0  0
   19.0805   19.8050   27.1735 N   0  3  0  0  0  0  0  0  0  0  0  0
   18.6269   18.9606   27.5326 H   0  0  0  0  0  0  0  0  0  0  0  0
   18.3422   20.4741   26.9367 H   0  0  0  0  0  0  0  0  0  0  0  0
   19.6237   20.2101   27.9413 H   0  0  0  0  0  0  0  0  0  0  0  0
  1  2  1  0  0  0  0
  1  3  1  0  0  0  0
  1  4  1  0  0  0  0
  1  5  1  0  0  0  0
  5  6  1  0  0  0  0
  5  7  1  0  0  0  0
  5  8  1  0  0  0  0
  8  9  1  0  0  0  0
  8 10  1  0  0  0  0
  8 11  1  0  0  0  0
 11 12  1  0  0  0  0
 11 13  1  0  0  0  0
 11 14  1  0  0  0  0
 14 15  1  0  0  0  0
 14 16  1  0  0  0  0
 14 17  1  0  0  0  0
 17 18  1  0  0  0  0
 17 19  1  0  0  0  0
 17 20  1  0  0  0  0
 20 21  1  0  0  0  0
 20 22  1  0  0  0  0
 22 23  1  0  0  0  0
 22 24  1  0  0  0  0
 22 25  1  0  0  0  0
 20 26  1  0  0  0  0
 26 27  1  0  0  0  0
 26 28  1  0  0  0  0
 26 29  1  0  0  0  0
M  END
> <VM2 Rank>
44

> <Conf_Id>
1043

> <Probability>
0.60

> <Sum Probability>
87.35

> <Delta G>
1.700

> <G>
35.402

> <E>
-2.432

> <-TS>
37.834

> <U+W>
-26.577

> <U>
25.529

> <W>
-52.106

> <W(PB)>
-54.578

> <W(SA)>
2.473

> <Valence>
4.665

> <Coulomb>
19.602

> <VdW>
1.262

> <VdW6>
-9.717

> <VdW12>
10.979

> <Bond>
0.278

> <Angle>
1.798

> <Pdih>
2.589

> <Idih>
0.000

> <Tether>
0.000

$$$$
VeraChem MOL file


 29 28  0  0  0  0  0  0  0  0999 V2000     
   20.4024   20.7304   20.6112 C   0  0  0  0  0  0  0  0  0  0  0  0
   19.5654   21.2553   21.0880 H   0  0  0  0  0  0  0  0  0  0  0  0
   21.2983   20.8788   21.2279 H   0  0  0  0  0  0  0  0  0  0  0  0
   20.5809   21.2084   19.6393 H   0  0  0  0  0  0  0  0  0  0  0  0
   20.0979   19.2265   20.4262 C   0  0  0  0  0  0  0  0  0  0  0  0
   20.9083   18.7704   19.8406 H   0  0  0  0  0  0  0  0  0  0  0  0
   19.1822   19.1049   19.8310 H   0  0  0  0  0  0  0  0  0  0  0  0
   19.9596   18.4606   21.7636 C   0  0  0  0  0  0  0  0  0  0  0  0
   19.8550   17.3891   21.5444 H   0  0  0  0  0  0  0  0  0  0  0  0
   20.8892   18.5717   22.3372 H   0  0  0  0  0  0  0  0  0  0  0  0
   18.7494   18.9234   22.6131 C   0  0  0  0  0  0  0  0  0  0  0  0
   17.8454   18.9015   21.9891 H   0  0  0  0  0  0  0  0  0  0  0  0
   18.8820   19.9688   22.9186 H   0  0  0  0  0  0  0  0  0  0  0  0
   18.5027   18.0412   23.8641 C   0  0  0  0  0  0  0  0  0  0  0  0
   17.6089   18.4075   24.3867 H   0  0  0  0  0  0  0  0  0  0  0  0
   18.2579   17.0204   23.5396 H   0  0  0  0  0  0  0  0  0  0  0  0
   19.6917   17.9760   24.8596 C   0  0  0  0  0  0  0  0  0  0  0  0
   20.5237   17.4348   24.3911 H   0  0  0  0  0  0  0  0  0  0  0  0
   19.3958   17.3756   25.7300 H   0  0  0  0  0  0  0  0  0  0  0  0
   20.1908   19.3576   25.3371 C   0  0  2  0  0  0  0  0  0  0  0  0
   20.4826   19.9404   24.4583 H   0  0  0  0  0  0  0  0  0  0  0  0
   21.4250   19.1994   26.2389 C   0  0  0  0  0  0  0  0  0  0  0  0
   21.1862   18.6226   27.1412 H   0  0  0  0  0  0  0  0  0  0  0  0
   22.2327   18.6822   25.7063 H   0  0  0  0  0  0  0  0  0  0  0  0
   21.8061   20.1797   26.5506 H   0  0  0  0  0  0  0  0  0  0  0  0
   19.1165   20.1407   26.0403 N   0  3  0  0  0  0  0  0  0  0  0  0
   18.3017   20.2773   25.4361 H   0  0  0  0  0  0  0  0  0  0  0  0
   19.4508   21.0665   26.3225 H   0  0  0  0  0  0  0  0  0  0  0  0
   18.7971   19.6588   26.8848 H   0  0  0  0  0  0  0  0  0  0  0  0
  1  2  1  0  0  0  0
  1  3  1  0  0  0  0
  1  4  1  0  0  0  0
  1  5  1  0  0  0  0
  5  6  1  0  0  0  0
  5  7  1  0  0  0  0
  5  8  1  0  0  0  0
  8  9  1  0  0  0  0
  8 10  1  0  0  0  0
  8 11  1  0  0  0  0
 11 12  1  0  0  0  0
 11 13  1  0  0  0  0
 11 14  1  0  0  0  0
 14 15  1  0  0  0  0
 14 16  1  0  0  0  0
 14 17  1  0  0  0  0
 17 18  1  0  0  0  0
 17 19  1  0  0  0  0
 17 20  1  0  0  0  0
 20 21  1  0  0  0  0
 20 22  1  0  0  0  0
 22 23  1  0  0  0  0
 22 24  1  0  0  0  0
 22 25  1  0  0  0  0
 20 26  1  0  0  0  0
 26 27  1  0  0  0  0
 26 28  1  0  0  0  0
 26 29  1  0  0  0  0
M  END
> <VM2 Rank>
45

> <Conf_Id>
108

> <Probability>
0.60

> <Sum Probability>
87.95

> <Delta G>
1.704

> <G>
35.406

> <E>
-2.579

> <-TS>
37.985

> <U+W>
-26.723

> <U>
25.699

> <W>
-52.422

> <W(PB)>
-54.852

> <W(SA)>
2.430

> <Valence>
4.391

> <Coulomb>
20.476

> <VdW>
0.832

> <VdW6>
-10.723

> <VdW12>
11.555

> <Bond>
0.298

> <Angle>
1.586

> <Pdih>
2.506

> <Idih>
0.000

> <Tether>
0.000

$$$$
VeraChem MOL file


 29 28  0  0  0  0  0  0  0  0999 V2000     
   19.9253   17.9844   20.1819 C   0  0  0  0  0  0  0  0  0  0  0  0
   19.4079   17.1430   19.7033 H   0  0  0  0  0  0  0  0  0  0  0  0
   20.6333   18.4019   19.4543 H   0  0  0  0  0  0  0  0  0  0  0  0
   20.4973   17.5826   21.0275 H   0  0  0  0  0  0  0  0  0  0  0  0
   18.9090   19.0531   20.6435 C   0  0  0  0  0  0  0  0  0  0  0  0
   18.2251   18.6187   21.3848 H   0  0  0  0  0  0  0  0  0  0  0  0
   18.2816   19.3376   19.7872 H   0  0  0  0  0  0  0  0  0  0  0  0
   19.5747   20.3319   21.2128 C   0  0  0  0  0  0  0  0  0  0  0  0
   20.1516   20.8170   20.4134 H   0  0  0  0  0  0  0  0  0  0  0  0
   18.7878   21.0463   21.4911 H   0  0  0  0  0  0  0  0  0  0  0  0
   20.5067   20.1085   22.4318 C   0  0  0  0  0  0  0  0  0  0  0  0
   20.9257   21.0801   22.7276 H   0  0  0  0  0  0  0  0  0  0  0  0
   21.3633   19.4872   22.1388 H   0  0  0  0  0  0  0  0  0  0  0  0
   19.7921   19.4752   23.6494 C   0  0  0  0  0  0  0  0  0  0  0  0
   18.9109   20.0785   23.9038 H   0  0  0  0  0  0  0  0  0  0  0  0
   19.4315   18.4752   23.3791 H   0  0  0  0  0  0  0  0  0  0  0  0
   20.7374   19.3729   24.8747 C   0  0  0  0  0  0  0  0  0  0  0  0
   21.1275   20.3709   25.1138 H   0  0  0  0  0  0  0  0  0  0  0  0
   21.6108   18.7629   24.6087 H   0  0  0  0  0  0  0  0  0  0  0  0
   20.0895   18.7839   26.1500 C   0  0  2  0  0  0  0  0  0  0  0  0
   20.8495   18.7995   26.9374 H   0  0  0  0  0  0  0  0  0  0  0  0
   19.6521   17.3216   25.9552 C   0  0  0  0  0  0  0  0  0  0  0  0
   20.4841   16.7123   25.5809 H   0  0  0  0  0  0  0  0  0  0  0  0
   19.3260   16.8890   26.9090 H   0  0  0  0  0  0  0  0  0  0  0  0
   18.8187   17.2379   25.2477 H   0  0  0  0  0  0  0  0  0  0  0  0
   18.9492   19.6245   26.6547 N   0  3  0  0  0  0  0  0  0  0  0  0
   18.1823   19.6537   25.9783 H   0  0  0  0  0  0  0  0  0  0  0  0
   19.2434   20.5895   26.8300 H   0  0  0  0  0  0  0  0  0  0  0  0
   18.5719   19.2550   27.5321 H   0  0  0  0  0  0  0  0  0  0  0  0
  1  2  1  0  0  0  0
  1  3  1  0  0  0  0
  1  4  1  0  0  0  0
  1  5  1  0  0  0  0
  5  6  1  0  0  0  0
  5  7  1  0  0  0  0
  5  8  1  0  0  0  0
  8  9  1  0  0  0  0
  8 10  1  0  0  0  0
  8 11  1  0  0  0  0
 11 12  1  0  0  0  0
 11 13  1  0  0  0  0
 11 14  1  0  0  0  0
 14 15  1  0  0  0  0
 14 16  1  0  0  0  0
 14 17  1  0  0  0  0
 17 18  1  0  0  0  0
 17 19  1  0  0  0  0
 17 20  1  0  0  0  0
 20 21  1  0  0  0  0
 20 22  1  0  0  0  0
 22 23  1  0  0  0  0
 22 24  1  0  0  0  0
 22 25  1  0  0  0  0
 20 26  1  0  0  0  0
 26 27  1  0  0  0  0
 26 28  1  0  0  0  0
 26 29  1  0  0  0  0
M  END
> <VM2 Rank>
46

> <Conf_Id>
1318

> <Probability>
0.58

> <Sum Probability>
88.53

> <Delta G>
1.718

> <G>
35.420

> <E>
-2.552

> <-TS>
37.972

> <U+W>
-26.696

> <U>
25.727

> <W>
-52.424

> <W(PB)>
-54.885

> <W(SA)>
2.461

> <Valence>
4.631

> <Coulomb>
19.868

> <VdW>
1.228

> <VdW6>
-10.252

> <VdW12>
11.480

> <Bond>
0.304

> <Angle>
1.851

> <Pdih>
2.476

> <Idih>
0.000

> <Tether>
0.000

$$$$
VeraChem MOL file


 29 28  0  0  0  0  0  0  0  0999 V2000     
   19.4432   17.9369   20.1469 C   0  0  0  0  0  0  0  0  0  0  0  0
   18.9719   17.5673   21.0661 H   0  0  0  0  0  0  0  0  0  0  0  0
   18.6579   18.3432   19.4964 H   0  0  0  0  0  0  0  0  0  0  0  0
   19.8912   17.0752   19.6355 H   0  0  0  0  0  0  0  0  0  0  0  0
   20.5182   19.0043   20.4522 C   0  0  0  0  0  0  0  0  0  0  0  0
   21.0420   19.2554   19.5194 H   0  0  0  0  0  0  0  0  0  0  0  0
   21.2810   18.5818   21.1197 H   0  0  0  0  0  0  0  0  0  0  0  0
   19.9382   20.3079   21.0578 C   0  0  0  0  0  0  0  0  0  0  0  0
   20.7601   21.0189   21.2194 H   0  0  0  0  0  0  0  0  0  0  0  0
   19.2755   20.7779   20.3182 H   0  0  0  0  0  0  0  0  0  0  0  0
   19.1555   20.1327   22.3849 C   0  0  0  0  0  0  0  0  0  0  0  0
   18.2643   19.5141   22.2149 H   0  0  0  0  0  0  0  0  0  0  0  0
   18.7837   21.1181   22.6976 H   0  0  0  0  0  0  0  0  0  0  0  0
   20.0036   19.5262   23.5285 C   0  0  0  0  0  0  0  0  0  0  0  0
   20.3230   18.5155   23.2465 H   0  0  0  0  0  0  0  0  0  0  0  0
   20.9139   20.1255   23.6674 H   0  0  0  0  0  0  0  0  0  0  0  0
   19.2133   19.4696   24.8589 C   0  0  0  0  0  0  0  0  0  0  0  0
   18.3341   18.8226   24.7397 H   0  0  0  0  0  0  0  0  0  0  0  0
   18.8321   20.4748   25.0823 H   0  0  0  0  0  0  0  0  0  0  0  0
   20.0544   18.9879   26.0630 C   0  0  2  0  0  0  0  0  0  0  0  0
   20.9451   19.6196   26.1344 H   0  0  0  0  0  0  0  0  0  0  0  0
   20.5057   17.5244   25.9083 C   0  0  0  0  0  0  0  0  0  0  0  0
   19.6465   16.8569   25.7670 H   0  0  0  0  0  0  0  0  0  0  0  0
   21.1803   17.4029   25.0530 H   0  0  0  0  0  0  0  0  0  0  0  0
   21.0512   17.1922   26.8002 H   0  0  0  0  0  0  0  0  0  0  0  0
   19.3038   19.1661   27.3535 N   0  3  0  0  0  0  0  0  0  0  0  0
   19.0309   20.1424   27.4992 H   0  0  0  0  0  0  0  0  0  0  0  0
   19.8717   18.8854   28.1582 H   0  0  0  0  0  0  0  0  0  0  0  0
   18.4499   18.6020   27.3705 H   0  0  0  0  0  0  0  0  0  0  0  0
  1  2  1  0  0  0  0
  1  3  1  0  0  0  0
  1  4  1  0  0  0  0
  1  5  1  0  0  0  0
  5  6  1  0  0  0  0
  5  7  1  0  0  0  0
  5  8  1  0  0  0  0
  8  9  1  0  0  0  0
  8 10  1  0  0  0  0
  8 11  1  0  0  0  0
 11 12  1  0  0  0  0
 11 13  1  0  0  0  0
 11 14  1  0  0  0  0
 14 15  1  0  0  0  0
 14 16  1  0  0  0  0
 14 17  1  0  0  0  0
 17 18  1  0  0  0  0
 17 19  1  0  0  0  0
 17 20  1  0  0  0  0
 20 21  1  0  0  0  0
 20 22  1  0  0  0  0
 22 23  1  0  0  0  0
 22 24  1  0  0  0  0
 22 25  1  0  0  0  0
 20 26  1  0  0  0  0
 26 27  1  0  0  0  0
 26 28  1  0  0  0  0
 26 29  1  0  0  0  0
M  END
> <VM2 Rank>
47

> <Conf_Id>
1600

> <Probability>
0.56

> <Sum Probability>
89.09

> <Delta G>
1.738

> <G>
35.440

> <E>
-2.396

> <-TS>
37.836

> <U+W>
-26.541

> <U>
25.494

> <W>
-52.034

> <W(PB)>
-54.507

> <W(SA)>
2.472

> <Valence>
4.663

> <Coulomb>
19.570

> <VdW>
1.262

> <VdW6>
-9.758

> <VdW12>
11.019

> <Bond>
0.281

> <Angle>
1.806

> <Pdih>
2.576

> <Idih>
0.000

> <Tether>
0.000

$$$$
VeraChem MOL file


 29 28  0  0  0  0  0  0  0  0999 V2000     
   19.7368   20.2428   19.5956 C   0  0  0  0  0  0  0  0  0  0  0  0
   18.7768   20.6003   19.9880 H   0  0  0  0  0  0  0  0  0  0  0  0
   20.5231   20.9330   19.9276 H   0  0  0  0  0  0  0  0  0  0  0  0
   19.6856   20.2938   18.5003 H   0  0  0  0  0  0  0  0  0  0  0  0
   20.0349   18.7981   20.0565 C   0  0  0  0  0  0  0  0  0  0  0  0
   20.9422   18.4435   19.5477 H   0  0  0  0  0  0  0  0  0  0  0  0
   19.2219   18.1324   19.7347 H   0  0  0  0  0  0  0  0  0  0  0  0
   20.2408   18.6725   21.5852 C   0  0  0  0  0  0  0  0  0  0  0  0
   20.5460   17.6420   21.8130 H   0  0  0  0  0  0  0  0  0  0  0  0
   21.0748   19.3188   21.8884 H   0  0  0  0  0  0  0  0  0  0  0  0
   18.9723   19.0189   22.4051 C   0  0  0  0  0  0  0  0  0  0  0  0
   18.1205   18.4544   22.0017 H   0  0  0  0  0  0  0  0  0  0  0  0
   18.7246   20.0818   22.2847 H   0  0  0  0  0  0  0  0  0  0  0  0
   19.1062   18.6949   23.9133 C   0  0  0  0  0  0  0  0  0  0  0  0
   18.1314   18.8678   24.3877 H   0  0  0  0  0  0  0  0  0  0  0  0
   19.3242   17.6253   24.0323 H   0  0  0  0  0  0  0  0  0  0  0  0
   20.1912   19.5449   24.6292 C   0  0  0  0  0  0  0  0  0  0  0  0
   20.0192   20.6073   24.4124 H   0  0  0  0  0  0  0  0  0  0  0  0
   21.1792   19.3066   24.2159 H   0  0  0  0  0  0  0  0  0  0  0  0
   20.2513   19.3615   26.1640 C   0  0  2  0  0  0  0  0  0  0  0  0
   21.0417   20.0188   26.5393 H   0  0  0  0  0  0  0  0  0  0  0  0
   20.6172   17.9203   26.5594 C   0  0  0  0  0  0  0  0  0  0  0  0
   20.7833   17.8498   27.6413 H   0  0  0  0  0  0  0  0  0  0  0  0
   19.8215   17.2134   26.2959 H   0  0  0  0  0  0  0  0  0  0  0  0
   21.5403   17.6014   26.0596 H   0  0  0  0  0  0  0  0  0  0  0  0
   18.9853   19.8022   26.8459 N   0  3  0  0  0  0  0  0  0  0  0  0
   18.7575   20.7751   26.6219 H   0  0  0  0  0  0  0  0  0  0  0  0
   19.0656   19.7331   27.8645 H   0  0  0  0  0  0  0  0  0  0  0  0
   18.1899   19.2256   26.5608 H   0  0  0  0  0  0  0  0  0  0  0  0
  1  2  1  0  0  0  0
  1  3  1  0  0  0  0
  1  4  1  0  0  0  0
  1  5  1  0  0  0  0
  5  6  1  0  0  0  0
  5  7  1  0  0  0  0
  5  8  1  0  0  0  0
  8  9  1  0  0  0  0
  8 10  1  0  0  0  0
  8 11  1  0  0  0  0
 11 12  1  0  0  0  0
 11 13  1  0  0  0  0
 11 14  1  0  0  0  0
 14 15  1  0  0  0  0
 14 16  1  0  0  0  0
 14 17  1  0  0  0  0
 17 18  1  0  0  0  0
 17 19  1  0  0  0  0
 17 20  1  0  0  0  0
 20 21  1  0  0  0  0
 20 22  1  0  0  0  0
 22 23  1  0  0  0  0
 22 24  1  0  0  0  0
 22 25  1  0  0  0  0
 20 26  1  0  0  0  0
 26 27  1  0  0  0  0
 26 28  1  0  0  0  0
 26 29  1  0  0  0  0
M  END
> <VM2 Rank>
48

> <Conf_Id>
1363

> <Probability>
0.56

> <Sum Probability>
89.65

> <Delta G>
1.746

> <G>
35.448

> <E>
-2.331

> <-TS>
37.779

> <U+W>
-26.476

> <U>
25.725

> <W>
-52.201

> <W(PB)>
-54.669

> <W(SA)>
2.468

> <Valence>
4.677

> <Coulomb>
19.669

> <VdW>
1.379

> <VdW6>
-9.934

> <VdW12>
11.313

> <Bond>
0.305

> <Angle>
1.629

> <Pdih>
2.742

> <Idih>
0.000

> <Tether>
0.000

$$$$
VeraChem MOL file


 29 28  0  0  0  0  0  0  0  0999 V2000     
   18.7253   18.9696   19.5906 C   0  0  0  0  0  0  0  0  0  0  0  0
   18.6259   19.0113   18.4983 H   0  0  0  0  0  0  0  0  0  0  0  0
   18.8291   17.9144   19.8726 H   0  0  0  0  0  0  0  0  0  0  0  0
   17.7940   19.3527   20.0277 H   0  0  0  0  0  0  0  0  0  0  0  0
   19.9410   19.8028   20.0555 C   0  0  0  0  0  0  0  0  0  0  0  0
   19.8484   20.8210   19.6522 H   0  0  0  0  0  0  0  0  0  0  0  0
   20.8618   19.3845   19.6255 H   0  0  0  0  0  0  0  0  0  0  0  0
   20.0733   19.8877   21.5951 C   0  0  0  0  0  0  0  0  0  0  0  0
   20.8958   20.5745   21.8375 H   0  0  0  0  0  0  0  0  0  0  0  0
   19.1603   20.3366   22.0075 H   0  0  0  0  0  0  0  0  0  0  0  0
   20.3439   18.5158   22.2632 C   0  0  0  0  0  0  0  0  0  0  0  0
   21.1781   18.0251   21.7431 H   0  0  0  0  0  0  0  0  0  0  0  0
   19.4730   17.8583   22.1405 H   0  0  0  0  0  0  0  0  0  0  0  0
   20.6975   18.6171   23.7676 C   0  0  0  0  0  0  0  0  0  0  0  0
   21.0031   17.6197   24.1084 H   0  0  0  0  0  0  0  0  0  0  0  0
   21.5717   19.2701   23.8969 H   0  0  0  0  0  0  0  0  0  0  0  0
   19.5260   19.1307   24.6446 C   0  0  0  0  0  0  0  0  0  0  0  0
   18.6564   18.4711   24.5249 H   0  0  0  0  0  0  0  0  0  0  0  0
   19.2185   20.1203   24.2857 H   0  0  0  0  0  0  0  0  0  0  0  0
   19.8799   19.2572   26.1443 C   0  0  2  0  0  0  0  0  0  0  0  0
   20.7832   19.8685   26.2336 H   0  0  0  0  0  0  0  0  0  0  0  0
   20.1492   17.8896   26.7976 C   0  0  0  0  0  0  0  0  0  0  0  0
   19.2930   17.2149   26.6732 H   0  0  0  0  0  0  0  0  0  0  0  0
   21.0334   17.4070   26.3659 H   0  0  0  0  0  0  0  0  0  0  0  0
   20.3370   18.0054   27.8721 H   0  0  0  0  0  0  0  0  0  0  0  0
   18.8000   19.9854   26.8955 N   0  3  0  0  0  0  0  0  0  0  0  0
   19.0472   20.1063   27.8819 H   0  0  0  0  0  0  0  0  0  0  0  0
   17.9131   19.4755   26.8632 H   0  0  0  0  0  0  0  0  0  0  0  0
   18.6334   20.9183   26.5070 H   0  0  0  0  0  0  0  0  0  0  0  0
  1  2  1  0  0  0  0
  1  3  1  0  0  0  0
  1  4  1  0  0  0  0
  1  5  1  0  0  0  0
  5  6  1  0  0  0  0
  5  7  1  0  0  0  0
  5  8  1  0  0  0  0
  8  9  1  0  0  0  0
  8 10  1  0  0  0  0
  8 11  1  0  0  0  0
 11 12  1  0  0  0  0
 11 13  1  0  0  0  0
 11 14  1  0  0  0  0
 14 15  1  0  0  0  0
 14 16  1  0  0  0  0
 14 17  1  0  0  0  0
 17 18  1  0  0  0  0
 17 19  1  0  0  0  0
 17 20  1  0  0  0  0
 20 21  1  0  0  0  0
 20 22  1  0  0  0  0
 22 23  1  0  0  0  0
 22 24  1  0  0  0  0
 22 25  1  0  0  0  0
 20 26  1  0  0  0  0
 26 27  1  0  0  0  0
 26 28  1  0  0  0  0
 26 29  1  0  0  0  0
M  END
> <VM2 Rank>
49

> <Conf_Id>
1054

> <Probability>
0.53

> <Sum Probability>
90.18

> <Delta G>
1.769

> <G>
35.471

> <E>
-2.099

> <-TS>
37.570

> <U+W>
-26.243

> <U>
25.974

> <W>
-52.217

> <W(PB)>
-54.709

> <W(SA)>
2.492

> <Valence>
4.812

> <Coulomb>
19.700

> <VdW>
1.463

> <VdW6>
-9.391

> <VdW12>
10.854

> <Bond>
0.285

> <Angle>
1.671

> <Pdih>
2.856

> <Idih>
0.000

> <Tether>
0.000

$$$$
VeraChem MOL file


 29 28  0  0  0  0  0  0  0  0999 V2000     
   20.1402   19.1624   19.2040 C   0  0  0  0  0  0  0  0  0  0  0  0
   19.8139   19.4029   18.1839 H   0  0  0  0  0  0  0  0  0  0  0  0
   20.9555   19.8504   19.4592 H   0  0  0  0  0  0  0  0  0  0  0  0
   20.5413   18.1405   19.1958 H   0  0  0  0  0  0  0  0  0  0  0  0
   18.9588   19.2879   20.1927 C   0  0  0  0  0  0  0  0  0  0  0  0
   18.1232   18.6777   19.8222 H   0  0  0  0  0  0  0  0  0  0  0  0
   18.5979   20.3258   20.2086 H   0  0  0  0  0  0  0  0  0  0  0  0
   19.3052   18.8316   21.6307 C   0  0  0  0  0  0  0  0  0  0  0  0
   18.3777   18.8279   22.2174 H   0  0  0  0  0  0  0  0  0  0  0  0
   19.6634   17.7932   21.6095 H   0  0  0  0  0  0  0  0  0  0  0  0
   20.3554   19.7335   22.3276 C   0  0  0  0  0  0  0  0  0  0  0  0
   19.9964   20.7716   22.3498 H   0  0  0  0  0  0  0  0  0  0  0  0
   21.2810   19.7394   21.7379 H   0  0  0  0  0  0  0  0  0  0  0  0
   20.7068   19.2743   23.7642 C   0  0  0  0  0  0  0  0  0  0  0  0
   21.0790   18.2419   23.7292 H   0  0  0  0  0  0  0  0  0  0  0  0
   21.5374   19.8920   24.1330 H   0  0  0  0  0  0  0  0  0  0  0  0
   19.5202   19.3830   24.7565 C   0  0  0  0  0  0  0  0  0  0  0  0
   18.7358   18.6644   24.4878 H   0  0  0  0  0  0  0  0  0  0  0  0
   19.0758   20.3827   24.6630 H   0  0  0  0  0  0  0  0  0  0  0  0
   19.9266   19.1637   26.2314 C   0  0  2  0  0  0  0  0  0  0  0  0
   20.7323   19.8637   26.4732 H   0  0  0  0  0  0  0  0  0  0  0  0
   20.4323   17.7323   26.4855 C   0  0  0  0  0  0  0  0  0  0  0  0
   20.6686   17.5888   27.5470 H   0  0  0  0  0  0  0  0  0  0  0  0
   19.6774   16.9886   26.2014 H   0  0  0  0  0  0  0  0  0  0  0  0
   21.3478   17.5267   25.9188 H   0  0  0  0  0  0  0  0  0  0  0  0
   18.7905   19.4873   27.1614 N   0  3  0  0  0  0  0  0  0  0  0  0
   19.0678   19.3814   28.1415 H   0  0  0  0  0  0  0  0  0  0  0  0
   17.9894   18.8703   27.0022 H   0  0  0  0  0  0  0  0  0  0  0  0
   18.4661   20.4510   27.0393 H   0  0  0  0  0  0  0  0  0  0  0  0
  1  2  1  0  0  0  0
  1  3  1  0  0  0  0
  1  4  1  0  0  0  0
  1  5  1  0  0  0  0
  5  6  1  0  0  0  0
  5  7  1  0  0  0  0
  5  8  1  0  0  0  0
  8  9  1  0  0  0  0
  8 10  1  0  0  0  0
  8 11  1  0  0  0  0
 11 12  1  0  0  0  0
 11 13  1  0  0  0  0
 11 14  1  0  0  0  0
 14 15  1  0  0  0  0
 14 16  1  0  0  0  0
 14 17  1  0  0  0  0
 17 18  1  0  0  0  0
 17 19  1  0  0  0  0
 17 20  1  0  0  0  0
 20 21  1  0  0  0  0
 20 22  1  0  0  0  0
 22 23  1  0  0  0  0
 22 24  1  0  0  0  0
 22 25  1  0  0  0  0
 20 26  1  0  0  0  0
 26 27  1  0  0  0  0
 26 28  1  0  0  0  0
 26 29  1  0  0  0  0
M  END
> <VM2 Rank>
50

> <Conf_Id>
1039

> <Probability>
0.51

> <Sum Probability>
90.69

> <Delta G>
1.791

> <G>
35.493

> <E>
-2.104

> <-TS>
37.597

> <U+W>
-26.249

> <U>
25.821

> <W>
-52.070

> <W(PB)>
-54.582

> <W(SA)>
2.512

> <Valence>
4.779

> <Coulomb>
19.614

> <VdW>
1.428

> <VdW6>
-9.390

> <VdW12>
10.818

> <Bond>
0.283

> <Angle>
1.640

> <Pdih>
2.857

> <Idih>
0.000

> <Tether>
0.000

$$$$
VeraChem MOL file


 29 28  0  0  0  0  0  0  0  0999 V2000     
   19.3276   20.6260   19.8684 C   0  0  0  0  0  0  0  0  0  0  0  0
   19.9054   21.5082   19.5636 H   0  0  0  0  0  0  0  0  0  0  0  0
   19.1218   20.0310   18.9690 H   0  0  0  0  0  0  0  0  0  0  0  0
   18.3691   20.9744   20.2747 H   0  0  0  0  0  0  0  0  0  0  0  0
   20.1055   19.8000   20.9145 C   0  0  0  0  0  0  0  0  0  0  0  0
   20.3265   20.4390   21.7797 H   0  0  0  0  0  0  0  0  0  0  0  0
   21.0710   19.4906   20.4907 H   0  0  0  0  0  0  0  0  0  0  0  0
   19.3086   18.5525   21.3630 C   0  0  0  0  0  0  0  0  0  0  0  0
   18.3618   18.8622   21.8243 H   0  0  0  0  0  0  0  0  0  0  0  0
   19.0315   17.9686   20.4745 H   0  0  0  0  0  0  0  0  0  0  0  0
   20.0937   17.6261   22.3277 C   0  0  0  0  0  0  0  0  0  0  0  0
   20.9635   17.2175   21.7949 H   0  0  0  0  0  0  0  0  0  0  0  0
   19.4629   16.7619   22.5776 H   0  0  0  0  0  0  0  0  0  0  0  0
   20.5845   18.2869   23.6424 C   0  0  0  0  0  0  0  0  0  0  0  0
   21.1383   17.5275   24.2089 H   0  0  0  0  0  0  0  0  0  0  0  0
   21.3073   19.0817   23.4160 H   0  0  0  0  0  0  0  0  0  0  0  0
   19.4371   18.8549   24.5176 C   0  0  0  0  0  0  0  0  0  0  0  0
   18.7221   18.0565   24.7559 H   0  0  0  0  0  0  0  0  0  0  0  0
   18.8860   19.6056   23.9383 H   0  0  0  0  0  0  0  0  0  0  0  0
   19.9233   19.5254   25.8231 C   0  0  2  0  0  0  0  0  0  0  0  0
   20.6793   20.2732   25.5642 H   0  0  0  0  0  0  0  0  0  0  0  0
   20.5508   18.5142   26.7996 C   0  0  0  0  0  0  0  0  0  0  0  0
   19.8502   17.7039   27.0363 H   0  0  0  0  0  0  0  0  0  0  0  0
   21.4630   18.0704   26.3849 H   0  0  0  0  0  0  0  0  0  0  0  0
   20.8300   19.0071   27.7390 H   0  0  0  0  0  0  0  0  0  0  0  0
   18.8048   20.2700   26.4978 N   0  3  0  0  0  0  0  0  0  0  0  0
   18.3998   20.9813   25.8822 H   0  0  0  0  0  0  0  0  0  0  0  0
   19.1305   20.7483   27.3427 H   0  0  0  0  0  0  0  0  0  0  0  0
   18.0497   19.6377   26.7766 H   0  0  0  0  0  0  0  0  0  0  0  0
  1  2  1  0  0  0  0
  1  3  1  0  0  0  0
  1  4  1  0  0  0  0
  1  5  1  0  0  0  0
  5  6  1  0  0  0  0
  5  7  1  0  0  0  0
  5  8  1  0  0  0  0
  8  9  1  0  0  0  0
  8 10  1  0  0  0  0
  8 11  1  0  0  0  0
 11 12  1  0  0  0  0
 11 13  1  0  0  0  0
 11 14  1  0  0  0  0
 14 15  1  0  0  0  0
 14 16  1  0  0  0  0
 14 17  1  0  0  0  0
 17 18  1  0  0  0  0
 17 19  1  0  0  0  0
 17 20  1  0  0  0  0
 20 21  1  0  0  0  0
 20 22  1  0  0  0  0
 22 23  1  0  0  0  0
 22 24  1  0  0  0  0
 22 25  1  0  0  0  0
 20 26  1  0  0  0  0
 26 27  1  0  0  0  0
 26 28  1  0  0  0  0
 26 29  1  0  0  0  0
M  END
> <VM2 Rank>
51

> <Conf_Id>
201

> <Probability>
0.47

> <Sum Probability>
91.17

> <Delta G>
1.843

> <G>
35.545

> <E>
-2.257

> <-TS>
37.802

> <U+W>
-26.401

> <U>
26.111

> <W>
-52.513

> <W(PB)>
-54.997

> <W(SA)>
2.485

> <Valence>
4.789

> <Coulomb>
20.049

> <VdW>
1.273

> <VdW6>
-9.803

> <VdW12>
11.076

> <Bond>
0.295

> <Angle>
1.940

> <Pdih>
2.553

> <Idih>
0.000

> <Tether>
0.000

$$$$
VeraChem MOL file


 29 28  0  0  0  0  0  0  0  0999 V2000     
   20.1736   19.3131   19.1802 C   0  0  0  0  0  0  0  0  0  0  0  0
   20.8249   20.1960   19.2168 H   0  0  0  0  0  0  0  0  0  0  0  0
   20.7795   18.4283   19.4111 H   0  0  0  0  0  0  0  0  0  0  0  0
   19.8129   19.2048   18.1492 H   0  0  0  0  0  0  0  0  0  0  0  0
   18.9839   19.4592   20.1561 C   0  0  0  0  0  0  0  0  0  0  0  0
   18.3676   18.5497   20.1274 H   0  0  0  0  0  0  0  0  0  0  0  0
   18.3398   20.2778   19.8057 H   0  0  0  0  0  0  0  0  0  0  0  0
   19.4123   19.7560   21.6137 C   0  0  0  0  0  0  0  0  0  0  0  0
   20.0279   20.6656   21.6364 H   0  0  0  0  0  0  0  0  0  0  0  0
   18.5071   19.9796   22.1920 H   0  0  0  0  0  0  0  0  0  0  0  0
   20.1812   18.5866   22.2804 C   0  0  0  0  0  0  0  0  0  0  0  0
   21.0797   18.3617   21.6915 H   0  0  0  0  0  0  0  0  0  0  0  0
   19.5647   17.6774   22.2623 H   0  0  0  0  0  0  0  0  0  0  0  0
   20.6279   18.8829   23.7337 C   0  0  0  0  0  0  0  0  0  0  0  0
   21.3063   18.0785   24.0451 H   0  0  0  0  0  0  0  0  0  0  0  0
   21.2165   19.8104   23.7558 H   0  0  0  0  0  0  0  0  0  0  0  0
   19.4503   18.9841   24.7384 C   0  0  0  0  0  0  0  0  0  0  0  0
   18.8698   18.0522   24.7242 H   0  0  0  0  0  0  0  0  0  0  0  0
   18.7697   19.7802   24.4144 H   0  0  0  0  0  0  0  0  0  0  0  0
   19.8929   19.2981   26.1862 C   0  0  2  0  0  0  0  0  0  0  0  0
   20.5200   20.1948   26.1668 H   0  0  0  0  0  0  0  0  0  0  0  0
   20.7038   18.1484   26.8111 C   0  0  0  0  0  0  0  0  0  0  0  0
   20.1397   17.2077   26.7901 H   0  0  0  0  0  0  0  0  0  0  0  0
   21.6513   17.9935   26.2827 H   0  0  0  0  0  0  0  0  0  0  0  0
   20.9502   18.3734   27.8561 H   0  0  0  0  0  0  0  0  0  0  0  0
   18.7101   19.6276   27.0541 N   0  3  0  0  0  0  0  0  0  0  0  0
   18.1789   20.4206   26.6828 H   0  0  0  0  0  0  0  0  0  0  0  0
   19.0009   19.8744   28.0045 H   0  0  0  0  0  0  0  0  0  0  0  0
   18.0677   18.8341   27.1276 H   0  0  0  0  0  0  0  0  0  0  0  0
  1  2  1  0  0  0  0
  1  3  1  0  0  0  0
  1  4  1  0  0  0  0
  1  5  1  0  0  0  0
  5  6  1  0  0  0  0
  5  7  1  0  0  0  0
  5  8  1  0  0  0  0
  8  9  1  0  0  0  0
  8 10  1  0  0  0  0
  8 11  1  0  0  0  0
 11 12  1  0  0  0  0
 11 13  1  0  0  0  0
 11 14  1  0  0  0  0
 14 15  1  0  0  0  0
 14 16  1  0  0  0  0
 14 17  1  0  0  0  0
 17 18  1  0  0  0  0
 17 19  1  0  0  0  0
 17 20  1  0  0  0  0
 20 21  1  0  0  0  0
 20 22  1  0  0  0  0
 22 23  1  0  0  0  0
 22 24  1  0  0  0  0
 22 25  1  0  0  0  0
 20 26  1  0  0  0  0
 26 27  1  0  0  0  0
 26 28  1  0  0  0  0
 26 29  1  0  0  0  0
M  END
> <VM2 Rank>
52

> <Conf_Id>
113

> <Probability>
0.47

> <Sum Probability>
91.64

> <Delta G>
1.843

> <G>
35.545

> <E>
-1.907

> <-TS>
37.452

> <U+W>
-26.051

> <U>
26.145

> <W>
-52.196

> <W(PB)>
-54.704

> <W(SA)>
2.508

> <Valence>
4.933

> <Coulomb>
19.671

> <VdW>
1.541

> <VdW6>
-9.288

> <VdW12>
10.829

> <Bond>
0.296

> <Angle>
1.772

> <Pdih>
2.865

> <Idih>
0.000

> <Tether>
0.000

$$$$
VeraChem MOL file


 29 28  0  0  0  0  0  0  0  0999 V2000     
   19.0041   20.4706   20.3780 C   0  0  0  0  0  0  0  0  0  0  0  0
   19.2374   21.0307   21.2921 H   0  0  0  0  0  0  0  0  0  0  0  0
   19.7742   20.6970   19.6293 H   0  0  0  0  0  0  0  0  0  0  0  0
   18.0447   20.8440   19.9973 H   0  0  0  0  0  0  0  0  0  0  0  0
   18.9243   18.9515   20.6502 C   0  0  0  0  0  0  0  0  0  0  0  0
   18.5741   18.4470   19.7389 H   0  0  0  0  0  0  0  0  0  0  0  0
   18.1623   18.7514   21.4152 H   0  0  0  0  0  0  0  0  0  0  0  0
   20.2804   18.3281   21.0683 C   0  0  0  0  0  0  0  0  0  0  0  0
   20.1428   17.2480   21.2152 H   0  0  0  0  0  0  0  0  0  0  0  0
   20.9893   18.4298   20.2350 H   0  0  0  0  0  0  0  0  0  0  0  0
   20.9234   18.9321   22.3434 C   0  0  0  0  0  0  0  0  0  0  0  0
   21.1736   19.9874   22.1719 H   0  0  0  0  0  0  0  0  0  0  0  0
   21.8790   18.4206   22.5232 H   0  0  0  0  0  0  0  0  0  0  0  0
   20.0367   18.8016   23.6048 C   0  0  0  0  0  0  0  0  0  0  0  0
   19.1097   19.3702   23.4611 H   0  0  0  0  0  0  0  0  0  0  0  0
   19.7530   17.7491   23.7347 H   0  0  0  0  0  0  0  0  0  0  0  0
   20.7697   19.3146   24.8716 C   0  0  0  0  0  0  0  0  0  0  0  0
   21.0973   20.3490   24.7041 H   0  0  0  0  0  0  0  0  0  0  0  0
   21.6858   18.7284   25.0232 H   0  0  0  0  0  0  0  0  0  0  0  0
   19.9321   19.2716   26.1715 C   0  0  2  0  0  0  0  0  0  0  0  0
   20.5548   19.6810   26.9730 H   0  0  0  0  0  0  0  0  0  0  0  0
   19.5506   17.8345   26.5669 C   0  0  0  0  0  0  0  0  0  0  0  0
   19.0786   17.8218   27.5570 H   0  0  0  0  0  0  0  0  0  0  0  0
   18.8450   17.3913   25.8541 H   0  0  0  0  0  0  0  0  0  0  0  0
   20.4400   17.1940   26.6143 H   0  0  0  0  0  0  0  0  0  0  0  0
   18.7146   20.1515   26.0993 N   0  3  0  0  0  0  0  0  0  0  0  0
   18.9642   21.1201   25.8801 H   0  0  0  0  0  0  0  0  0  0  0  0
   18.2062   20.1598   26.9882 H   0  0  0  0  0  0  0  0  0  0  0  0
   18.0659   19.8286   25.3773 H   0  0  0  0  0  0  0  0  0  0  0  0
  1  2  1  0  0  0  0
  1  3  1  0  0  0  0
  1  4  1  0  0  0  0
  1  5  1  0  0  0  0
  5  6  1  0  0  0  0
  5  7  1  0  0  0  0
  5  8  1  0  0  0  0
  8  9  1  0  0  0  0
  8 10  1  0  0  0  0
  8 11  1  0  0  0  0
 11 12  1  0  0  0  0
 11 13  1  0  0  0  0
 11 14  1  0  0  0  0
 14 15  1  0  0  0  0
 14 16  1  0  0  0  0
 14 17  1  0  0  0  0
 17 18  1  0  0  0  0
 17 19  1  0  0  0  0
 17 20  1  0  0  0  0
 20 21  1  0  0  0  0
 20 22  1  0  0  0  0
 22 23  1  0  0  0  0
 22 24  1  0  0  0  0
 22 25  1  0  0  0  0
 20 26  1  0  0  0  0
 26 27  1  0  0  0  0
 26 28  1  0  0  0  0
 26 29  1  0  0  0  0
M  END
> <VM2 Rank>
53

> <Conf_Id>
337

> <Probability>
0.47

> <Sum Probability>
92.10

> <Delta G>
1.850

> <G>
35.553

> <E>
-2.418

> <-TS>
37.971

> <U+W>
-26.563

> <U>
25.998

> <W>
-52.560

> <W(PB)>
-55.000

> <W(SA)>
2.440

> <Valence>
4.627

> <Coulomb>
20.145

> <VdW>
1.225

> <VdW6>
-10.241

> <VdW12>
11.467

> <Bond>
0.303

> <Angle>
1.847

> <Pdih>
2.477

> <Idih>
0.000

> <Tether>
0.000

$$$$
VeraChem MOL file


 29 28  0  0  0  0  0  0  0  0999 V2000     
   20.8960   19.0186   19.7979 C   0  0  0  0  0  0  0  0  0  0  0  0
   20.9495   20.0074   19.3239 H   0  0  0  0  0  0  0  0  0  0  0  0
   21.8561   18.8243   20.2934 H   0  0  0  0  0  0  0  0  0  0  0  0
   20.7686   18.2710   19.0043 H   0  0  0  0  0  0  0  0  0  0  0  0
   19.7286   18.9483   20.8049 C   0  0  0  0  0  0  0  0  0  0  0  0
   19.6826   17.9359   21.2274 H   0  0  0  0  0  0  0  0  0  0  0  0
   18.7800   19.1165   20.2762 H   0  0  0  0  0  0  0  0  0  0  0  0
   19.8877   19.9918   21.9354 C   0  0  0  0  0  0  0  0  0  0  0  0
   20.8201   19.8052   22.4842 H   0  0  0  0  0  0  0  0  0  0  0  0
   19.9964   20.9888   21.4868 H   0  0  0  0  0  0  0  0  0  0  0  0
   18.6893   20.0271   22.9185 C   0  0  0  0  0  0  0  0  0  0  0  0
   17.7844   20.3127   22.3647 H   0  0  0  0  0  0  0  0  0  0  0  0
   18.8545   20.8317   23.6474 H   0  0  0  0  0  0  0  0  0  0  0  0
   18.4116   18.6977   23.6710 C   0  0  0  0  0  0  0  0  0  0  0  0
   17.5634   18.8485   24.3521 H   0  0  0  0  0  0  0  0  0  0  0  0
   18.0749   17.9362   22.9552 H   0  0  0  0  0  0  0  0  0  0  0  0
   19.6188   18.1375   24.4692 C   0  0  0  0  0  0  0  0  0  0  0  0
   20.4012   17.8252   23.7657 H   0  0  0  0  0  0  0  0  0  0  0  0
   19.3069   17.2259   24.9958 H   0  0  0  0  0  0  0  0  0  0  0  0
   20.2190   19.1347   25.4845 C   0  0  2  0  0  0  0  0  0  0  0  0
   20.5209   20.0365   24.9435 H   0  0  0  0  0  0  0  0  0  0  0  0
   21.4666   18.5346   26.1514 C   0  0  0  0  0  0  0  0  0  0  0  0
   21.9187   19.2529   26.8464 H   0  0  0  0  0  0  0  0  0  0  0  0
   21.2182   17.6253   26.7129 H   0  0  0  0  0  0  0  0  0  0  0  0
   22.2236   18.2765   25.4003 H   0  0  0  0  0  0  0  0  0  0  0  0
   19.2184   19.5656   26.5213 N   0  3  0  0  0  0  0  0  0  0  0  0
   19.6198   20.2500   27.1685 H   0  0  0  0  0  0  0  0  0  0  0  0
   18.8931   18.7706   27.0777 H   0  0  0  0  0  0  0  0  0  0  0  0
   18.3970   19.9955   26.0876 H   0  0  0  0  0  0  0  0  0  0  0  0
  1  2  1  0  0  0  0
  1  3  1  0  0  0  0
  1  4  1  0  0  0  0
  1  5  1  0  0  0  0
  5  6  1  0  0  0  0
  5  7  1  0  0  0  0
  5  8  1  0  0  0  0
  8  9  1  0  0  0  0
  8 10  1  0  0  0  0
  8 11  1  0  0  0  0
 11 12  1  0  0  0  0
 11 13  1  0  0  0  0
 11 14  1  0  0  0  0
 14 15  1  0  0  0  0
 14 16  1  0  0  0  0
 14 17  1  0  0  0  0
 17 18  1  0  0  0  0
 17 19  1  0  0  0  0
 17 20  1  0  0  0  0
 20 21  1  0  0  0  0
 20 22  1  0  0  0  0
 22 23  1  0  0  0  0
 22 24  1  0  0  0  0
 22 25  1  0  0  0  0
 20 26  1  0  0  0  0
 26 27  1  0  0  0  0
 26 28  1  0  0  0  0
 26 29  1  0  0  0  0
M  END
> <VM2 Rank>
54

> <Conf_Id>
1500

> <Probability>
0.44

> <Sum Probability>
92.54

> <Delta G>
1.886

> <G>
35.588

> <E>
-2.609

> <-TS>
38.198

> <U+W>
-26.754

> <U>
25.507

> <W>
-52.260

> <W(PB)>
-54.688

> <W(SA)>
2.428

> <Valence>
4.386

> <Coulomb>
20.418

> <VdW>
0.703

> <VdW6>
-10.963

> <VdW12>
11.666

> <Bond>
0.307

> <Angle>
1.748

> <Pdih>
2.332

> <Idih>
0.000

> <Tether>
0.000

$$$$
VeraChem MOL file


 29 28  0  0  0  0  0  0  0  0999 V2000     
   20.6063   19.2827   19.5164 C   0  0  0  0  0  0  0  0  0  0  0  0
   20.8959   18.2633   19.8002 H   0  0  0  0  0  0  0  0  0  0  0  0
   20.5631   19.3206   18.4202 H   0  0  0  0  0  0  0  0  0  0  0  0
   21.3968   19.9695   19.8455 H   0  0  0  0  0  0  0  0  0  0  0  0
   19.2410   19.6744   20.1254 C   0  0  0  0  0  0  0  0  0  0  0  0
   18.4729   18.9581   19.8021 H   0  0  0  0  0  0  0  0  0  0  0  0
   18.9397   20.6513   19.7220 H   0  0  0  0  0  0  0  0  0  0  0  0
   19.2608   19.7591   21.6706 C   0  0  0  0  0  0  0  0  0  0  0  0
   20.0099   20.5003   21.9783 H   0  0  0  0  0  0  0  0  0  0  0  0
   18.2879   20.1386   22.0120 H   0  0  0  0  0  0  0  0  0  0  0  0
   19.5434   18.3980   22.3554 C   0  0  0  0  0  0  0  0  0  0  0  0
   20.5638   18.0647   22.1247 H   0  0  0  0  0  0  0  0  0  0  0  0
   18.8676   17.6403   21.9353 H   0  0  0  0  0  0  0  0  0  0  0  0
   19.3522   18.4273   23.8917 C   0  0  0  0  0  0  0  0  0  0  0  0
   18.3259   18.7426   24.1219 H   0  0  0  0  0  0  0  0  0  0  0  0
   19.4521   17.3995   24.2636 H   0  0  0  0  0  0  0  0  0  0  0  0
   20.3709   19.3462   24.6202 C   0  0  0  0  0  0  0  0  0  0  0  0
   20.2510   20.3785   24.2696 H   0  0  0  0  0  0  0  0  0  0  0  0
   21.3912   19.0487   24.3442 H   0  0  0  0  0  0  0  0  0  0  0  0
   20.2542   19.3522   26.1628 C   0  0  2  0  0  0  0  0  0  0  0  0
   20.9838   20.0753   26.5404 H   0  0  0  0  0  0  0  0  0  0  0  0
   20.5979   17.9840   26.7773 C   0  0  0  0  0  0  0  0  0  0  0  0
   19.8478   17.2250   26.5259 H   0  0  0  0  0  0  0  0  0  0  0  0
   21.5754   17.6324   26.4245 H   0  0  0  0  0  0  0  0  0  0  0  0
   20.6459   18.0567   27.8707 H   0  0  0  0  0  0  0  0  0  0  0  0
   18.9093   19.8322   26.6343 N   0  3  0  0  0  0  0  0  0  0  0  0
   18.8693   19.8887   27.6560 H   0  0  0  0  0  0  0  0  0  0  0  0
   18.1636   19.2004   26.3320 H   0  0  0  0  0  0  0  0  0  0  0  0
   18.6931   20.7633   26.2670 H   0  0  0  0  0  0  0  0  0  0  0  0
  1  2  1  0  0  0  0
  1  3  1  0  0  0  0
  1  4  1  0  0  0  0
  1  5  1  0  0  0  0
  5  6  1  0  0  0  0
  5  7  1  0  0  0  0
  5  8  1  0  0  0  0
  8  9  1  0  0  0  0
  8 10  1  0  0  0  0
  8 11  1  0  0  0  0
 11 12  1  0  0  0  0
 11 13  1  0  0  0  0
 11 14  1  0  0  0  0
 14 15  1  0  0  0  0
 14 16  1  0  0  0  0
 14 17  1  0  0  0  0
 17 18  1  0  0  0  0
 17 19  1  0  0  0  0
 17 20  1  0  0  0  0
 20 21  1  0  0  0  0
 20 22  1  0  0  0  0
 22 23  1  0  0  0  0
 22 24  1  0  0  0  0
 22 25  1  0  0  0  0
 20 26  1  0  0  0  0
 26 27  1  0  0  0  0
 26 28  1  0  0  0  0
 26 29  1  0  0  0  0
M  END
> <VM2 Rank>
55

> <Conf_Id>
670

> <Probability>
0.44

> <Sum Probability>
92.98

> <Delta G>
1.890

> <G>
35.592

> <E>
-2.143

> <-TS>
37.735

> <U+W>
-26.287

> <U>
25.995

> <W>
-52.283

> <W(PB)>
-54.749

> <W(SA)>
2.466

> <Valence>
4.756

> <Coulomb>
19.829

> <VdW>
1.410

> <VdW6>
-9.885

> <VdW12>
11.295

> <Bond>
0.310

> <Angle>
1.687

> <Pdih>
2.759

> <Idih>
0.000

> <Tether>
0.000

$$$$
VeraChem MOL file


 29 28  0  0  0  0  0  0  0  0999 V2000     
   20.1782   20.3230   20.0796 C   0  0  0  0  0  0  0  0  0  0  0  0
   19.5749   20.0028   19.2203 H   0  0  0  0  0  0  0  0  0  0  0  0
   19.5727   21.0047   20.6897 H   0  0  0  0  0  0  0  0  0  0  0  0
   21.0339   20.8934   19.6959 H   0  0  0  0  0  0  0  0  0  0  0  0
   20.6624   19.1070   20.9011 C   0  0  0  0  0  0  0  0  0  0  0  0
   21.2531   19.4515   21.7604 H   0  0  0  0  0  0  0  0  0  0  0  0
   21.3491   18.5128   20.2823 H   0  0  0  0  0  0  0  0  0  0  0  0
   19.5079   18.1898   21.3781 C   0  0  0  0  0  0  0  0  0  0  0  0
   18.9968   17.7780   20.4971 H   0  0  0  0  0  0  0  0  0  0  0  0
   19.9331   17.3233   21.9013 H   0  0  0  0  0  0  0  0  0  0  0  0
   18.4512   18.8752   22.2861 C   0  0  0  0  0  0  0  0  0  0  0  0
   17.7062   18.1251   22.5848 H   0  0  0  0  0  0  0  0  0  0  0  0
   17.8987   19.6198   21.6978 H   0  0  0  0  0  0  0  0  0  0  0  0
   19.0116   19.5600   23.5595 C   0  0  0  0  0  0  0  0  0  0  0  0
   19.6860   20.3794   23.2775 H   0  0  0  0  0  0  0  0  0  0  0  0
   18.1709   20.0279   24.0879 H   0  0  0  0  0  0  0  0  0  0  0  0
   19.7448   18.5832   24.5142 C   0  0  0  0  0  0  0  0  0  0  0  0
   20.5939   18.1311   23.9867 H   0  0  0  0  0  0  0  0  0  0  0  0
   19.0727   17.7607   24.7924 H   0  0  0  0  0  0  0  0  0  0  0  0
   20.2767   19.2736   25.7888 C   0  0  2  0  0  0  0  0  0  0  0  0
   20.9130   20.1106   25.4854 H   0  0  0  0  0  0  0  0  0  0  0  0
   21.1282   18.2935   26.6115 C   0  0  0  0  0  0  0  0  0  0  0  0
   21.9730   17.9192   26.0199 H   0  0  0  0  0  0  0  0  0  0  0  0
   21.5383   18.7874   27.5010 H   0  0  0  0  0  0  0  0  0  0  0  0
   20.5341   17.4322   26.9418 H   0  0  0  0  0  0  0  0  0  0  0  0
   19.1750   19.8508   26.6350 N   0  3  0  0  0  0  0  0  0  0  0  0
   19.5477   20.3195   27.4657 H   0  0  0  0  0  0  0  0  0  0  0  0
   18.5315   19.1226   26.9564 H   0  0  0  0  0  0  0  0  0  0  0  0
   18.6259   20.5403   26.1147 H   0  0  0  0  0  0  0  0  0  0  0  0
  1  2  1  0  0  0  0
  1  3  1  0  0  0  0
  1  4  1  0  0  0  0
  1  5  1  0  0  0  0
  5  6  1  0  0  0  0
  5  7  1  0  0  0  0
  5  8  1  0  0  0  0
  8  9  1  0  0  0  0
  8 10  1  0  0  0  0
  8 11  1  0  0  0  0
 11 12  1  0  0  0  0
 11 13  1  0  0  0  0
 11 14  1  0  0  0  0
 14 15  1  0  0  0  0
 14 16  1  0  0  0  0
 14 17  1  0  0  0  0
 17 18  1  0  0  0  0
 17 19  1  0  0  0  0
 17 20  1  0  0  0  0
 20 21  1  0  0  0  0
 20 22  1  0  0  0  0
 22 23  1  0  0  0  0
 22 24  1  0  0  0  0
 22 25  1  0  0  0  0
 20 26  1  0  0  0  0
 26 27  1  0  0  0  0
 26 28  1  0  0  0  0
 26 29  1  0  0  0  0
M  END
> <VM2 Rank>
56

> <Conf_Id>
821

> <Probability>
0.43

> <Sum Probability>
93.41

> <Delta G>
1.898

> <G>
35.600

> <E>
-2.555

> <-TS>
38.155

> <U+W>
-26.700

> <U>
25.696

> <W>
-52.396

> <W(PB)>
-54.863

> <W(SA)>
2.468

> <Valence>
4.599

> <Coulomb>
20.006

> <VdW>
1.091

> <VdW6>
-10.568

> <VdW12>
11.659

> <Bond>
0.319

> <Angle>
1.895

> <Pdih>
2.384

> <Idih>
0.000

> <Tether>
0.000

$$$$
VeraChem MOL file


 29 28  0  0  0  0  0  0  0  0999 V2000     
   19.6875   19.9154   19.6071 C   0  0  0  0  0  0  0  0  0  0  0  0
   19.2550   18.9997   19.1837 H   0  0  0  0  0  0  0  0  0  0  0  0
   18.8684   20.5445   19.9765 H   0  0  0  0  0  0  0  0  0  0  0  0
   20.1801   20.4617   18.7923 H   0  0  0  0  0  0  0  0  0  0  0  0
   20.7011   19.5854   20.7262 C   0  0  0  0  0  0  0  0  0  0  0  0
   21.0930   20.5171   21.1574 H   0  0  0  0  0  0  0  0  0  0  0  0
   21.5618   19.0674   20.2805 H   0  0  0  0  0  0  0  0  0  0  0  0
   20.1146   18.6950   21.8483 C   0  0  0  0  0  0  0  0  0  0  0  0
   19.7278   17.7633   21.4132 H   0  0  0  0  0  0  0  0  0  0  0  0
   20.9368   18.4079   22.5163 H   0  0  0  0  0  0  0  0  0  0  0  0
   18.9996   19.3917   22.6686 C   0  0  0  0  0  0  0  0  0  0  0  0
   18.1792   19.6788   21.9984 H   0  0  0  0  0  0  0  0  0  0  0  0
   19.3845   20.3276   23.0945 H   0  0  0  0  0  0  0  0  0  0  0  0
   18.4064   18.4993   23.7899 C   0  0  0  0  0  0  0  0  0  0  0  0
   17.5890   19.0444   24.2807 H   0  0  0  0  0  0  0  0  0  0  0  0
   17.9396   17.6156   23.3336 H   0  0  0  0  0  0  0  0  0  0  0  0
   19.4243   18.0273   24.8625 C   0  0  0  0  0  0  0  0  0  0  0  0
   20.1271   17.3187   24.4061 H   0  0  0  0  0  0  0  0  0  0  0  0
   18.8892   17.4607   25.6360 H   0  0  0  0  0  0  0  0  0  0  0  0
   20.2186   19.1735   25.5267 C   0  0  2  0  0  0  0  0  0  0  0  0
   20.7475   19.7244   24.7432 H   0  0  0  0  0  0  0  0  0  0  0  0
   21.2618   18.6074   26.5027 C   0  0  0  0  0  0  0  0  0  0  0  0
   21.8542   19.4155   26.9493 H   0  0  0  0  0  0  0  0  0  0  0  0
   20.7826   18.0459   27.3145 H   0  0  0  0  0  0  0  0  0  0  0  0
   21.9552   17.9338   25.9840 H   0  0  0  0  0  0  0  0  0  0  0  0
   19.3220   20.1608   26.2220 N   0  3  0  0  0  0  0  0  0  0  0  0
   19.8581   20.9322   26.6294 H   0  0  0  0  0  0  0  0  0  0  0  0
   18.7971   19.7171   26.9803 H   0  0  0  0  0  0  0  0  0  0  0  0
   18.6427   20.5659   25.5722 H   0  0  0  0  0  0  0  0  0  0  0  0
  1  2  1  0  0  0  0
  1  3  1  0  0  0  0
  1  4  1  0  0  0  0
  1  5  1  0  0  0  0
  5  6  1  0  0  0  0
  5  7  1  0  0  0  0
  5  8  1  0  0  0  0
  8  9  1  0  0  0  0
  8 10  1  0  0  0  0
  8 11  1  0  0  0  0
 11 12  1  0  0  0  0
 11 13  1  0  0  0  0
 11 14  1  0  0  0  0
 14 15  1  0  0  0  0
 14 16  1  0  0  0  0
 14 17  1  0  0  0  0
 17 18  1  0  0  0  0
 17 19  1  0  0  0  0
 17 20  1  0  0  0  0
 20 21  1  0  0  0  0
 20 22  1  0  0  0  0
 22 23  1  0  0  0  0
 22 24  1  0  0  0  0
 22 25  1  0  0  0  0
 20 26  1  0  0  0  0
 26 27  1  0  0  0  0
 26 28  1  0  0  0  0
 26 29  1  0  0  0  0
M  END
> <VM2 Rank>
57

> <Conf_Id>
707

> <Probability>
0.42

> <Sum Probability>
93.83

> <Delta G>
1.914

> <G>
35.616

> <E>
-2.322

> <-TS>
37.938

> <U+W>
-26.466

> <U>
25.817

> <W>
-52.283

> <W(PB)>
-54.729

> <W(SA)>
2.446

> <Valence>
4.503

> <Coulomb>
20.342

> <VdW>
0.971

> <VdW6>
-10.533

> <VdW12>
11.504

> <Bond>
0.307

> <Angle>
1.715

> <Pdih>
2.481

> <Idih>
0.000

> <Tether>
0.000

$$$$
VeraChem MOL file


 29 28  0  0  0  0  0  0  0  0999 V2000     
   19.1549   19.0740   19.2955 C   0  0  0  0  0  0  0  0  0  0  0  0
   18.9935   17.9882   19.3097 H   0  0  0  0  0  0  0  0  0  0  0  0
   18.2442   19.5624   19.6632 H   0  0  0  0  0  0  0  0  0  0  0  0
   19.2926   19.3790   18.2501 H   0  0  0  0  0  0  0  0  0  0  0  0
   20.3902   19.4634   20.1389 C   0  0  0  0  0  0  0  0  0  0  0  0
   20.5099   20.5558   20.1379 H   0  0  0  0  0  0  0  0  0  0  0  0
   21.2891   19.0554   19.6559 H   0  0  0  0  0  0  0  0  0  0  0  0
   20.3326   18.9441   21.5960 C   0  0  0  0  0  0  0  0  0  0  0  0
   20.2136   17.8519   21.5914 H   0  0  0  0  0  0  0  0  0  0  0  0
   21.3028   19.1486   22.0662 H   0  0  0  0  0  0  0  0  0  0  0  0
   19.2021   19.5904   22.4367 C   0  0  0  0  0  0  0  0  0  0  0  0
   18.2339   19.3914   21.9596 H   0  0  0  0  0  0  0  0  0  0  0  0
   19.3238   20.6822   22.4452 H   0  0  0  0  0  0  0  0  0  0  0  0
   19.1339   19.0639   23.8915 C   0  0  0  0  0  0  0  0  0  0  0  0
   18.2275   19.4710   24.3582 H   0  0  0  0  0  0  0  0  0  0  0  0
   19.0099   17.9730   23.8725 H   0  0  0  0  0  0  0  0  0  0  0  0
   20.3728   19.4471   24.7466 C   0  0  0  0  0  0  0  0  0  0  0  0
   20.5503   20.5272   24.6626 H   0  0  0  0  0  0  0  0  0  0  0  0
   21.2679   18.9594   24.3412 H   0  0  0  0  0  0  0  0  0  0  0  0
   20.2631   19.0840   26.2463 C   0  0  2  0  0  0  0  0  0  0  0  0
   21.1891   19.4120   26.7288 H   0  0  0  0  0  0  0  0  0  0  0  0
   20.1362   17.5663   26.4651 C   0  0  0  0  0  0  0  0  0  0  0  0
   20.9489   17.0303   25.9595 H   0  0  0  0  0  0  0  0  0  0  0  0
   20.1940   17.3267   27.5340 H   0  0  0  0  0  0  0  0  0  0  0  0
   19.1820   17.1809   26.0865 H   0  0  0  0  0  0  0  0  0  0  0  0
   19.1503   19.8229   26.9373 N   0  3  0  0  0  0  0  0  0  0  0  0
   19.2511   20.8366   26.8327 H   0  0  0  0  0  0  0  0  0  0  0  0
   19.1324   19.6189   27.9407 H   0  0  0  0  0  0  0  0  0  0  0  0
   18.2379   19.5625   26.5548 H   0  0  0  0  0  0  0  0  0  0  0  0
  1  2  1  0  0  0  0
  1  3  1  0  0  0  0
  1  4  1  0  0  0  0
  1  5  1  0  0  0  0
  5  6  1  0  0  0  0
  5  7  1  0  0  0  0
  5  8  1  0  0  0  0
  8  9  1  0  0  0  0
  8 10  1  0  0  0  0
  8 11  1  0  0  0  0
 11 12  1  0  0  0  0
 11 13  1  0  0  0  0
 11 14  1  0  0  0  0
 14 15  1  0  0  0  0
 14 16  1  0  0  0  0
 14 17  1  0  0  0  0
 17 18  1  0  0  0  0
 17 19  1  0  0  0  0
 17 20  1  0  0  0  0
 20 21  1  0  0  0  0
 20 22  1  0  0  0  0
 22 23  1  0  0  0  0
 22 24  1  0  0  0  0
 22 25  1  0  0  0  0
 20 26  1  0  0  0  0
 26 27  1  0  0  0  0
 26 28  1  0  0  0  0
 26 29  1  0  0  0  0
M  END
> <VM2 Rank>
58

> <Conf_Id>
603

> <Probability>
0.40

> <Sum Probability>
94.23

> <Delta G>
1.935

> <G>
35.637

> <E>
-2.058

> <-TS>
37.695

> <U+W>
-26.203

> <U>
25.894

> <W>
-52.097

> <W(PB)>
-54.600

> <W(SA)>
2.503

> <Valence>
4.780

> <Coulomb>
19.659

> <VdW>
1.455

> <VdW6>
-9.843

> <VdW12>
11.298

> <Bond>
0.315

> <Angle>
1.725

> <Pdih>
2.740

> <Idih>
0.000

> <Tether>
0.000

$$$$
VeraChem MOL file


 29 28  0  0  0  0  0  0  0  0999 V2000     
   18.8958   20.2142   20.2476 C   0  0  0  0  0  0  0  0  0  0  0  0
   17.8877   20.5561   19.9802 H   0  0  0  0  0  0  0  0  0  0  0  0
   19.3818   21.0227   20.8077 H   0  0  0  0  0  0  0  0  0  0  0  0
   19.4554   20.0563   19.3165 H   0  0  0  0  0  0  0  0  0  0  0  0
   18.8239   18.9135   21.0787 C   0  0  0  0  0  0  0  0  0  0  0  0
   18.2366   18.1700   20.5221 H   0  0  0  0  0  0  0  0  0  0  0  0
   18.2710   19.0983   22.0092 H   0  0  0  0  0  0  0  0  0  0  0  0
   20.2155   18.3083   21.3937 C   0  0  0  0  0  0  0  0  0  0  0  0
   20.0788   17.3631   21.9355 H   0  0  0  0  0  0  0  0  0  0  0  0
   20.7053   18.0370   20.4485 H   0  0  0  0  0  0  0  0  0  0  0  0
   21.1705   19.2308   22.1981 C   0  0  0  0  0  0  0  0  0  0  0  0
   21.4461   20.0953   21.5795 H   0  0  0  0  0  0  0  0  0  0  0  0
   22.1088   18.6896   22.3815 H   0  0  0  0  0  0  0  0  0  0  0  0
   20.6117   19.7399   23.5515 C   0  0  0  0  0  0  0  0  0  0  0  0
   21.3674   20.3882   24.0161 H   0  0  0  0  0  0  0  0  0  0  0  0
   19.7356   20.3754   23.3706 H   0  0  0  0  0  0  0  0  0  0  0  0
   20.2533   18.5981   24.5363 C   0  0  0  0  0  0  0  0  0  0  0  0
   21.1183   17.9286   24.6329 H   0  0  0  0  0  0  0  0  0  0  0  0
   19.4310   17.9942   24.1322 H   0  0  0  0  0  0  0  0  0  0  0  0
   19.8645   19.1160   25.9376 C   0  0  2  0  0  0  0  0  0  0  0  0
   20.6870   19.7305   26.3166 H   0  0  0  0  0  0  0  0  0  0  0  0
   19.6559   17.9391   26.9037 C   0  0  0  0  0  0  0  0  0  0  0  0
   19.4152   18.3014   27.9108 H   0  0  0  0  0  0  0  0  0  0  0  0
   18.8366   17.2907   26.5686 H   0  0  0  0  0  0  0  0  0  0  0  0
   20.5653   17.3298   26.9779 H   0  0  0  0  0  0  0  0  0  0  0  0
   18.6448   19.9960   25.9068 N   0  3  0  0  0  0  0  0  0  0  0  0
   18.4149   20.3488   26.8403 H   0  0  0  0  0  0  0  0  0  0  0  0
   17.8269   19.4874   25.5608 H   0  0  0  0  0  0  0  0  0  0  0  0
   18.7852   20.8071   25.2985 H   0  0  0  0  0  0  0  0  0  0  0  0
  1  2  1  0  0  0  0
  1  3  1  0  0  0  0
  1  4  1  0  0  0  0
  1  5  1  0  0  0  0
  5  6  1  0  0  0  0
  5  7  1  0  0  0  0
  5  8  1  0  0  0  0
  8  9  1  0  0  0  0
  8 10  1  0  0  0  0
  8 11  1  0  0  0  0
 11 12  1  0  0  0  0
 11 13  1  0  0  0  0
 11 14  1  0  0  0  0
 14 15  1  0  0  0  0
 14 16  1  0  0  0  0
 14 17  1  0  0  0  0
 17 18  1  0  0  0  0
 17 19  1  0  0  0  0
 17 20  1  0  0  0  0
 20 21  1  0  0  0  0
 20 22  1  0  0  0  0
 22 23  1  0  0  0  0
 22 24  1  0  0  0  0
 22 25  1  0  0  0  0
 20 26  1  0  0  0  0
 26 27  1  0  0  0  0
 26 28  1  0  0  0  0
 26 29  1  0  0  0  0
M  END
> <VM2 Rank>
59

> <Conf_Id>
1591

> <Probability>
0.38

> <Sum Probability>
94.61

> <Delta G>
1.971

> <G>
35.673

> <E>
-2.497

> <-TS>
38.170

> <U+W>
-26.642

> <U>
26.016

> <W>
-52.657

> <W(PB)>
-55.101

> <W(SA)>
2.443

> <Valence>
4.552

> <Coulomb>
20.496

> <VdW>
0.968

> <VdW6>
-10.658

> <VdW12>
11.626

> <Bond>
0.311

> <Angle>
1.812

> <Pdih>
2.429

> <Idih>
0.000

> <Tether>
0.000

$$$$
VeraChem MOL file


 29 28  0  0  0  0  0  0  0  0999 V2000     
   19.0902   19.1741   19.3074 C   0  0  0  0  0  0  0  0  0  0  0  0
   18.8423   18.1376   19.5671 H   0  0  0  0  0  0  0  0  0  0  0  0
   18.1920   19.7892   19.4488 H   0  0  0  0  0  0  0  0  0  0  0  0
   19.3456   19.1937   18.2400 H   0  0  0  0  0  0  0  0  0  0  0  0
   20.2680   19.7074   20.1544 C   0  0  0  0  0  0  0  0  0  0  0  0
   20.5598   20.6945   19.7695 H   0  0  0  0  0  0  0  0  0  0  0  0
   21.1432   19.0557   20.0235 H   0  0  0  0  0  0  0  0  0  0  0  0
   19.9357   19.8420   21.6603 C   0  0  0  0  0  0  0  0  0  0  0  0
   20.7760   20.3529   22.1468 H   0  0  0  0  0  0  0  0  0  0  0  0
   19.0609   20.4947   21.7853 H   0  0  0  0  0  0  0  0  0  0  0  0
   19.6788   18.4823   22.3588 C   0  0  0  0  0  0  0  0  0  0  0  0
   20.5548   17.8306   22.2374 H   0  0  0  0  0  0  0  0  0  0  0  0
   18.8433   17.9716   21.8632 H   0  0  0  0  0  0  0  0  0  0  0  0
   19.3322   18.6124   23.8627 C   0  0  0  0  0  0  0  0  0  0  0  0
   18.4653   19.2765   23.9771 H   0  0  0  0  0  0  0  0  0  0  0  0
   19.0155   17.6244   24.2206 H   0  0  0  0  0  0  0  0  0  0  0  0
   20.5167   19.1217   24.7293 C   0  0  0  0  0  0  0  0  0  0  0  0
   20.8126   20.1241   24.3975 H   0  0  0  0  0  0  0  0  0  0  0  0
   21.3907   18.4776   24.5655 H   0  0  0  0  0  0  0  0  0  0  0  0
   20.2282   19.1923   26.2476 C   0  0  2  0  0  0  0  0  0  0  0  0
   21.1156   19.6175   26.7267 H   0  0  0  0  0  0  0  0  0  0  0  0
   19.9935   17.8006   26.8607 C   0  0  0  0  0  0  0  0  0  0  0  0
   19.9354   17.8689   27.9539 H   0  0  0  0  0  0  0  0  0  0  0  0
   19.0592   17.3512   26.5043 H   0  0  0  0  0  0  0  0  0  0  0  0
   20.8187   17.1213   26.6137 H   0  0  0  0  0  0  0  0  0  0  0  0
   19.0927   20.1231   26.5729 N   0  3  0  0  0  0  0  0  0  0  0  0
   18.9547   20.2060   27.5842 H   0  0  0  0  0  0  0  0  0  0  0  0
   18.2136   19.7902   26.1690 H   0  0  0  0  0  0  0  0  0  0  0  0
   19.2631   21.0648   26.2085 H   0  0  0  0  0  0  0  0  0  0  0  0
  1  2  1  0  0  0  0
  1  3  1  0  0  0  0
  1  4  1  0  0  0  0
  1  5  1  0  0  0  0
  5  6  1  0  0  0  0
  5  7  1  0  0  0  0
  5  8  1  0  0  0  0
  8  9  1  0  0  0  0
  8 10  1  0  0  0  0
  8 11  1  0  0  0  0
 11 12  1  0  0  0  0
 11 13  1  0  0  0  0
 11 14  1  0  0  0  0
 14 15  1  0  0  0  0
 14 16  1  0  0  0  0
 14 17  1  0  0  0  0
 17 18  1  0  0  0  0
 17 19  1  0  0  0  0
 17 20  1  0  0  0  0
 20 21  1  0  0  0  0
 20 22  1  0  0  0  0
 22 23  1  0  0  0  0
 22 24  1  0  0  0  0
 22 25  1  0  0  0  0
 20 26  1  0  0  0  0
 26 27  1  0  0  0  0
 26 28  1  0  0  0  0
 26 29  1  0  0  0  0
M  END
> <VM2 Rank>
60

> <Conf_Id>
513

> <Probability>
0.38

> <Sum Probability>
94.99

> <Delta G>
1.973

> <G>
35.676

> <E>
-1.954

> <-TS>
37.630

> <U+W>
-26.099

> <U>
26.189

> <W>
-52.288

> <W(PB)>
-54.798

> <W(SA)>
2.510

> <Valence>
4.871

> <Coulomb>
19.831

> <VdW>
1.487

> <VdW6>
-9.787

> <VdW12>
11.273

> <Bond>
0.320

> <Angle>
1.789

> <Pdih>
2.762

> <Idih>
0.000

> <Tether>
0.000

$$$$
VeraChem MOL file


 29 28  0  0  0  0  0  0  0  0999 V2000     
   20.2874   18.5948   19.8205 C   0  0  0  0  0  0  0  0  0  0  0  0
   19.9428   18.0308   18.9441 H   0  0  0  0  0  0  0  0  0  0  0  0
   21.1550   19.1940   19.5152 H   0  0  0  0  0  0  0  0  0  0  0  0
   20.6185   17.8673   20.5721 H   0  0  0  0  0  0  0  0  0  0  0  0
   19.1551   19.4945   20.3648 C   0  0  0  0  0  0  0  0  0  0  0  0
   18.3078   18.8727   20.6829 H   0  0  0  0  0  0  0  0  0  0  0  0
   18.7759   20.1202   19.5448 H   0  0  0  0  0  0  0  0  0  0  0  0
   19.6060   20.4209   21.5228 C   0  0  0  0  0  0  0  0  0  0  0  0
   20.3623   21.1206   21.1413 H   0  0  0  0  0  0  0  0  0  0  0  0
   18.7532   21.0405   21.8326 H   0  0  0  0  0  0  0  0  0  0  0  0
   20.1831   19.6986   22.7677 C   0  0  0  0  0  0  0  0  0  0  0  0
   20.4905   20.4668   23.4891 H   0  0  0  0  0  0  0  0  0  0  0  0
   21.0987   19.1574   22.4949 H   0  0  0  0  0  0  0  0  0  0  0  0
   19.1803   18.7264   23.4392 C   0  0  0  0  0  0  0  0  0  0  0  0
   18.2546   19.2610   23.6902 H   0  0  0  0  0  0  0  0  0  0  0  0
   18.8957   17.9438   22.7241 H   0  0  0  0  0  0  0  0  0  0  0  0
   19.7538   18.0330   24.7017 C   0  0  0  0  0  0  0  0  0  0  0  0
   20.6254   17.4324   24.4092 H   0  0  0  0  0  0  0  0  0  0  0  0
   19.0095   17.3242   25.0884 H   0  0  0  0  0  0  0  0  0  0  0  0
   20.1673   19.0036   25.8307 C   0  0  2  0  0  0  0  0  0  0  0  0
   20.9283   19.6849   25.4392 H   0  0  0  0  0  0  0  0  0  0  0  0
   20.7809   18.2264   27.0059 C   0  0  0  0  0  0  0  0  0  0  0  0
   20.0552   17.5292   27.4432 H   0  0  0  0  0  0  0  0  0  0  0  0
   21.6543   17.6492   26.6775 H   0  0  0  0  0  0  0  0  0  0  0  0
   21.1130   18.9131   27.7943 H   0  0  0  0  0  0  0  0  0  0  0  0
   19.0220   19.8577   26.3006 N   0  3  0  0  0  0  0  0  0  0  0  0
   19.3175   20.5131   27.0297 H   0  0  0  0  0  0  0  0  0  0  0  0
   18.2663   19.2867   26.6882 H   0  0  0  0  0  0  0  0  0  0  0  0
   18.6304   20.4081   25.5314 H   0  0  0  0  0  0  0  0  0  0  0  0
  1  2  1  0  0  0  0
  1  3  1  0  0  0  0
  1  4  1  0  0  0  0
  1  5  1  0  0  0  0
  5  6  1  0  0  0  0
  5  7  1  0  0  0  0
  5  8  1  0  0  0  0
  8  9  1  0  0  0  0
  8 10  1  0  0  0  0
  8 11  1  0  0  0  0
 11 12  1  0  0  0  0
 11 13  1  0  0  0  0
 11 14  1  0  0  0  0
 14 15  1  0  0  0  0
 14 16  1  0  0  0  0
 14 17  1  0  0  0  0
 17 18  1  0  0  0  0
 17 19  1  0  0  0  0
 17 20  1  0  0  0  0
 20 21  1  0  0  0  0
 20 22  1  0  0  0  0
 22 23  1  0  0  0  0
 22 24  1  0  0  0  0
 22 25  1  0  0  0  0
 20 26  1  0  0  0  0
 26 27  1  0  0  0  0
 26 28  1  0  0  0  0
 26 29  1  0  0  0  0
M  END
> <VM2 Rank>
61

> <Conf_Id>
1630

> <Probability>
0.37

> <Sum Probability>
95.36

> <Delta G>
1.987

> <G>
35.690

> <E>
-2.306

> <-TS>
37.996

> <U+W>
-26.451

> <U>
25.812

> <W>
-52.263

> <W(PB)>
-54.731

> <W(SA)>
2.468

> <Valence>
4.469

> <Coulomb>
20.263

> <VdW>
1.081

> <VdW6>
-10.395

> <VdW12>
11.476

> <Bond>
0.305

> <Angle>
1.805

> <Pdih>
2.359

> <Idih>
0.000

> <Tether>
0.000

$$$$
VeraChem MOL file


 29 28  0  0  0  0  0  0  0  0999 V2000     
   21.1732   20.0434   20.7710 C   0  0  0  0  0  0  0  0  0  0  0  0
   21.4403   20.0994   21.8333 H   0  0  0  0  0  0  0  0  0  0  0  0
   22.0954   19.8497   20.2081 H   0  0  0  0  0  0  0  0  0  0  0  0
   20.7893   21.0237   20.4602 H   0  0  0  0  0  0  0  0  0  0  0  0
   20.1337   18.9311   20.5061 C   0  0  0  0  0  0  0  0  0  0  0  0
   20.5316   17.9641   20.8418 H   0  0  0  0  0  0  0  0  0  0  0  0
   19.9877   18.8352   19.4212 H   0  0  0  0  0  0  0  0  0  0  0  0
   18.7579   19.2033   21.1661 C   0  0  0  0  0  0  0  0  0  0  0  0
   18.3291   20.1156   20.7291 H   0  0  0  0  0  0  0  0  0  0  0  0
   18.0696   18.3899   20.8983 H   0  0  0  0  0  0  0  0  0  0  0  0
   18.7832   19.3551   22.7087 C   0  0  0  0  0  0  0  0  0  0  0  0
   17.7611   19.5661   23.0518 H   0  0  0  0  0  0  0  0  0  0  0  0
   19.3819   20.2334   22.9814 H   0  0  0  0  0  0  0  0  0  0  0  0
   19.3115   18.0969   23.4425 C   0  0  0  0  0  0  0  0  0  0  0  0
   18.7570   17.2164   23.0901 H   0  0  0  0  0  0  0  0  0  0  0  0
   20.3620   17.9184   23.1810 H   0  0  0  0  0  0  0  0  0  0  0  0
   19.1649   18.1865   24.9833 C   0  0  0  0  0  0  0  0  0  0  0  0
   19.5425   17.2587   25.4331 H   0  0  0  0  0  0  0  0  0  0  0  0
   18.0953   18.2297   25.2275 H   0  0  0  0  0  0  0  0  0  0  0  0
   19.8724   19.3965   25.6377 C   0  0  2  0  0  0  0  0  0  0  0  0
   19.4887   20.3116   25.1771 H   0  0  0  0  0  0  0  0  0  0  0  0
   21.3977   19.3524   25.4376 C   0  0  0  0  0  0  0  0  0  0  0  0
   21.6621   19.4214   24.3763 H   0  0  0  0  0  0  0  0  0  0  0  0
   21.8790   20.1958   25.9479 H   0  0  0  0  0  0  0  0  0  0  0  0
   21.8235   18.4241   25.8384 H   0  0  0  0  0  0  0  0  0  0  0  0
   19.5415   19.4909   27.1011 N   0  3  0  0  0  0  0  0  0  0  0  0
   19.9759   20.3127   27.5307 H   0  0  0  0  0  0  0  0  0  0  0  0
   19.8720   18.6683   27.6128 H   0  0  0  0  0  0  0  0  0  0  0  0
   18.5317   19.5641   27.2555 H   0  0  0  0  0  0  0  0  0  0  0  0
  1  2  1  0  0  0  0
  1  3  1  0  0  0  0
  1  4  1  0  0  0  0
  1  5  1  0  0  0  0
  5  6  1  0  0  0  0
  5  7  1  0  0  0  0
  5  8  1  0  0  0  0
  8  9  1  0  0  0  0
  8 10  1  0  0  0  0
  8 11  1  0  0  0  0
 11 12  1  0  0  0  0
 11 13  1  0  0  0  0
 11 14  1  0  0  0  0
 14 15  1  0  0  0  0
 14 16  1  0  0  0  0
 14 17  1  0  0  0  0
 17 18  1  0  0  0  0
 17 19  1  0  0  0  0
 17 20  1  0  0  0  0
 20 21  1  0  0  0  0
 20 22  1  0  0  0  0
 22 23  1  0  0  0  0
 22 24  1  0  0  0  0
 22 25  1  0  0  0  0
 20 26  1  0  0  0  0
 26 27  1  0  0  0  0
 26 28  1  0  0  0  0
 26 29  1  0  0  0  0
M  END
> <VM2 Rank>
62

> <Conf_Id>
1329

> <Probability>
0.36

> <Sum Probability>
95.72

> <Delta G>
2.005

> <G>
35.707

> <E>
-2.506

> <-TS>
38.213

> <U+W>
-26.650

> <U>
25.905

> <W>
-52.555

> <W(PB)>
-54.967

> <W(SA)>
2.413

> <Valence>
4.893

> <Coulomb>
20.129

> <VdW>
0.883

> <VdW6>
-10.963

> <VdW12>
11.846

> <Bond>
0.307

> <Angle>
2.002

> <Pdih>
2.583

> <Idih>
0.000

> <Tether>
0.000

$$$$
VeraChem MOL file


 29 28  0  0  0  0  0  0  0  0999 V2000     
   20.3682   20.7351   20.6179 C   0  0  0  0  0  0  0  0  0  0  0  0
   19.9153   21.4743   21.2914 H   0  0  0  0  0  0  0  0  0  0  0  0
   21.3521   20.4615   21.0187 H   0  0  0  0  0  0  0  0  0  0  0  0
   20.5310   21.2208   19.6471 H   0  0  0  0  0  0  0  0  0  0  0  0
   19.4565   19.4976   20.4572 C   0  0  0  0  0  0  0  0  0  0  0  0
   19.9438   18.7614   19.8028 H   0  0  0  0  0  0  0  0  0  0  0  0
   18.5335   19.8017   19.9442 H   0  0  0  0  0  0  0  0  0  0  0  0
   19.0810   18.8346   21.8040 C   0  0  0  0  0  0  0  0  0  0  0  0
   18.5753   19.5744   22.4383 H   0  0  0  0  0  0  0  0  0  0  0  0
   18.3491   18.0383   21.6105 H   0  0  0  0  0  0  0  0  0  0  0  0
   20.2973   18.2324   22.5513 C   0  0  0  0  0  0  0  0  0  0  0  0
   20.9989   19.0277   22.8324 H   0  0  0  0  0  0  0  0  0  0  0  0
   20.8460   17.5709   21.8669 H   0  0  0  0  0  0  0  0  0  0  0  0
   19.9041   17.4177   23.8103 C   0  0  0  0  0  0  0  0  0  0  0  0
   19.2935   16.5573   23.5040 H   0  0  0  0  0  0  0  0  0  0  0  0
   20.8123   16.9903   24.2557 H   0  0  0  0  0  0  0  0  0  0  0  0
   19.1281   18.2208   24.8888 C   0  0  0  0  0  0  0  0  0  0  0  0
   18.9613   17.5760   25.7617 H   0  0  0  0  0  0  0  0  0  0  0  0
   18.1301   18.4603   24.5003 H   0  0  0  0  0  0  0  0  0  0  0  0
   19.8142   19.5298   25.3443 C   0  0  2  0  0  0  0  0  0  0  0  0
   19.9870   20.1530   24.4618 H   0  0  0  0  0  0  0  0  0  0  0  0
   21.1677   19.2634   26.0265 C   0  0  0  0  0  0  0  0  0  0  0  0
   21.0506   18.6040   26.8954 H   0  0  0  0  0  0  0  0  0  0  0  0
   21.8769   18.7953   25.3339 H   0  0  0  0  0  0  0  0  0  0  0  0
   21.6190   20.2024   26.3698 H   0  0  0  0  0  0  0  0  0  0  0  0
   18.9190   20.3246   26.2537 N   0  3  0  0  0  0  0  0  0  0  0  0
   18.7085   19.8103   27.1133 H   0  0  0  0  0  0  0  0  0  0  0  0
   18.0272   20.5495   25.8034 H   0  0  0  0  0  0  0  0  0  0  0  0
   19.3547   21.2102   26.5268 H   0  0  0  0  0  0  0  0  0  0  0  0
  1  2  1  0  0  0  0
  1  3  1  0  0  0  0
  1  4  1  0  0  0  0
  1  5  1  0  0  0  0
  5  6  1  0  0  0  0
  5  7  1  0  0  0  0
  5  8  1  0  0  0  0
  8  9  1  0  0  0  0
  8 10  1  0  0  0  0
  8 11  1  0  0  0  0
 11 12  1  0  0  0  0
 11 13  1  0  0  0  0
 11 14  1  0  0  0  0
 14 15  1  0  0  0  0
 14 16  1  0  0  0  0
 14 17  1  0  0  0  0
 17 18  1  0  0  0  0
 17 19  1  0  0  0  0
 17 20  1  0  0  0  0
 20 21  1  0  0  0  0
 20 22  1  0  0  0  0
 22 23  1  0  0  0  0
 22 24  1  0  0  0  0
 22 25  1  0  0  0  0
 20 26  1  0  0  0  0
 26 27  1  0  0  0  0
 26 28  1  0  0  0  0
 26 29  1  0  0  0  0
M  END
> <VM2 Rank>
63

> <Conf_Id>
295

> <Probability>
0.34

> <Sum Probability>
96.07

> <Delta G>
2.030

> <G>
35.733

> <E>
-2.375

> <-TS>
38.107

> <U+W>
-26.519

> <U>
26.273

> <W>
-52.792

> <W(PB)>
-55.208

> <W(SA)>
2.416

> <Valence>
4.866

> <Coulomb>
20.504

> <VdW>
0.903

> <VdW6>
-10.948

> <VdW12>
11.851

> <Bond>
0.308

> <Angle>
1.874

> <Pdih>
2.684

> <Idih>
0.000

> <Tether>
0.000

$$$$
VeraChem MOL file


 29 28  0  0  0  0  0  0  0  0999 V2000     
   19.3223   20.6437   19.9375 C   0  0  0  0  0  0  0  0  0  0  0  0
   19.6595   20.1718   19.0054 H   0  0  0  0  0  0  0  0  0  0  0  0
   18.3878   21.1791   19.7251 H   0  0  0  0  0  0  0  0  0  0  0  0
   20.0748   21.3847   20.2375 H   0  0  0  0  0  0  0  0  0  0  0  0
   19.1076   19.5919   21.0462 C   0  0  0  0  0  0  0  0  0  0  0  0
   18.3299   18.8826   20.7307 H   0  0  0  0  0  0  0  0  0  0  0  0
   18.7337   20.0960   21.9472 H   0  0  0  0  0  0  0  0  0  0  0  0
   20.4131   18.8267   21.3666 C   0  0  0  0  0  0  0  0  0  0  0  0
   20.8104   18.3955   20.4374 H   0  0  0  0  0  0  0  0  0  0  0  0
   21.1783   19.5295   21.7215 H   0  0  0  0  0  0  0  0  0  0  0  0
   20.2261   17.6799   22.3935 C   0  0  0  0  0  0  0  0  0  0  0  0
   21.1925   17.1788   22.5421 H   0  0  0  0  0  0  0  0  0  0  0  0
   19.5593   16.9218   21.9601 H   0  0  0  0  0  0  0  0  0  0  0  0
   19.6627   18.1046   23.7746 C   0  0  0  0  0  0  0  0  0  0  0  0
   18.6450   18.4960   23.6527 H   0  0  0  0  0  0  0  0  0  0  0  0
   19.5677   17.2000   24.3887 H   0  0  0  0  0  0  0  0  0  0  0  0
   20.5531   19.1421   24.5114 C   0  0  0  0  0  0  0  0  0  0  0  0
   20.6244   20.0569   23.9105 H   0  0  0  0  0  0  0  0  0  0  0  0
   21.5759   18.7511   24.5922 H   0  0  0  0  0  0  0  0  0  0  0  0
   20.0582   19.5391   25.9223 C   0  0  2  0  0  0  0  0  0  0  0  0
   20.7400   20.3070   26.3008 H   0  0  0  0  0  0  0  0  0  0  0  0
   20.0994   18.3575   26.9070 C   0  0  0  0  0  0  0  0  0  0  0  0
   19.8820   18.7006   27.9259 H   0  0  0  0  0  0  0  0  0  0  0  0
   19.3625   17.5876   26.6498 H   0  0  0  0  0  0  0  0  0  0  0  0
   21.0933   17.8932   26.9177 H   0  0  0  0  0  0  0  0  0  0  0  0
   18.6935   20.1705   25.8949 N   0  3  0  0  0  0  0  0  0  0  0  0
   17.9867   19.5105   25.5612 H   0  0  0  0  0  0  0  0  0  0  0  0
   18.6703   20.9875   25.2780 H   0  0  0  0  0  0  0  0  0  0  0  0
   18.4072   20.4822   26.8274 H   0  0  0  0  0  0  0  0  0  0  0  0
  1  2  1  0  0  0  0
  1  3  1  0  0  0  0
  1  4  1  0  0  0  0
  1  5  1  0  0  0  0
  5  6  1  0  0  0  0
  5  7  1  0  0  0  0
  5  8  1  0  0  0  0
  8  9  1  0  0  0  0
  8 10  1  0  0  0  0
  8 11  1  0  0  0  0
 11 12  1  0  0  0  0
 11 13  1  0  0  0  0
 11 14  1  0  0  0  0
 14 15  1  0  0  0  0
 14 16  1  0  0  0  0
 14 17  1  0  0  0  0
 17 18  1  0  0  0  0
 17 19  1  0  0  0  0
 17 20  1  0  0  0  0
 20 21  1  0  0  0  0
 20 22  1  0  0  0  0
 22 23  1  0  0  0  0
 22 24  1  0  0  0  0
 22 25  1  0  0  0  0
 20 26  1  0  0  0  0
 26 27  1  0  0  0  0
 26 28  1  0  0  0  0
 26 29  1  0  0  0  0
M  END
> <VM2 Rank>
64

> <Conf_Id>
702

> <Probability>
0.33

> <Sum Probability>
96.40

> <Delta G>
2.053

> <G>
35.755

> <E>
-2.206

> <-TS>
37.961

> <U+W>
-26.351

> <U>
26.386

> <W>
-52.736

> <W(PB)>
-55.181

> <W(SA)>
2.445

> <Valence>
4.726

> <Coulomb>
20.483

> <VdW>
1.177

> <VdW6>
-10.349

> <VdW12>
11.526

> <Bond>
0.319

> <Angle>
1.933

> <Pdih>
2.474

> <Idih>
0.000

> <Tether>
0.000

$$$$
VeraChem MOL file


 29 28  0  0  0  0  0  0  0  0999 V2000     
   20.2373   19.5315   19.5741 C   0  0  0  0  0  0  0  0  0  0  0  0
   21.1316   18.9494   19.8283 H   0  0  0  0  0  0  0  0  0  0  0  0
   19.4828   18.8449   19.1689 H   0  0  0  0  0  0  0  0  0  0  0  0
   20.5164   20.2320   18.7764 H   0  0  0  0  0  0  0  0  0  0  0  0
   19.6900   20.2984   20.7993 C   0  0  0  0  0  0  0  0  0  0  0  0
   18.8796   20.9619   20.4664 H   0  0  0  0  0  0  0  0  0  0  0  0
   20.4737   20.9516   21.2076 H   0  0  0  0  0  0  0  0  0  0  0  0
   19.1455   19.3734   21.9146 C   0  0  0  0  0  0  0  0  0  0  0  0
   18.6634   20.0047   22.6719 H   0  0  0  0  0  0  0  0  0  0  0  0
   18.3590   18.7260   21.5032 H   0  0  0  0  0  0  0  0  0  0  0  0
   20.2405   18.5051   22.5843 C   0  0  0  0  0  0  0  0  0  0  0  0
   21.0326   19.1516   22.9845 H   0  0  0  0  0  0  0  0  0  0  0  0
   20.7198   17.8732   21.8256 H   0  0  0  0  0  0  0  0  0  0  0  0
   19.6975   17.5767   23.7015 C   0  0  0  0  0  0  0  0  0  0  0  0
   18.9772   16.8727   23.2625 H   0  0  0  0  0  0  0  0  0  0  0  0
   20.5216   16.9567   24.0787 H   0  0  0  0  0  0  0  0  0  0  0  0
   19.0182   18.3078   24.8908 C   0  0  0  0  0  0  0  0  0  0  0  0
   18.7430   17.5668   25.6530 H   0  0  0  0  0  0  0  0  0  0  0  0
   18.0722   18.7432   24.5452 H   0  0  0  0  0  0  0  0  0  0  0  0
   19.8716   19.4192   25.5449 C   0  0  2  0  0  0  0  0  0  0  0  0
   20.1505   20.1399   24.7704 H   0  0  0  0  0  0  0  0  0  0  0  0
   21.1582   18.8600   26.1777 C   0  0  0  0  0  0  0  0  0  0  0  0
   21.8094   18.4074   25.4209 H   0  0  0  0  0  0  0  0  0  0  0  0
   21.7299   19.6605   26.6629 H   0  0  0  0  0  0  0  0  0  0  0  0
   20.9295   18.0984   26.9335 H   0  0  0  0  0  0  0  0  0  0  0  0
   19.0772   20.1839   26.5668 N   0  3  0  0  0  0  0  0  0  0  0  0
   19.6273   20.9453   26.9747 H   0  0  0  0  0  0  0  0  0  0  0  0
   18.7769   19.5787   27.3357 H   0  0  0  0  0  0  0  0  0  0  0  0
   18.2365   20.6008   26.1568 H   0  0  0  0  0  0  0  0  0  0  0  0
  1  2  1  0  0  0  0
  1  3  1  0  0  0  0
  1  4  1  0  0  0  0
  1  5  1  0  0  0  0
  5  6  1  0  0  0  0
  5  7  1  0  0  0  0
  5  8  1  0  0  0  0
  8  9  1  0  0  0  0
  8 10  1  0  0  0  0
  8 11  1  0  0  0  0
 11 12  1  0  0  0  0
 11 13  1  0  0  0  0
 11 14  1  0  0  0  0
 14 15  1  0  0  0  0
 14 16  1  0  0  0  0
 14 17  1  0  0  0  0
 17 18  1  0  0  0  0
 17 19  1  0  0  0  0
 17 20  1  0  0  0  0
 20 21  1  0  0  0  0
 20 22  1  0  0  0  0
 22 23  1  0  0  0  0
 22 24  1  0  0  0  0
 22 25  1  0  0  0  0
 20 26  1  0  0  0  0
 26 27  1  0  0  0  0
 26 28  1  0  0  0  0
 26 29  1  0  0  0  0
M  END
> <VM2 Rank>
65

> <Conf_Id>
1568

> <Probability>
0.27

> <Sum Probability>
96.67

> <Delta G>
2.167

> <G>
35.869

> <E>
-2.192

> <-TS>
38.061

> <U+W>
-26.337

> <U>
26.391

> <W>
-52.728

> <W(PB)>
-55.165

> <W(SA)>
2.436

> <Valence>
4.975

> <Coulomb>
20.373

> <VdW>
1.044

> <VdW6>
-10.752

> <VdW12>
11.795

> <Bond>
0.316

> <Angle>
1.996

> <Pdih>
2.662

> <Idih>
0.000

> <Tether>
0.000

$$$$
VeraChem MOL file


 29 28  0  0  0  0  0  0  0  0999 V2000     
   18.9464   20.2665   19.9134 C   0  0  0  0  0  0  0  0  0  0  0  0
   19.7811   20.7591   19.3978 H   0  0  0  0  0  0  0  0  0  0  0  0
   18.2598   19.8795   19.1494 H   0  0  0  0  0  0  0  0  0  0  0  0
   18.4088   21.0254   20.4967 H   0  0  0  0  0  0  0  0  0  0  0  0
   19.4508   19.1248   20.8210 C   0  0  0  0  0  0  0  0  0  0  0  0
   19.9573   18.3671   20.2070 H   0  0  0  0  0  0  0  0  0  0  0  0
   18.5874   18.6319   21.2871 H   0  0  0  0  0  0  0  0  0  0  0  0
   20.4187   19.6468   21.9086 C   0  0  0  0  0  0  0  0  0  0  0  0
   21.2397   20.1917   21.4227 H   0  0  0  0  0  0  0  0  0  0  0  0
   19.9036   20.3805   22.5424 H   0  0  0  0  0  0  0  0  0  0  0  0
   21.0301   18.5228   22.7842 C   0  0  0  0  0  0  0  0  0  0  0  0
   21.7484   18.9706   23.4839 H   0  0  0  0  0  0  0  0  0  0  0  0
   21.6211   17.8547   22.1428 H   0  0  0  0  0  0  0  0  0  0  0  0
   20.0037   17.6697   23.5772 C   0  0  0  0  0  0  0  0  0  0  0  0
   19.3939   17.0857   22.8752 H   0  0  0  0  0  0  0  0  0  0  0  0
   20.5482   16.9249   24.1725 H   0  0  0  0  0  0  0  0  0  0  0  0
   19.0611   18.4825   24.5047 C   0  0  0  0  0  0  0  0  0  0  0  0
   18.4180   17.7858   25.0584 H   0  0  0  0  0  0  0  0  0  0  0  0
   18.3851   19.0823   23.8822 H   0  0  0  0  0  0  0  0  0  0  0  0
   19.7813   19.4172   25.5042 C   0  0  2  0  0  0  0  0  0  0  0  0
   20.4334   20.0893   24.9386 H   0  0  0  0  0  0  0  0  0  0  0  0
   20.6435   18.6322   26.5086 C   0  0  0  0  0  0  0  0  0  0  0  0
   21.1152   19.3128   27.2280 H   0  0  0  0  0  0  0  0  0  0  0  0
   20.0389   17.9091   27.0699 H   0  0  0  0  0  0  0  0  0  0  0  0
   21.4477   18.0866   26.0014 H   0  0  0  0  0  0  0  0  0  0  0  0
   18.8003   20.2935   26.2320 N   0  3  0  0  0  0  0  0  0  0  0  0
   19.2765   20.9407   26.8669 H   0  0  0  0  0  0  0  0  0  0  0  0
   18.1493   19.7385   26.7940 H   0  0  0  0  0  0  0  0  0  0  0  0
   18.2437   20.8570   25.5829 H   0  0  0  0  0  0  0  0  0  0  0  0
  1  2  1  0  0  0  0
  1  3  1  0  0  0  0
  1  4  1  0  0  0  0
  1  5  1  0  0  0  0
  5  6  1  0  0  0  0
  5  7  1  0  0  0  0
  5  8  1  0  0  0  0
  8  9  1  0  0  0  0
  8 10  1  0  0  0  0
  8 11  1  0  0  0  0
 11 12  1  0  0  0  0
 11 13  1  0  0  0  0
 11 14  1  0  0  0  0
 14 15  1  0  0  0  0
 14 16  1  0  0  0  0
 14 17  1  0  0  0  0
 17 18  1  0  0  0  0
 17 19  1  0  0  0  0
 17 20  1  0  0  0  0
 20 21  1  0  0  0  0
 20 22  1  0  0  0  0
 22 23  1  0  0  0  0
 22 24  1  0  0  0  0
 22 25  1  0  0  0  0
 20 26  1  0  0  0  0
 26 27  1  0  0  0  0
 26 28  1  0  0  0  0
 26 29  1  0  0  0  0
M  END
> <VM2 Rank>
66

> <Conf_Id>
574

> <Probability>
0.27

> <Sum Probability>
96.94

> <Delta G>
2.176

> <G>
35.879

> <E>
-2.424

> <-TS>
38.303

> <U+W>
-26.569

> <U>
26.205

> <W>
-52.774

> <W(PB)>
-55.195

> <W(SA)>
2.421

> <Valence>
4.871

> <Coulomb>
20.548

> <VdW>
0.786

> <VdW6>
-11.159

> <VdW12>
11.944

> <Bond>
0.316

> <Angle>
2.038

> <Pdih>
2.517

> <Idih>
0.000

> <Tether>
0.000

$$$$
VeraChem MOL file


 29 28  0  0  0  0  0  0  0  0999 V2000     
   20.1699   18.1867   20.0847 C   0  0  0  0  0  0  0  0  0  0  0  0
   20.2332   18.8583   19.2187 H   0  0  0  0  0  0  0  0  0  0  0  0
   21.1421   18.1890   20.5931 H   0  0  0  0  0  0  0  0  0  0  0  0
   19.9946   17.1701   19.7098 H   0  0  0  0  0  0  0  0  0  0  0  0
   19.0319   18.6164   21.0377 C   0  0  0  0  0  0  0  0  0  0  0  0
   18.9958   17.9386   21.9011 H   0  0  0  0  0  0  0  0  0  0  0  0
   18.0710   18.4944   20.5188 H   0  0  0  0  0  0  0  0  0  0  0  0
   19.1526   20.0859   21.5148 C   0  0  0  0  0  0  0  0  0  0  0  0
   19.0830   20.7485   20.6412 H   0  0  0  0  0  0  0  0  0  0  0  0
   18.2829   20.3305   22.1389 H   0  0  0  0  0  0  0  0  0  0  0  0
   20.4548   20.4243   22.2894 C   0  0  0  0  0  0  0  0  0  0  0  0
   20.4167   21.4785   22.5963 H   0  0  0  0  0  0  0  0  0  0  0  0
   21.3126   20.3474   21.6081 H   0  0  0  0  0  0  0  0  0  0  0  0
   20.7255   19.5467   23.5383 C   0  0  0  0  0  0  0  0  0  0  0  0
   20.8772   18.5060   23.2260 H   0  0  0  0  0  0  0  0  0  0  0  0
   21.6728   19.8702   23.9913 H   0  0  0  0  0  0  0  0  0  0  0  0
   19.6021   19.6318   24.6032 C   0  0  0  0  0  0  0  0  0  0  0  0
   18.6722   19.2068   24.2047 H   0  0  0  0  0  0  0  0  0  0  0  0
   19.3985   20.6903   24.8119 H   0  0  0  0  0  0  0  0  0  0  0  0
   19.9556   18.9279   25.9328 C   0  0  2  0  0  0  0  0  0  0  0  0
   20.9060   19.3330   26.2938 H   0  0  0  0  0  0  0  0  0  0  0  0
   20.1085   17.4062   25.7586 C   0  0  0  0  0  0  0  0  0  0  0  0
   19.1976   16.9613   25.3390 H   0  0  0  0  0  0  0  0  0  0  0  0
   20.9468   17.1628   25.0957 H   0  0  0  0  0  0  0  0  0  0  0  0
   20.3084   16.9251   26.7240 H   0  0  0  0  0  0  0  0  0  0  0  0
   18.9351   19.2301   26.9946 N   0  3  0  0  0  0  0  0  0  0  0  0
   18.8478   20.2374   27.1576 H   0  0  0  0  0  0  0  0  0  0  0  0
   19.1862   18.7977   27.8882 H   0  0  0  0  0  0  0  0  0  0  0  0
   18.0095   18.8789   26.7346 H   0  0  0  0  0  0  0  0  0  0  0  0
  1  2  1  0  0  0  0
  1  3  1  0  0  0  0
  1  4  1  0  0  0  0
  1  5  1  0  0  0  0
  5  6  1  0  0  0  0
  5  7  1  0  0  0  0
  5  8  1  0  0  0  0
  8  9  1  0  0  0  0
  8 10  1  0  0  0  0
  8 11  1  0  0  0  0
 11 12  1  0  0  0  0
 11 13  1  0  0  0  0
 11 14  1  0  0  0  0
 14 15  1  0  0  0  0
 14 16  1  0  0  0  0
 14 17  1  0  0  0  0
 17 18  1  0  0  0  0
 17 19  1  0  0  0  0
 17 20  1  0  0  0  0
 20 21  1  0  0  0  0
 20 22  1  0  0  0  0
 22 23  1  0  0  0  0
 22 24  1  0  0  0  0
 22 25  1  0  0  0  0
 20 26  1  0  0  0  0
 26 27  1  0  0  0  0
 26 28  1  0  0  0  0
 26 29  1  0  0  0  0
M  END
> <VM2 Rank>
67

> <Conf_Id>
2

> <Probability>
0.27

> <Sum Probability>
97.21

> <Delta G>
2.186

> <G>
35.888

> <E>
-2.306

> <-TS>
38.195

> <U+W>
-26.451

> <U>
26.060

> <W>
-52.511

> <W(PB)>
-54.927

> <W(SA)>
2.416

> <Valence>
5.062

> <Coulomb>
19.918

> <VdW>
1.080

> <VdW6>
-10.856

> <VdW12>
11.937

> <Bond>
0.323

> <Angle>
2.057

> <Pdih>
2.682

> <Idih>
0.000

> <Tether>
0.000

$$$$
VeraChem MOL file


 29 28  0  0  0  0  0  0  0  0999 V2000     
   18.9082   19.8321   19.9306 C   0  0  0  0  0  0  0  0  0  0  0  0
   18.2210   20.0216   20.7646 H   0  0  0  0  0  0  0  0  0  0  0  0
   19.3901   20.7802   19.6588 H   0  0  0  0  0  0  0  0  0  0  0  0
   18.3058   19.5032   19.0741 H   0  0  0  0  0  0  0  0  0  0  0  0
   19.9594   18.7602   20.2966 C   0  0  0  0  0  0  0  0  0  0  0  0
   20.5445   18.5179   19.3985 H   0  0  0  0  0  0  0  0  0  0  0  0
   19.4543   17.8287   20.5849 H   0  0  0  0  0  0  0  0  0  0  0  0
   20.9357   19.2096   21.4136 C   0  0  0  0  0  0  0  0  0  0  0  0
   21.6604   18.4041   21.5952 H   0  0  0  0  0  0  0  0  0  0  0  0
   21.5218   20.0638   21.0476 H   0  0  0  0  0  0  0  0  0  0  0  0
   20.2730   19.6039   22.7589 C   0  0  0  0  0  0  0  0  0  0  0  0
   19.6225   20.4766   22.6142 H   0  0  0  0  0  0  0  0  0  0  0  0
   21.0684   19.9293   23.4420 H   0  0  0  0  0  0  0  0  0  0  0  0
   19.4684   18.4525   23.4133 C   0  0  0  0  0  0  0  0  0  0  0  0
   18.6603   18.1416   22.7387 H   0  0  0  0  0  0  0  0  0  0  0  0
   20.1125   17.5726   23.5400 H   0  0  0  0  0  0  0  0  0  0  0  0
   18.8301   18.8471   24.7705 C   0  0  0  0  0  0  0  0  0  0  0  0
   18.2562   17.9937   25.1552 H   0  0  0  0  0  0  0  0  0  0  0  0
   18.1006   19.6476   24.5900 H   0  0  0  0  0  0  0  0  0  0  0  0
   19.8263   19.3202   25.8555 C   0  0  2  0  0  0  0  0  0  0  0  0
   20.3819   20.1778   25.4651 H   0  0  0  0  0  0  0  0  0  0  0  0
   20.8329   18.2202   26.2365 C   0  0  0  0  0  0  0  0  0  0  0  0
   21.4693   17.9517   25.3852 H   0  0  0  0  0  0  0  0  0  0  0  0
   21.4948   18.5636   27.0410 H   0  0  0  0  0  0  0  0  0  0  0  0
   20.3190   17.3144   26.5815 H   0  0  0  0  0  0  0  0  0  0  0  0
   19.1020   19.8101   27.0784 N   0  3  0  0  0  0  0  0  0  0  0  0
   18.5552   19.0622   27.5137 H   0  0  0  0  0  0  0  0  0  0  0  0
   18.4564   20.5728   26.8541 H   0  0  0  0  0  0  0  0  0  0  0  0
   19.7552   20.1615   27.7844 H   0  0  0  0  0  0  0  0  0  0  0  0
  1  2  1  0  0  0  0
  1  3  1  0  0  0  0
  1  4  1  0  0  0  0
  1  5  1  0  0  0  0
  5  6  1  0  0  0  0
  5  7  1  0  0  0  0
  5  8  1  0  0  0  0
  8  9  1  0  0  0  0
  8 10  1  0  0  0  0
  8 11  1  0  0  0  0
 11 12  1  0  0  0  0
 11 13  1  0  0  0  0
 11 14  1  0  0  0  0
 14 15  1  0  0  0  0
 14 16  1  0  0  0  0
 14 17  1  0  0  0  0
 17 18  1  0  0  0  0
 17 19  1  0  0  0  0
 17 20  1  0  0  0  0
 20 21  1  0  0  0  0
 20 22  1  0  0  0  0
 22 23  1  0  0  0  0
 22 24  1  0  0  0  0
 22 25  1  0  0  0  0
 20 26  1  0  0  0  0
 26 27  1  0  0  0  0
 26 28  1  0  0  0  0
 26 29  1  0  0  0  0
M  END
> <VM2 Rank>
68

> <Conf_Id>
320

> <Probability>
0.25

> <Sum Probability>
97.45

> <Delta G>
2.233

> <G>
35.935

> <E>
-2.151

> <-TS>
38.086

> <U+W>
-26.296

> <U>
26.049

> <W>
-52.345

> <W(PB)>
-54.781

> <W(SA)>
2.436

> <Valence>
4.964

> <Coulomb>
19.934

> <VdW>
1.150

> <VdW6>
-10.616

> <VdW12>
11.766

> <Bond>
0.316

> <Angle>
2.146

> <Pdih>
2.502

> <Idih>
0.000

> <Tether>
0.000

$$$$
VeraChem MOL file


 29 28  0  0  0  0  0  0  0  0999 V2000     
   18.9680   18.3294   20.1953 C   0  0  0  0  0  0  0  0  0  0  0  0
   18.1017   18.5153   20.8423 H   0  0  0  0  0  0  0  0  0  0  0  0
   18.9185   19.0239   19.3467 H   0  0  0  0  0  0  0  0  0  0  0  0
   18.8741   17.3094   19.8010 H   0  0  0  0  0  0  0  0  0  0  0  0
   20.2964   18.4914   20.9678 C   0  0  0  0  0  0  0  0  0  0  0  0
   21.1258   18.1920   20.3120 H   0  0  0  0  0  0  0  0  0  0  0  0
   20.3184   17.7960   21.8174 H   0  0  0  0  0  0  0  0  0  0  0  0
   20.5503   19.9406   21.4550 C   0  0  0  0  0  0  0  0  0  0  0  0
   21.5333   19.9860   21.9422 H   0  0  0  0  0  0  0  0  0  0  0  0
   20.6261   20.6000   20.5795 H   0  0  0  0  0  0  0  0  0  0  0  0
   19.4719   20.5142   22.4135 C   0  0  0  0  0  0  0  0  0  0  0  0
   18.5291   20.6380   21.8643 H   0  0  0  0  0  0  0  0  0  0  0  0
   19.7724   21.5273   22.7137 H   0  0  0  0  0  0  0  0  0  0  0  0
   19.2029   19.6719   23.6870 C   0  0  0  0  0  0  0  0  0  0  0  0
   18.4102   20.1685   24.2613 H   0  0  0  0  0  0  0  0  0  0  0  0
   18.8011   18.6927   23.3981 H   0  0  0  0  0  0  0  0  0  0  0  0
   20.4593   19.4952   24.5824 C   0  0  0  0  0  0  0  0  0  0  0  0
   20.8908   20.4815   24.7969 H   0  0  0  0  0  0  0  0  0  0  0  0
   21.2295   18.9399   24.0327 H   0  0  0  0  0  0  0  0  0  0  0  0
   20.2034   18.7687   25.9237 C   0  0  2  0  0  0  0  0  0  0  0  0
   21.1571   18.7292   26.4591 H   0  0  0  0  0  0  0  0  0  0  0  0
   19.7271   17.3208   25.7139 C   0  0  0  0  0  0  0  0  0  0  0  0
   18.7273   17.2837   25.2652 H   0  0  0  0  0  0  0  0  0  0  0  0
   20.4180   16.7738   25.0605 H   0  0  0  0  0  0  0  0  0  0  0  0
   19.6840   16.7887   26.6722 H   0  0  0  0  0  0  0  0  0  0  0  0
   19.2567   19.5239   26.8155 N   0  3  0  0  0  0  0  0  0  0  0  0
   19.1480   19.0613   27.7226 H   0  0  0  0  0  0  0  0  0  0  0  0
   18.3275   19.5958   26.3939 H   0  0  0  0  0  0  0  0  0  0  0  0
   19.5891   20.4757   26.9948 H   0  0  0  0  0  0  0  0  0  0  0  0
  1  2  1  0  0  0  0
  1  3  1  0  0  0  0
  1  4  1  0  0  0  0
  1  5  1  0  0  0  0
  5  6  1  0  0  0  0
  5  7  1  0  0  0  0
  5  8  1  0  0  0  0
  8  9  1  0  0  0  0
  8 10  1  0  0  0  0
  8 11  1  0  0  0  0
 11 12  1  0  0  0  0
 11 13  1  0  0  0  0
 11 14  1  0  0  0  0
 14 15  1  0  0  0  0
 14 16  1  0  0  0  0
 14 17  1  0  0  0  0
 17 18  1  0  0  0  0
 17 19  1  0  0  0  0
 17 20  1  0  0  0  0
 20 21  1  0  0  0  0
 20 22  1  0  0  0  0
 22 23  1  0  0  0  0
 22 24  1  0  0  0  0
 22 25  1  0  0  0  0
 20 26  1  0  0  0  0
 26 27  1  0  0  0  0
 26 28  1  0  0  0  0
 26 29  1  0  0  0  0
M  END
> <VM2 Rank>
69

> <Conf_Id>
187

> <Probability>
0.23

> <Sum Probability>
97.68

> <Delta G>
2.278

> <G>
35.980

> <E>
-2.349

> <-TS>
38.329

> <U+W>
-26.494

> <U>
26.082

> <W>
-52.576

> <W(PB)>
-54.968

> <W(SA)>
2.392

> <Valence>
5.053

> <Coulomb>
19.931

> <VdW>
1.098

> <VdW6>
-11.343

> <VdW12>
12.440

> <Bond>
0.355

> <Angle>
2.147

> <Pdih>
2.552

> <Idih>
0.000

> <Tether>
0.000

$$$$
VeraChem MOL file


 29 28  0  0  0  0  0  0  0  0999 V2000     
   20.5013   20.1305   20.0758 C   0  0  0  0  0  0  0  0  0  0  0  0
   21.4064   19.8027   20.6021 H   0  0  0  0  0  0  0  0  0  0  0  0
   20.3769   19.5039   19.1831 H   0  0  0  0  0  0  0  0  0  0  0  0
   20.6678   21.1627   19.7417 H   0  0  0  0  0  0  0  0  0  0  0  0
   19.2562   20.0504   20.9875 C   0  0  0  0  0  0  0  0  0  0  0  0
   18.3994   20.4867   20.4553 H   0  0  0  0  0  0  0  0  0  0  0  0
   19.4074   20.6754   21.8777 H   0  0  0  0  0  0  0  0  0  0  0  0
   18.8935   18.6028   21.4049 C   0  0  0  0  0  0  0  0  0  0  0  0
   17.9704   18.6229   21.9990 H   0  0  0  0  0  0  0  0  0  0  0  0
   18.6478   18.0260   20.5027 H   0  0  0  0  0  0  0  0  0  0  0  0
   19.9981   17.8445   22.1895 C   0  0  0  0  0  0  0  0  0  0  0  0
   20.8509   17.6600   21.5226 H   0  0  0  0  0  0  0  0  0  0  0  0
   19.6166   16.8504   22.4602 H   0  0  0  0  0  0  0  0  0  0  0  0
   20.5111   18.5509   23.4713 C   0  0  0  0  0  0  0  0  0  0  0  0
   21.3080   17.9288   23.8981 H   0  0  0  0  0  0  0  0  0  0  0  0
   20.9809   19.5080   23.2092 H   0  0  0  0  0  0  0  0  0  0  0  0
   19.4063   18.7826   24.5346 C   0  0  0  0  0  0  0  0  0  0  0  0
   18.9531   17.8222   24.8136 H   0  0  0  0  0  0  0  0  0  0  0  0
   18.6066   19.3881   24.0910 H   0  0  0  0  0  0  0  0  0  0  0  0
   19.9065   19.5107   25.8033 C   0  0  2  0  0  0  0  0  0  0  0  0
   20.4054   20.4346   25.4948 H   0  0  0  0  0  0  0  0  0  0  0  0
   20.9068   18.6607   26.6075 C   0  0  0  0  0  0  0  0  0  0  0  0
   20.4729   17.6911   26.8819 H   0  0  0  0  0  0  0  0  0  0  0  0
   21.8251   18.4781   26.0380 H   0  0  0  0  0  0  0  0  0  0  0  0
   21.1968   19.1768   27.5310 H   0  0  0  0  0  0  0  0  0  0  0  0
   18.7562   19.9229   26.6795 N   0  3  0  0  0  0  0  0  0  0  0  0
   18.0984   20.5275   26.1790 H   0  0  0  0  0  0  0  0  0  0  0  0
   19.0796   20.4398   27.5023 H   0  0  0  0  0  0  0  0  0  0  0  0
   18.2327   19.1101   27.0158 H   0  0  0  0  0  0  0  0  0  0  0  0
  1  2  1  0  0  0  0
  1  3  1  0  0  0  0
  1  4  1  0  0  0  0
  1  5  1  0  0  0  0
  5  6  1  0  0  0  0
  5  7  1  0  0  0  0
  5  8  1  0  0  0  0
  8  9  1  0  0  0  0
  8 10  1  0  0  0  0
  8 11  1  0  0  0  0
 11 12  1  0  0  0  0
 11 13  1  0  0  0  0
 11 14  1  0  0  0  0
 14 15  1  0  0  0  0
 14 16  1  0  0  0  0
 14 17  1  0  0  0  0
 17 18  1  0  0  0  0
 17 19  1  0  0  0  0
 17 20  1  0  0  0  0
 20 21  1  0  0  0  0
 20 22  1  0  0  0  0
 22 23  1  0  0  0  0
 22 24  1  0  0  0  0
 22 25  1  0  0  0  0
 20 26  1  0  0  0  0
 26 27  1  0  0  0  0
 26 28  1  0  0  0  0
 26 29  1  0  0  0  0
M  END
> <VM2 Rank>
70

> <Conf_Id>
17

> <Probability>
0.19

> <Sum Probability>
97.87

> <Delta G>
2.393

> <G>
36.096

> <E>
-2.043

> <-TS>
38.138

> <U+W>
-26.187

> <U>
26.467

> <W>
-52.654

> <W(PB)>
-55.084

> <W(SA)>
2.430

> <Valence>
5.199

> <Coulomb>
20.031

> <VdW>
1.237

> <VdW6>
-10.693

> <VdW12>
11.930

> <Bond>
0.334

> <Angle>
2.222

> <Pdih>
2.643

> <Idih>
0.000

> <Tether>
0.000

$$$$
VeraChem MOL file


 29 28  0  0  0  0  0  0  0  0999 V2000     
   19.3665   19.1965   19.7880 C   0  0  0  0  0  0  0  0  0  0  0  0
   18.3783   19.4316   20.2024 H   0  0  0  0  0  0  0  0  0  0  0  0
   19.7738   20.1076   19.3311 H   0  0  0  0  0  0  0  0  0  0  0  0
   19.2233   18.4555   18.9909 H   0  0  0  0  0  0  0  0  0  0  0  0
   20.3189   18.6466   20.8736 C   0  0  0  0  0  0  0  0  0  0  0  0
   21.2523   18.3216   20.3934 H   0  0  0  0  0  0  0  0  0  0  0  0
   19.8833   17.7459   21.3260 H   0  0  0  0  0  0  0  0  0  0  0  0
   20.6639   19.6849   21.9712 C   0  0  0  0  0  0  0  0  0  0  0  0
   21.3898   19.2416   22.6655 H   0  0  0  0  0  0  0  0  0  0  0  0
   21.1829   20.5333   21.5046 H   0  0  0  0  0  0  0  0  0  0  0  0
   19.4488   20.2273   22.7706 C   0  0  0  0  0  0  0  0  0  0  0  0
   18.8005   20.8036   22.0973 H   0  0  0  0  0  0  0  0  0  0  0  0
   19.8113   20.9522   23.5114 H   0  0  0  0  0  0  0  0  0  0  0  0
   18.5937   19.1453   23.4831 C   0  0  0  0  0  0  0  0  0  0  0  0
   17.7733   19.6400   24.0197 H   0  0  0  0  0  0  0  0  0  0  0  0
   18.1064   18.5117   22.7301 H   0  0  0  0  0  0  0  0  0  0  0  0
   19.3807   18.2400   24.4677 C   0  0  0  0  0  0  0  0  0  0  0  0
   20.0880   17.6214   23.9007 H   0  0  0  0  0  0  0  0  0  0  0  0
   18.6826   17.5390   24.9440 H   0  0  0  0  0  0  0  0  0  0  0  0
   20.1500   19.0164   25.5591 C   0  0  2  0  0  0  0  0  0  0  0  0
   20.8395   19.7088   25.0671 H   0  0  0  0  0  0  0  0  0  0  0  0
   20.9753   18.0500   26.4230 C   0  0  0  0  0  0  0  0  0  0  0  0
   21.6852   17.4852   25.8058 H   0  0  0  0  0  0  0  0  0  0  0  0
   21.5531   18.5996   27.1763 H   0  0  0  0  0  0  0  0  0  0  0  0
   20.3292   17.3325   26.9441 H   0  0  0  0  0  0  0  0  0  0  0  0
   19.2382   19.8490   26.4177 N   0  3  0  0  0  0  0  0  0  0  0  0
   18.7070   20.5180   25.8537 H   0  0  0  0  0  0  0  0  0  0  0  0
   19.7640   20.3823   27.1160 H   0  0  0  0  0  0  0  0  0  0  0  0
   18.5643   19.2652   26.9201 H   0  0  0  0  0  0  0  0  0  0  0  0
  1  2  1  0  0  0  0
  1  3  1  0  0  0  0
  1  4  1  0  0  0  0
  1  5  1  0  0  0  0
  5  6  1  0  0  0  0
  5  7  1  0  0  0  0
  5  8  1  0  0  0  0
  8  9  1  0  0  0  0
  8 10  1  0  0  0  0
  8 11  1  0  0  0  0
 11 12  1  0  0  0  0
 11 13  1  0  0  0  0
 11 14  1  0  0  0  0
 14 15  1  0  0  0  0
 14 16  1  0  0  0  0
 14 17  1  0  0  0  0
 17 18  1  0  0  0  0
 17 19  1  0  0  0  0
 17 20  1  0  0  0  0
 20 21  1  0  0  0  0
 20 22  1  0  0  0  0
 22 23  1  0  0  0  0
 22 24  1  0  0  0  0
 22 25  1  0  0  0  0
 20 26  1  0  0  0  0
 26 27  1  0  0  0  0
 26 28  1  0  0  0  0
 26 29  1  0  0  0  0
M  END
> <VM2 Rank>
71

> <Conf_Id>
197

> <Probability>
0.17

> <Sum Probability>
98.04

> <Delta G>
2.435

> <G>
36.138

> <E>
-2.353

> <-TS>
38.491

> <U+W>
-26.498

> <U>
25.928

> <W>
-52.425

> <W(PB)>
-54.831

> <W(SA)>
2.405

> <Valence>
4.806

> <Coulomb>
20.407

> <VdW>
0.715

> <VdW6>
-11.781

> <VdW12>
12.496

> <Bond>
0.347

> <Angle>
2.053

> <Pdih>
2.406

> <Idih>
0.000

> <Tether>
0.000

$$$$
VeraChem MOL file


 29 28  0  0  0  0  0  0  0  0999 V2000     
   19.2041   20.8703   20.9114 C   0  0  0  0  0  0  0  0  0  0  0  0
   19.1331   21.0352   21.9932 H   0  0  0  0  0  0  0  0  0  0  0  0
   20.1187   21.3570   20.5485 H   0  0  0  0  0  0  0  0  0  0  0  0
   18.3478   21.3728   20.4434 H   0  0  0  0  0  0  0  0  0  0  0  0
   19.2029   19.3641   20.5655 C   0  0  0  0  0  0  0  0  0  0  0  0
   19.1588   19.2531   19.4731 H   0  0  0  0  0  0  0  0  0  0  0  0
   18.2880   18.8952   20.9514 H   0  0  0  0  0  0  0  0  0  0  0  0
   20.4533   18.6109   21.0867 C   0  0  0  0  0  0  0  0  0  0  0  0
   20.3948   17.5621   20.7647 H   0  0  0  0  0  0  0  0  0  0  0  0
   21.3460   19.0255   20.5986 H   0  0  0  0  0  0  0  0  0  0  0  0
   20.6598   18.6562   22.6224 C   0  0  0  0  0  0  0  0  0  0  0  0
   20.8257   19.6933   22.9400 H   0  0  0  0  0  0  0  0  0  0  0  0
   21.5852   18.1147   22.8622 H   0  0  0  0  0  0  0  0  0  0  0  0
   19.4889   18.0281   23.4194 C   0  0  0  0  0  0  0  0  0  0  0  0
   18.5680   18.6019   23.2557 H   0  0  0  0  0  0  0  0  0  0  0  0
   19.2923   17.0188   23.0325 H   0  0  0  0  0  0  0  0  0  0  0  0
   19.7752   17.9262   24.9393 C   0  0  0  0  0  0  0  0  0  0  0  0
   20.6396   17.2664   25.0926 H   0  0  0  0  0  0  0  0  0  0  0  0
   18.9248   17.4367   25.4323 H   0  0  0  0  0  0  0  0  0  0  0  0
   20.0503   19.2843   25.6227 C   0  0  2  0  0  0  0  0  0  0  0  0
   20.9079   19.7512   25.1294 H   0  0  0  0  0  0  0  0  0  0  0  0
   20.4045   19.0763   27.1035 C   0  0  0  0  0  0  0  0  0  0  0  0
   20.6385   20.0338   27.5850 H   0  0  0  0  0  0  0  0  0  0  0  0
   19.5730   18.6132   27.6495 H   0  0  0  0  0  0  0  0  0  0  0  0
   21.2838   18.4282   27.2063 H   0  0  0  0  0  0  0  0  0  0  0  0
   18.8970   20.2396   25.4831 N   0  3  0  0  0  0  0  0  0  0  0  0
   19.1066   21.1451   25.9130 H   0  0  0  0  0  0  0  0  0  0  0  0
   18.0544   19.8732   25.9343 H   0  0  0  0  0  0  0  0  0  0  0  0
   18.6728   20.4081   24.4988 H   0  0  0  0  0  0  0  0  0  0  0  0
  1  2  1  0  0  0  0
  1  3  1  0  0  0  0
  1  4  1  0  0  0  0
  1  5  1  0  0  0  0
  5  6  1  0  0  0  0
  5  7  1  0  0  0  0
  5  8  1  0  0  0  0
  8  9  1  0  0  0  0
  8 10  1  0  0  0  0
  8 11  1  0  0  0  0
 11 12  1  0  0  0  0
 11 13  1  0  0  0  0
 11 14  1  0  0  0  0
 14 15  1  0  0  0  0
 14 16  1  0  0  0  0
 14 17  1  0  0  0  0
 17 18  1  0  0  0  0
 17 19  1  0  0  0  0
 17 20  1  0  0  0  0
 20 21  1  0  0  0  0
 20 22  1  0  0  0  0
 22 23  1  0  0  0  0
 22 24  1  0  0  0  0
 22 25  1  0  0  0  0
 20 26  1  0  0  0  0
 26 27  1  0  0  0  0
 26 28  1  0  0  0  0
 26 29  1  0  0  0  0
M  END
> <VM2 Rank>
72

> <Conf_Id>
1503

> <Probability>
0.17

> <Sum Probability>
98.21

> <Delta G>
2.462

> <G>
36.164

> <E>
-1.828

> <-TS>
37.992

> <U+W>
-25.972

> <U>
26.280

> <W>
-52.252

> <W(PB)>
-54.677

> <W(SA)>
2.424

> <Valence>
4.388

> <Coulomb>
21.061

> <VdW>
0.832

> <VdW6>
-10.644

> <VdW12>
11.476

> <Bond>
0.296

> <Angle>
1.681

> <Pdih>
2.411

> <Idih>
0.000

> <Tether>
0.000

$$$$
VeraChem MOL file


 29 28  0  0  0  0  0  0  0  0999 V2000     
   19.6332   18.9835   19.7669 C   0  0  0  0  0  0  0  0  0  0  0  0
   20.4453   19.5446   19.2866 H   0  0  0  0  0  0  0  0  0  0  0  0
   20.0259   18.0068   20.0759 H   0  0  0  0  0  0  0  0  0  0  0  0
   18.8564   18.8041   19.0125 H   0  0  0  0  0  0  0  0  0  0  0  0
   19.0526   19.7652   20.9667 C   0  0  0  0  0  0  0  0  0  0  0  0
   18.2545   19.1777   21.4395 H   0  0  0  0  0  0  0  0  0  0  0  0
   18.5727   20.6805   20.5935 H   0  0  0  0  0  0  0  0  0  0  0  0
   20.1212   20.1611   22.0170 C   0  0  0  0  0  0  0  0  0  0  0  0
   20.8556   20.8252   21.5411 H   0  0  0  0  0  0  0  0  0  0  0  0
   19.6439   20.7636   22.8010 H   0  0  0  0  0  0  0  0  0  0  0  0
   20.8780   18.9721   22.6677 C   0  0  0  0  0  0  0  0  0  0  0  0
   21.6071   19.3697   23.3861 H   0  0  0  0  0  0  0  0  0  0  0  0
   21.4771   18.4614   21.9023 H   0  0  0  0  0  0  0  0  0  0  0  0
   19.9760   17.9266   23.3766 C   0  0  0  0  0  0  0  0  0  0  0  0
   19.3498   17.4196   22.6306 H   0  0  0  0  0  0  0  0  0  0  0  0
   20.6130   17.1392   23.8007 H   0  0  0  0  0  0  0  0  0  0  0  0
   19.0617   18.5061   24.4891 C   0  0  0  0  0  0  0  0  0  0  0  0
   18.5075   17.6833   24.9596 H   0  0  0  0  0  0  0  0  0  0  0  0
   18.3041   19.1491   24.0237 H   0  0  0  0  0  0  0  0  0  0  0  0
   19.7997   19.3149   25.5811 C   0  0  2  0  0  0  0  0  0  0  0  0
   20.3614   20.1178   25.0945 H   0  0  0  0  0  0  0  0  0  0  0  0
   20.7864   18.4424   26.3771 C   0  0  0  0  0  0  0  0  0  0  0  0
   20.2747   17.5932   26.8468 H   0  0  0  0  0  0  0  0  0  0  0  0
   21.5806   18.0500   25.7314 H   0  0  0  0  0  0  0  0  0  0  0  0
   21.2697   19.0288   27.1681 H   0  0  0  0  0  0  0  0  0  0  0  0
   18.8271   19.9841   26.5118 N   0  3  0  0  0  0  0  0  0  0  0  0
   18.2586   19.2972   27.0147 H   0  0  0  0  0  0  0  0  0  0  0  0
   18.1866   20.6034   26.0069 H   0  0  0  0  0  0  0  0  0  0  0  0
   19.3110   20.5520   27.2132 H   0  0  0  0  0  0  0  0  0  0  0  0
  1  2  1  0  0  0  0
  1  3  1  0  0  0  0
  1  4  1  0  0  0  0
  1  5  1  0  0  0  0
  5  6  1  0  0  0  0
  5  7  1  0  0  0  0
  5  8  1  0  0  0  0
  8  9  1  0  0  0  0
  8 10  1  0  0  0  0
  8 11  1  0  0  0  0
 11 12  1  0  0  0  0
 11 13  1  0  0  0  0
 11 14  1  0  0  0  0
 14 15  1  0  0  0  0
 14 16  1  0  0  0  0
 14 17  1  0  0  0  0
 17 18  1  0  0  0  0
 17 19  1  0  0  0  0
 17 20  1  0  0  0  0
 20 21  1  0  0  0  0
 20 22  1  0  0  0  0
 22 23  1  0  0  0  0
 22 24  1  0  0  0  0
 22 25  1  0  0  0  0
 20 26  1  0  0  0  0
 26 27  1  0  0  0  0
 26 28  1  0  0  0  0
 26 29  1  0  0  0  0
M  END
> <VM2 Rank>
73

> <Conf_Id>
96

> <Probability>
0.10

> <Sum Probability>
98.31

> <Delta G>
2.764

> <G>
36.466

> <E>
-2.130

> <-TS>
38.596

> <U+W>
-26.274

> <U>
26.596

> <W>
-52.870

> <W(PB)>
-55.271

> <W(SA)>
2.401

> <Valence>
5.292

> <Coulomb>
20.508

> <VdW>
0.796

> <VdW6>
-11.980

> <VdW12>
12.776

> <Bond>
0.357

> <Angle>
2.346

> <Pdih>
2.589

> <Idih>
0.000

> <Tether>
0.000

$$$$
VeraChem MOL file


 29 28  0  0  0  0  0  0  0  0999 V2000     
   18.4972   19.6738   20.3137 C   0  0  0  0  0  0  0  0  0  0  0  0
   18.8045   19.1839   19.3807 H   0  0  0  0  0  0  0  0  0  0  0  0
   17.9287   18.9500   20.9107 H   0  0  0  0  0  0  0  0  0  0  0  0
   17.8175   20.4956   20.0540 H   0  0  0  0  0  0  0  0  0  0  0  0
   19.7224   20.2088   21.0887 C   0  0  0  0  0  0  0  0  0  0  0  0
   19.3923   20.6843   22.0218 H   0  0  0  0  0  0  0  0  0  0  0  0
   20.1959   21.0042   20.4965 H   0  0  0  0  0  0  0  0  0  0  0  0
   20.7825   19.1189   21.3890 C   0  0  0  0  0  0  0  0  0  0  0  0
   21.1715   18.7324   20.4370 H   0  0  0  0  0  0  0  0  0  0  0  0
   21.6419   19.5850   21.8886 H   0  0  0  0  0  0  0  0  0  0  0  0
   20.2773   17.9213   22.2383 C   0  0  0  0  0  0  0  0  0  0  0  0
   21.1179   17.2359   22.4131 H   0  0  0  0  0  0  0  0  0  0  0  0
   19.5469   17.3469   21.6531 H   0  0  0  0  0  0  0  0  0  0  0  0
   19.6421   18.2949   23.6025 C   0  0  0  0  0  0  0  0  0  0  0  0
   18.7409   18.8978   23.4354 H   0  0  0  0  0  0  0  0  0  0  0  0
   19.3028   17.3664   24.0791 H   0  0  0  0  0  0  0  0  0  0  0  0
   20.6191   19.0398   24.5525 C   0  0  0  0  0  0  0  0  0  0  0  0
   20.9454   19.9760   24.0833 H   0  0  0  0  0  0  0  0  0  0  0  0
   21.5260   18.4358   24.6871 H   0  0  0  0  0  0  0  0  0  0  0  0
   20.0378   19.3835   25.9443 C   0  0  2  0  0  0  0  0  0  0  0  0
   20.8054   19.9439   26.4870 H   0  0  0  0  0  0  0  0  0  0  0  0
   19.7156   18.1237   26.7670 C   0  0  0  0  0  0  0  0  0  0  0  0
   19.4427   18.3966   27.7938 H   0  0  0  0  0  0  0  0  0  0  0  0
   18.8787   17.5605   26.3376 H   0  0  0  0  0  0  0  0  0  0  0  0
   20.5869   17.4592   26.8201 H   0  0  0  0  0  0  0  0  0  0  0  0
   18.8419   20.2912   25.8580 N   0  3  0  0  0  0  0  0  0  0  0  0
   19.0619   21.1548   25.3536 H   0  0  0  0  0  0  0  0  0  0  0  0
   18.5064   20.5566   26.7884 H   0  0  0  0  0  0  0  0  0  0  0  0
   18.0664   19.8366   25.3698 H   0  0  0  0  0  0  0  0  0  0  0  0
  1  2  1  0  0  0  0
  1  3  1  0  0  0  0
  1  4  1  0  0  0  0
  1  5  1  0  0  0  0
  5  6  1  0  0  0  0
  5  7  1  0  0  0  0
  5  8  1  0  0  0  0
  8  9  1  0  0  0  0
  8 10  1  0  0  0  0
  8 11  1  0  0  0  0
 11 12  1  0  0  0  0
 11 13  1  0  0  0  0
 11 14  1  0  0  0  0
 14 15  1  0  0  0  0
 14 16  1  0  0  0  0
 14 17  1  0  0  0  0
 17 18  1  0  0  0  0
 17 19  1  0  0  0  0
 17 20  1  0  0  0  0
 20 21  1  0  0  0  0
 20 22  1  0  0  0  0
 22 23  1  0  0  0  0
 22 24  1  0  0  0  0
 22 25  1  0  0  0  0
 20 26  1  0  0  0  0
 26 27  1  0  0  0  0
 26 28  1  0  0  0  0
 26 29  1  0  0  0  0
M  END
> <VM2 Rank>
74

> <Conf_Id>
327

> <Probability>
0.10

> <Sum Probability>
98.41

> <Delta G>
2.784

> <G>
36.486

> <E>
-1.809

> <-TS>
38.296

> <U+W>
-25.954

> <U>
26.775

> <W>
-52.729

> <W(PB)>
-55.142

> <W(SA)>
2.414

> <Valence>
5.136

> <Coulomb>
20.511

> <VdW>
1.129

> <VdW6>
-11.263

> <VdW12>
12.391

> <Bond>
0.358

> <Angle>
2.222

> <Pdih>
2.556

> <Idih>
0.000

> <Tether>
0.000

$$$$
VeraChem MOL file


 29 28  0  0  0  0  0  0  0  0999 V2000     
   19.4287   19.9563   19.0046 C   0  0  0  0  0  0  0  0  0  0  0  0
   20.3310   20.5744   18.9091 H   0  0  0  0  0  0  0  0  0  0  0  0
   19.6400   18.9726   18.5654 H   0  0  0  0  0  0  0  0  0  0  0  0
   18.6336   20.4265   18.4116 H   0  0  0  0  0  0  0  0  0  0  0  0
   19.0011   19.8239   20.4816 C   0  0  0  0  0  0  0  0  0  0  0  0
   18.0787   19.2295   20.5421 H   0  0  0  0  0  0  0  0  0  0  0  0
   18.7641   20.8193   20.8828 H   0  0  0  0  0  0  0  0  0  0  0  0
   20.1038   19.1643   21.3390 C   0  0  0  0  0  0  0  0  0  0  0  0
   20.3393   18.1718   20.9305 H   0  0  0  0  0  0  0  0  0  0  0  0
   21.0242   19.7611   21.2747 H   0  0  0  0  0  0  0  0  0  0  0  0
   19.6787   19.0281   22.8185 C   0  0  0  0  0  0  0  0  0  0  0  0
   18.7640   18.4224   22.8806 H   0  0  0  0  0  0  0  0  0  0  0  0
   19.4418   20.0264   23.2061 H   0  0  0  0  0  0  0  0  0  0  0  0
   20.7923   18.3815   23.6762 C   0  0  0  0  0  0  0  0  0  0  0  0
   21.1412   17.4696   23.1720 H   0  0  0  0  0  0  0  0  0  0  0  0
   21.6591   19.0556   23.7196 H   0  0  0  0  0  0  0  0  0  0  0  0
   20.3656   17.9953   25.1171 C   0  0  0  0  0  0  0  0  0  0  0  0
   21.2077   17.4529   25.5673 H   0  0  0  0  0  0  0  0  0  0  0  0
   19.5320   17.2813   25.0868 H   0  0  0  0  0  0  0  0  0  0  0  0
   20.0038   19.1906   26.0304 C   0  0  2  0  0  0  0  0  0  0  0  0
   20.7046   20.0059   25.8263 H   0  0  0  0  0  0  0  0  0  0  0  0
   20.1429   18.7952   27.5098 C   0  0  0  0  0  0  0  0  0  0  0  0
   19.4699   17.9666   27.7639 H   0  0  0  0  0  0  0  0  0  0  0  0
   21.1702   18.4834   27.7363 H   0  0  0  0  0  0  0  0  0  0  0  0
   19.9033   19.6434   28.1630 H   0  0  0  0  0  0  0  0  0  0  0  0
   18.6190   19.7207   25.7768 N   0  3  0  0  0  0  0  0  0  0  0  0
   18.4987   20.0008   24.8008 H   0  0  0  0  0  0  0  0  0  0  0  0
   18.4191   20.5380   26.3606 H   0  0  0  0  0  0  0  0  0  0  0  0
   17.9077   19.0148   25.9848 H   0  0  0  0  0  0  0  0  0  0  0  0
  1  2  1  0  0  0  0
  1  3  1  0  0  0  0
  1  4  1  0  0  0  0
  1  5  1  0  0  0  0
  5  6  1  0  0  0  0
  5  7  1  0  0  0  0
  5  8  1  0  0  0  0
  8  9  1  0  0  0  0
  8 10  1  0  0  0  0
  8 11  1  0  0  0  0
 11 12  1  0  0  0  0
 11 13  1  0  0  0  0
 11 14  1  0  0  0  0
 14 15  1  0  0  0  0
 14 16  1  0  0  0  0
 14 17  1  0  0  0  0
 17 18  1  0  0  0  0
 17 19  1  0  0  0  0
 17 20  1  0  0  0  0
 20 21  1  0  0  0  0
 20 22  1  0  0  0  0
 22 23  1  0  0  0  0
 22 24  1  0  0  0  0
 22 25  1  0  0  0  0
 20 26  1  0  0  0  0
 26 27  1  0  0  0  0
 26 28  1  0  0  0  0
 26 29  1  0  0  0  0
M  END
> <VM2 Rank>
75

> <Conf_Id>
265

> <Probability>
0.08

> <Sum Probability>
98.49

> <Delta G>
2.889

> <G>
36.591

> <E>
-0.796

> <-TS>
37.387

> <U+W>
-24.941

> <U>
27.200

> <W>
-52.141

> <W(PB)>
-54.645

> <W(SA)>
2.504

> <Valence>
4.957

> <Coulomb>
21.196

> <VdW>
1.046

> <VdW6>
-9.034

> <VdW12>
10.080

> <Bond>
0.244

> <Angle>
1.596

> <Pdih>
3.118

> <Idih>
0.000

> <Tether>
0.000

$$$$
VeraChem MOL file


 29 28  0  0  0  0  0  0  0  0999 V2000     
   20.6182   20.6592   20.1226 C   0  0  0  0  0  0  0  0  0  0  0  0
   20.0502   21.5464   20.4317 H   0  0  0  0  0  0  0  0  0  0  0  0
   21.6131   20.7122   20.5836 H   0  0  0  0  0  0  0  0  0  0  0  0
   20.7485   20.7049   19.0336 H   0  0  0  0  0  0  0  0  0  0  0  0
   19.8864   19.3628   20.5296 C   0  0  0  0  0  0  0  0  0  0  0  0
   20.4610   18.4939   20.1792 H   0  0  0  0  0  0  0  0  0  0  0  0
   18.9105   19.3221   20.0257 H   0  0  0  0  0  0  0  0  0  0  0  0
   19.6890   19.2747   22.0590 C   0  0  0  0  0  0  0  0  0  0  0  0
   20.6724   19.3246   22.5433 H   0  0  0  0  0  0  0  0  0  0  0  0
   19.1086   20.1417   22.4033 H   0  0  0  0  0  0  0  0  0  0  0  0
   18.9711   17.9684   22.4712 C   0  0  0  0  0  0  0  0  0  0  0  0
   19.6162   17.1098   22.2388 H   0  0  0  0  0  0  0  0  0  0  0  0
   18.0696   17.8473   21.8547 H   0  0  0  0  0  0  0  0  0  0  0  0
   18.5460   17.9066   23.9612 C   0  0  0  0  0  0  0  0  0  0  0  0
   17.8043   18.6877   24.1712 H   0  0  0  0  0  0  0  0  0  0  0  0
   18.0179   16.9548   24.1118 H   0  0  0  0  0  0  0  0  0  0  0  0
   19.7171   17.9681   24.9794 C   0  0  0  0  0  0  0  0  0  0  0  0
   20.5678   17.3977   24.5832 H   0  0  0  0  0  0  0  0  0  0  0  0
   19.4116   17.4518   25.8991 H   0  0  0  0  0  0  0  0  0  0  0  0
   20.1725   19.3976   25.3549 C   0  0  2  0  0  0  0  0  0  0  0  0
   20.4087   19.9471   24.4412 H   0  0  0  0  0  0  0  0  0  0  0  0
   21.4418   19.3418   26.2194 C   0  0  0  0  0  0  0  0  0  0  0  0
   21.2595   18.8046   27.1586 H   0  0  0  0  0  0  0  0  0  0  0  0
   22.2541   18.8322   25.6862 H   0  0  0  0  0  0  0  0  0  0  0  0
   21.7889   20.3529   26.4656 H   0  0  0  0  0  0  0  0  0  0  0  0
   19.0940   20.1769   26.0568 N   0  3  0  0  0  0  0  0  0  0  0  0
   19.4053   21.1256   26.2841 H   0  0  0  0  0  0  0  0  0  0  0  0
   18.8197   19.7262   26.9339 H   0  0  0  0  0  0  0  0  0  0  0  0
   18.2546   20.2599   25.4772 H   0  0  0  0  0  0  0  0  0  0  0  0
  1  2  1  0  0  0  0
  1  3  1  0  0  0  0
  1  4  1  0  0  0  0
  1  5  1  0  0  0  0
  5  6  1  0  0  0  0
  5  7  1  0  0  0  0
  5  8  1  0  0  0  0
  8  9  1  0  0  0  0
  8 10  1  0  0  0  0
  8 11  1  0  0  0  0
 11 12  1  0  0  0  0
 11 13  1  0  0  0  0
 11 14  1  0  0  0  0
 14 15  1  0  0  0  0
 14 16  1  0  0  0  0
 14 17  1  0  0  0  0
 17 18  1  0  0  0  0
 17 19  1  0  0  0  0
 17 20  1  0  0  0  0
 20 21  1  0  0  0  0
 20 22  1  0  0  0  0
 22 23  1  0  0  0  0
 22 24  1  0  0  0  0
 22 25  1  0  0  0  0
 20 26  1  0  0  0  0
 26 27  1  0  0  0  0
 26 28  1  0  0  0  0
 26 29  1  0  0  0  0
M  END
> <VM2 Rank>
76

> <Conf_Id>
347

> <Probability>
0.06

> <Sum Probability>
98.55

> <Delta G>
3.025

> <G>
36.727

> <E>
-0.999

> <-TS>
37.726

> <U+W>
-25.143

> <U>
27.273

> <W>
-52.416

> <W(PB)>
-54.885

> <W(SA)>
2.468

> <Valence>
5.666

> <Coulomb>
20.783

> <VdW>
0.825

> <VdW6>
-9.945

> <VdW12>
10.770

> <Bond>
0.273

> <Angle>
1.789

> <Pdih>
3.603

> <Idih>
0.000

> <Tether>
0.000

$$$$
VeraChem MOL file


 29 28  0  0  0  0  0  0  0  0999 V2000     
   20.1759   19.5826   18.9582 C   0  0  0  0  0  0  0  0  0  0  0  0
   19.2697   19.0920   18.5798 H   0  0  0  0  0  0  0  0  0  0  0  0
   20.0111   20.6678   18.9380 H   0  0  0  0  0  0  0  0  0  0  0  0
   20.9971   19.3535   18.2667 H   0  0  0  0  0  0  0  0  0  0  0  0
   20.5138   19.0995   20.3845 C   0  0  0  0  0  0  0  0  0  0  0  0
   21.4421   19.5813   20.7221 H   0  0  0  0  0  0  0  0  0  0  0  0
   20.7062   18.0176   20.3669 H   0  0  0  0  0  0  0  0  0  0  0  0
   19.3731   19.4102   21.3786 C   0  0  0  0  0  0  0  0  0  0  0  0
   19.1831   20.4924   21.3916 H   0  0  0  0  0  0  0  0  0  0  0  0
   18.4471   18.9289   21.0349 H   0  0  0  0  0  0  0  0  0  0  0  0
   19.7080   18.9273   22.8078 C   0  0  0  0  0  0  0  0  0  0  0  0
   20.6368   19.4104   23.1387 H   0  0  0  0  0  0  0  0  0  0  0  0
   19.8921   17.8442   22.7941 H   0  0  0  0  0  0  0  0  0  0  0  0
   18.5682   19.2466   23.8031 C   0  0  0  0  0  0  0  0  0  0  0  0
   18.4328   20.3352   23.8670 H   0  0  0  0  0  0  0  0  0  0  0  0
   17.6252   18.8425   23.4095 H   0  0  0  0  0  0  0  0  0  0  0  0
   18.7893   18.6731   25.2259 C   0  0  0  0  0  0  0  0  0  0  0  0
   18.8384   17.5766   25.1874 H   0  0  0  0  0  0  0  0  0  0  0  0
   17.8935   18.9079   25.8159 H   0  0  0  0  0  0  0  0  0  0  0  0
   20.0350   19.2456   25.9449 C   0  0  2  0  0  0  0  0  0  0  0  0
   20.3123   20.1833   25.4536 H   0  0  0  0  0  0  0  0  0  0  0  0
   21.2292   18.2766   25.8724 C   0  0  0  0  0  0  0  0  0  0  0  0
   21.0095   17.3393   26.3989 H   0  0  0  0  0  0  0  0  0  0  0  0
   21.4847   18.0283   24.8364 H   0  0  0  0  0  0  0  0  0  0  0  0
   22.1180   18.7240   26.3341 H   0  0  0  0  0  0  0  0  0  0  0  0
   19.7434   19.5944   27.3787 N   0  3  0  0  0  0  0  0  0  0  0  0
   20.5629   20.0016   27.8385 H   0  0  0  0  0  0  0  0  0  0  0  0
   19.4707   18.7673   27.9168 H   0  0  0  0  0  0  0  0  0  0  0  0
   18.9823   20.2758   27.4531 H   0  0  0  0  0  0  0  0  0  0  0  0
  1  2  1  0  0  0  0
  1  3  1  0  0  0  0
  1  4  1  0  0  0  0
  1  5  1  0  0  0  0
  5  6  1  0  0  0  0
  5  7  1  0  0  0  0
  5  8  1  0  0  0  0
  8  9  1  0  0  0  0
  8 10  1  0  0  0  0
  8 11  1  0  0  0  0
 11 12  1  0  0  0  0
 11 13  1  0  0  0  0
 11 14  1  0  0  0  0
 14 15  1  0  0  0  0
 14 16  1  0  0  0  0
 14 17  1  0  0  0  0
 17 18  1  0  0  0  0
 17 19  1  0  0  0  0
 17 20  1  0  0  0  0
 20 21  1  0  0  0  0
 20 22  1  0  0  0  0
 22 23  1  0  0  0  0
 22 24  1  0  0  0  0
 22 25  1  0  0  0  0
 20 26  1  0  0  0  0
 26 27  1  0  0  0  0
 26 28  1  0  0  0  0
 26 29  1  0  0  0  0
M  END
> <VM2 Rank>
77

> <Conf_Id>
575

> <Probability>
0.05

> <Sum Probability>
98.60

> <Delta G>
3.184

> <G>
36.886

> <E>
-0.652

> <-TS>
37.538

> <U+W>
-24.796

> <U>
27.226

> <W>
-52.022

> <W(PB)>
-54.532

> <W(SA)>
2.510

> <Valence>
6.290

> <Coulomb>
19.805

> <VdW>
1.131

> <VdW6>
-9.035

> <VdW12>
10.166

> <Bond>
0.225

> <Angle>
1.383

> <Pdih>
4.683

> <Idih>
0.000

> <Tether>
0.000

$$$$
VeraChem MOL file


 29 28  0  0  0  0  0  0  0  0999 V2000     
   20.3031   19.1878   18.9158 C   0  0  0  0  0  0  0  0  0  0  0  0
   19.6856   20.0402   18.6035 H   0  0  0  0  0  0  0  0  0  0  0  0
   21.3427   19.5307   18.9987 H   0  0  0  0  0  0  0  0  0  0  0  0
   20.2599   18.4314   18.1215 H   0  0  0  0  0  0  0  0  0  0  0  0
   19.8039   18.6022   20.2536 C   0  0  0  0  0  0  0  0  0  0  0  0
   20.4189   17.7319   20.5225 H   0  0  0  0  0  0  0  0  0  0  0  0
   18.7746   18.2373   20.1304 H   0  0  0  0  0  0  0  0  0  0  0  0
   19.8543   19.6476   21.3896 C   0  0  0  0  0  0  0  0  0  0  0  0
   20.8846   20.0108   21.5073 H   0  0  0  0  0  0  0  0  0  0  0  0
   19.2402   20.5165   21.1152 H   0  0  0  0  0  0  0  0  0  0  0  0
   19.3559   19.0648   22.7312 C   0  0  0  0  0  0  0  0  0  0  0  0
   19.9640   18.1909   22.9939 H   0  0  0  0  0  0  0  0  0  0  0  0
   18.3252   18.7035   22.6105 H   0  0  0  0  0  0  0  0  0  0  0  0
   19.4002   20.1176   23.8658 C   0  0  0  0  0  0  0  0  0  0  0  0
   20.4097   20.5418   23.9583 H   0  0  0  0  0  0  0  0  0  0  0  0
   18.7459   20.9535   23.5814 H   0  0  0  0  0  0  0  0  0  0  0  0
   18.9261   19.5669   25.2369 C   0  0  0  0  0  0  0  0  0  0  0  0
   18.2157   18.7422   25.0916 H   0  0  0  0  0  0  0  0  0  0  0  0
   18.3607   20.3627   25.7397 H   0  0  0  0  0  0  0  0  0  0  0  0
   20.0636   19.1309   26.1916 C   0  0  2  0  0  0  0  0  0  0  0  0
   20.7217   19.9905   26.3515 H   0  0  0  0  0  0  0  0  0  0  0  0
   20.9100   17.9780   25.6263 C   0  0  0  0  0  0  0  0  0  0  0  0
   20.2832   17.1185   25.3581 H   0  0  0  0  0  0  0  0  0  0  0  0
   21.4648   18.2974   24.7366 H   0  0  0  0  0  0  0  0  0  0  0  0
   21.6498   17.6433   26.3639 H   0  0  0  0  0  0  0  0  0  0  0  0
   19.5190   18.7602   27.5431 N   0  3  0  0  0  0  0  0  0  0  0  0
   20.2702   18.5164   28.1950 H   0  0  0  0  0  0  0  0  0  0  0  0
   18.8915   17.9536   27.4849 H   0  0  0  0  0  0  0  0  0  0  0  0
   18.9910   19.5316   27.9617 H   0  0  0  0  0  0  0  0  0  0  0  0
  1  2  1  0  0  0  0
  1  3  1  0  0  0  0
  1  4  1  0  0  0  0
  1  5  1  0  0  0  0
  5  6  1  0  0  0  0
  5  7  1  0  0  0  0
  5  8  1  0  0  0  0
  8  9  1  0  0  0  0
  8 10  1  0  0  0  0
  8 11  1  0  0  0  0
 11 12  1  0  0  0  0
 11 13  1  0  0  0  0
 11 14  1  0  0  0  0
 14 15  1  0  0  0  0
 14 16  1  0  0  0  0
 14 17  1  0  0  0  0
 17 18  1  0  0  0  0
 17 19  1  0  0  0  0
 17 20  1  0  0  0  0
 20 21  1  0  0  0  0
 20 22  1  0  0  0  0
 22 23  1  0  0  0  0
 22 24  1  0  0  0  0
 22 25  1  0  0  0  0
 20 26  1  0  0  0  0
 26 27  1  0  0  0  0
 26 28  1  0  0  0  0
 26 29  1  0  0  0  0
M  END
> <VM2 Rank>
78

> <Conf_Id>
276

> <Probability>
0.05

> <Sum Probability>
98.65

> <Delta G>
3.193

> <G>
36.895

> <E>
-0.781

> <-TS>
37.676

> <U+W>
-24.925

> <U>
27.070

> <W>
-51.996

> <W(PB)>
-54.495

> <W(SA)>
2.499

> <Valence>
6.259

> <Coulomb>
19.668

> <VdW>
1.143

> <VdW6>
-9.081

> <VdW12>
10.224

> <Bond>
0.251

> <Angle>
1.658

> <Pdih>
4.351

> <Idih>
0.000

> <Tether>
0.000

$$$$
VeraChem MOL file


 29 28  0  0  0  0  0  0  0  0999 V2000     
   19.1962   19.1628   19.1305 C   0  0  0  0  0  0  0  0  0  0  0  0
   20.0758   19.6993   18.7516 H   0  0  0  0  0  0  0  0  0  0  0  0
   19.3679   18.0868   18.9963 H   0  0  0  0  0  0  0  0  0  0  0  0
   18.3355   19.4466   18.5111 H   0  0  0  0  0  0  0  0  0  0  0  0
   18.9359   19.5021   20.6134 C   0  0  0  0  0  0  0  0  0  0  0  0
   18.0319   18.9779   20.9537 H   0  0  0  0  0  0  0  0  0  0  0  0
   18.7347   20.5781   20.7112 H   0  0  0  0  0  0  0  0  0  0  0  0
   20.1335   19.1121   21.5077 C   0  0  0  0  0  0  0  0  0  0  0  0
   20.3319   18.0361   21.4057 H   0  0  0  0  0  0  0  0  0  0  0  0
   21.0348   19.6359   21.1603 H   0  0  0  0  0  0  0  0  0  0  0  0
   19.8772   19.4516   22.9933 C   0  0  0  0  0  0  0  0  0  0  0  0
   18.9718   18.9268   23.3208 H   0  0  0  0  0  0  0  0  0  0  0  0
   19.6888   20.5294   23.0941 H   0  0  0  0  0  0  0  0  0  0  0  0
   21.0730   19.0461   23.8873 C   0  0  0  0  0  0  0  0  0  0  0  0
   21.1995   17.9555   23.8634 H   0  0  0  0  0  0  0  0  0  0  0  0
   21.9927   19.4605   23.4517 H   0  0  0  0  0  0  0  0  0  0  0  0
   20.9822   19.5405   25.3586 C   0  0  0  0  0  0  0  0  0  0  0  0
   20.9820   20.6383   25.3727 H   0  0  0  0  0  0  0  0  0  0  0  0
   21.9086   19.2436   25.8676 H   0  0  0  0  0  0  0  0  0  0  0  0
   19.7954   19.0268   26.2131 C   0  0  2  0  0  0  0  0  0  0  0  0
   20.0167   19.2915   27.2517 H   0  0  0  0  0  0  0  0  0  0  0  0
   19.6454   17.4967   26.1524 C   0  0  0  0  0  0  0  0  0  0  0  0
   18.8948   17.1554   26.8757 H   0  0  0  0  0  0  0  0  0  0  0  0
   19.3302   17.1598   25.1576 H   0  0  0  0  0  0  0  0  0  0  0  0
   20.5939   17.0034   26.3987 H   0  0  0  0  0  0  0  0  0  0  0  0
   18.4972   19.7173   25.8976 N   0  3  0  0  0  0  0  0  0  0  0  0
   18.2042   19.5358   24.9355 H   0  0  0  0  0  0  0  0  0  0  0  0
   18.5763   20.7321   26.0104 H   0  0  0  0  0  0  0  0  0  0  0  0
   17.7453   19.3990   26.5157 H   0  0  0  0  0  0  0  0  0  0  0  0
  1  2  1  0  0  0  0
  1  3  1  0  0  0  0
  1  4  1  0  0  0  0
  1  5  1  0  0  0  0
  5  6  1  0  0  0  0
  5  7  1  0  0  0  0
  5  8  1  0  0  0  0
  8  9  1  0  0  0  0
  8 10  1  0  0  0  0
  8 11  1  0  0  0  0
 11 12  1  0  0  0  0
 11 13  1  0  0  0  0
 11 14  1  0  0  0  0
 14 15  1  0  0  0  0
 14 16  1  0  0  0  0
 14 17  1  0  0  0  0
 17 18  1  0  0  0  0
 17 19  1  0  0  0  0
 17 20  1  0  0  0  0
 20 21  1  0  0  0  0
 20 22  1  0  0  0  0
 22 23  1  0  0  0  0
 22 24  1  0  0  0  0
 22 25  1  0  0  0  0
 20 26  1  0  0  0  0
 26 27  1  0  0  0  0
 26 28  1  0  0  0  0
 26 29  1  0  0  0  0
M  END
> <VM2 Rank>
79

> <Conf_Id>
638

> <Probability>
0.05

> <Sum Probability>
98.70

> <Delta G>
3.230

> <G>
36.932

> <E>
-1.035

> <-TS>
37.968

> <U+W>
-25.180

> <U>
27.314

> <W>
-52.494

> <W(PB)>
-54.962

> <W(SA)>
2.468

> <Valence>
5.057

> <Coulomb>
21.357

> <VdW>
0.900

> <VdW6>
-10.071

> <VdW12>
10.971

> <Bond>
0.294

> <Angle>
2.163

> <Pdih>
2.599

> <Idih>
0.000

> <Tether>
0.000

$$$$
VeraChem MOL file


 29 28  0  0  0  0  0  0  0  0999 V2000     
   20.7632   20.3649   20.5803 C   0  0  0  0  0  0  0  0  0  0  0  0
   20.2282   21.2256   21.0019 H   0  0  0  0  0  0  0  0  0  0  0  0
   21.4111   19.9401   21.3568 H   0  0  0  0  0  0  0  0  0  0  0  0
   21.4138   20.7341   19.7770 H   0  0  0  0  0  0  0  0  0  0  0  0
   19.7777   19.3092   20.0337 C   0  0  0  0  0  0  0  0  0  0  0  0
   20.3405   18.4337   19.6811 H   0  0  0  0  0  0  0  0  0  0  0  0
   19.2733   19.7230   19.1494 H   0  0  0  0  0  0  0  0  0  0  0  0
   18.6970   18.8576   21.0490 C   0  0  0  0  0  0  0  0  0  0  0  0
   18.0622   19.7096   21.3286 H   0  0  0  0  0  0  0  0  0  0  0  0
   18.0330   18.1513   20.5317 H   0  0  0  0  0  0  0  0  0  0  0  0
   19.2506   18.1584   22.3179 C   0  0  0  0  0  0  0  0  0  0  0  0
   20.1960   17.6497   22.0844 H   0  0  0  0  0  0  0  0  0  0  0  0
   18.5462   17.3689   22.6145 H   0  0  0  0  0  0  0  0  0  0  0  0
   19.4334   19.1172   23.5198 C   0  0  0  0  0  0  0  0  0  0  0  0
   20.1084   19.9392   23.2536 H   0  0  0  0  0  0  0  0  0  0  0  0
   18.4642   19.5721   23.7632 H   0  0  0  0  0  0  0  0  0  0  0  0
   19.9943   18.3786   24.7592 C   0  0  0  0  0  0  0  0  0  0  0  0
   20.9350   17.8846   24.4815 H   0  0  0  0  0  0  0  0  0  0  0  0
   19.3007   17.5837   25.0641 H   0  0  0  0  0  0  0  0  0  0  0  0
   20.2612   19.3213   25.9525 C   0  0  2  0  0  0  0  0  0  0  0  0
   20.9339   20.1169   25.6174 H   0  0  0  0  0  0  0  0  0  0  0  0
   20.9494   18.5565   27.0943 C   0  0  0  0  0  0  0  0  0  0  0  0
   21.1749   19.2286   27.9314 H   0  0  0  0  0  0  0  0  0  0  0  0
   20.3127   17.7452   27.4690 H   0  0  0  0  0  0  0  0  0  0  0  0
   21.8964   18.1185   26.7549 H   0  0  0  0  0  0  0  0  0  0  0  0
   19.0091   19.9923   26.4473 N   0  3  0  0  0  0  0  0  0  0  0  0
   19.2077   20.6280   27.2251 H   0  0  0  0  0  0  0  0  0  0  0  0
   18.3249   19.3068   26.7783 H   0  0  0  0  0  0  0  0  0  0  0  0
   18.5628   20.5421   25.7083 H   0  0  0  0  0  0  0  0  0  0  0  0
  1  2  1  0  0  0  0
  1  3  1  0  0  0  0
  1  4  1  0  0  0  0
  1  5  1  0  0  0  0
  5  6  1  0  0  0  0
  5  7  1  0  0  0  0
  5  8  1  0  0  0  0
  8  9  1  0  0  0  0
  8 10  1  0  0  0  0
  8 11  1  0  0  0  0
 11 12  1  0  0  0  0
 11 13  1  0  0  0  0
 11 14  1  0  0  0  0
 14 15  1  0  0  0  0
 14 16  1  0  0  0  0
 14 17  1  0  0  0  0
 17 18  1  0  0  0  0
 17 19  1  0  0  0  0
 17 20  1  0  0  0  0
 20 21  1  0  0  0  0
 20 22  1  0  0  0  0
 22 23  1  0  0  0  0
 22 24  1  0  0  0  0
 22 25  1  0  0  0  0
 20 26  1  0  0  0  0
 26 27  1  0  0  0  0
 26 28  1  0  0  0  0
 26 29  1  0  0  0  0
M  END
> <VM2 Rank>
80

> <Conf_Id>
840

> <Probability>
0.04

> <Sum Probability>
98.74

> <Delta G>
3.252

> <G>
36.954

> <E>
-0.781

> <-TS>
37.736

> <U+W>
-24.926

> <U>
27.363

> <W>
-52.289

> <W(PB)>
-54.777

> <W(SA)>
2.488

> <Valence>
6.134

> <Coulomb>
20.079

> <VdW>
1.150

> <VdW6>
-9.534

> <VdW12>
10.684

> <Bond>
0.272

> <Angle>
1.638

> <Pdih>
4.224

> <Idih>
0.000

> <Tether>
0.000

$$$$
VeraChem MOL file


 29 28  0  0  0  0  0  0  0  0999 V2000     
   18.6843   18.8366   19.7168 C   0  0  0  0  0  0  0  0  0  0  0  0
   19.4419   18.1626   19.2965 H   0  0  0  0  0  0  0  0  0  0  0  0
   18.1169   18.2856   20.4771 H   0  0  0  0  0  0  0  0  0  0  0  0
   17.9864   19.1011   18.9119 H   0  0  0  0  0  0  0  0  0  0  0  0
   19.3369   20.1077   20.3058 C   0  0  0  0  0  0  0  0  0  0  0  0
   18.5621   20.7504   20.7468 H   0  0  0  0  0  0  0  0  0  0  0  0
   19.7868   20.6864   19.4871 H   0  0  0  0  0  0  0  0  0  0  0  0
   20.4298   19.8063   21.3596 C   0  0  0  0  0  0  0  0  0  0  0  0
   21.2143   19.1848   20.9061 H   0  0  0  0  0  0  0  0  0  0  0  0
   20.9106   20.7526   21.6433 H   0  0  0  0  0  0  0  0  0  0  0  0
   19.8855   19.1144   22.6322 C   0  0  0  0  0  0  0  0  0  0  0  0
   19.4726   18.1312   22.3706 H   0  0  0  0  0  0  0  0  0  0  0  0
   19.0577   19.7093   23.0327 H   0  0  0  0  0  0  0  0  0  0  0  0
   20.9944   18.9285   23.6973 C   0  0  0  0  0  0  0  0  0  0  0  0
   21.8125   18.3559   23.2384 H   0  0  0  0  0  0  0  0  0  0  0  0
   21.4247   19.9003   23.9767 H   0  0  0  0  0  0  0  0  0  0  0  0
   20.5302   18.1701   24.9688 C   0  0  0  0  0  0  0  0  0  0  0  0
   21.4090   17.6667   25.3937 H   0  0  0  0  0  0  0  0  0  0  0  0
   19.8265   17.3708   24.7013 H   0  0  0  0  0  0  0  0  0  0  0  0
   19.9278   19.0721   26.0715 C   0  0  2  0  0  0  0  0  0  0  0  0
   20.6531   19.8584   26.3021 H   0  0  0  0  0  0  0  0  0  0  0  0
   19.6843   18.2549   27.3506 C   0  0  0  0  0  0  0  0  0  0  0  0
   19.2950   18.8946   28.1522 H   0  0  0  0  0  0  0  0  0  0  0  0
   18.9610   17.4488   27.1747 H   0  0  0  0  0  0  0  0  0  0  0  0
   20.6178   17.8040   27.7097 H   0  0  0  0  0  0  0  0  0  0  0  0
   18.6629   19.7654   25.6514 N   0  3  0  0  0  0  0  0  0  0  0  0
   18.2951   20.3584   26.4009 H   0  0  0  0  0  0  0  0  0  0  0  0
   17.9332   19.0915   25.4050 H   0  0  0  0  0  0  0  0  0  0  0  0
   18.8241   20.3636   24.8370 H   0  0  0  0  0  0  0  0  0  0  0  0
  1  2  1  0  0  0  0
  1  3  1  0  0  0  0
  1  4  1  0  0  0  0
  1  5  1  0  0  0  0
  5  6  1  0  0  0  0
  5  7  1  0  0  0  0
  5  8  1  0  0  0  0
  8  9  1  0  0  0  0
  8 10  1  0  0  0  0
  8 11  1  0  0  0  0
 11 12  1  0  0  0  0
 11 13  1  0  0  0  0
 11 14  1  0  0  0  0
 14 15  1  0  0  0  0
 14 16  1  0  0  0  0
 14 17  1  0  0  0  0
 17 18  1  0  0  0  0
 17 19  1  0  0  0  0
 17 20  1  0  0  0  0
 20 21  1  0  0  0  0
 20 22  1  0  0  0  0
 22 23  1  0  0  0  0
 22 24  1  0  0  0  0
 22 25  1  0  0  0  0
 20 26  1  0  0  0  0
 26 27  1  0  0  0  0
 26 28  1  0  0  0  0
 26 29  1  0  0  0  0
M  END
> <VM2 Rank>
81

> <Conf_Id>
1547

> <Probability>
0.04

> <Sum Probability>
98.79

> <Delta G>
3.278

> <G>
36.980

> <E>
-0.297

> <-TS>
37.278

> <U+W>
-24.442

> <U>
27.677

> <W>
-52.118

> <W(PB)>
-54.604

> <W(SA)>
2.485

> <Valence>
5.651

> <Coulomb>
20.826

> <VdW>
1.200

> <VdW6>
-9.461

> <VdW12>
10.661

> <Bond>
0.293

> <Angle>
1.684

> <Pdih>
3.674

> <Idih>
0.000

> <Tether>
0.000

$$$$
VeraChem MOL file


 29 28  0  0  0  0  0  0  0  0999 V2000     
   18.4960   18.4798   19.9649 C   0  0  0  0  0  0  0  0  0  0  0  0
   17.5635   18.8010   20.4470 H   0  0  0  0  0  0  0  0  0  0  0  0
   18.6596   19.1113   19.0819 H   0  0  0  0  0  0  0  0  0  0  0  0
   18.3586   17.4469   19.6197 H   0  0  0  0  0  0  0  0  0  0  0  0
   19.6862   18.5739   20.9427 C   0  0  0  0  0  0  0  0  0  0  0  0
   20.5955   18.2141   20.4414 H   0  0  0  0  0  0  0  0  0  0  0  0
   19.5092   17.8991   21.7886 H   0  0  0  0  0  0  0  0  0  0  0  0
   19.9059   20.0248   21.4348 C   0  0  0  0  0  0  0  0  0  0  0  0
   20.1071   20.6550   20.5574 H   0  0  0  0  0  0  0  0  0  0  0  0
   18.9857   20.4200   21.8865 H   0  0  0  0  0  0  0  0  0  0  0  0
   21.0914   20.1703   22.4243 C   0  0  0  0  0  0  0  0  0  0  0  0
   21.5794   21.1360   22.2327 H   0  0  0  0  0  0  0  0  0  0  0  0
   21.8554   19.4078   22.2195 H   0  0  0  0  0  0  0  0  0  0  0  0
   20.6931   20.1394   23.9224 C   0  0  0  0  0  0  0  0  0  0  0  0
   21.5950   20.3246   24.5222 H   0  0  0  0  0  0  0  0  0  0  0  0
   20.0098   20.9743   24.1277 H   0  0  0  0  0  0  0  0  0  0  0  0
   20.0492   18.8080   24.3819 C   0  0  0  0  0  0  0  0  0  0  0  0
   20.6801   17.9733   24.0487 H   0  0  0  0  0  0  0  0  0  0  0  0
   19.0698   18.6822   23.9033 H   0  0  0  0  0  0  0  0  0  0  0  0
   19.8785   18.7224   25.9137 C   0  0  2  0  0  0  0  0  0  0  0  0
   20.8593   18.8674   26.3768 H   0  0  0  0  0  0  0  0  0  0  0  0
   19.3546   17.3348   26.3163 C   0  0  0  0  0  0  0  0  0  0  0  0
   20.0395   16.5467   25.9792 H   0  0  0  0  0  0  0  0  0  0  0  0
   19.2661   17.2545   27.4067 H   0  0  0  0  0  0  0  0  0  0  0  0
   18.3677   17.1403   25.8778 H   0  0  0  0  0  0  0  0  0  0  0  0
   18.9812   19.8026   26.4530 N   0  3  0  0  0  0  0  0  0  0  0  0
   18.8973   19.7451   27.4720 H   0  0  0  0  0  0  0  0  0  0  0  0
   18.0376   19.7331   26.0628 H   0  0  0  0  0  0  0  0  0  0  0  0
   19.3411   20.7339   26.2272 H   0  0  0  0  0  0  0  0  0  0  0  0
  1  2  1  0  0  0  0
  1  3  1  0  0  0  0
  1  4  1  0  0  0  0
  1  5  1  0  0  0  0
  5  6  1  0  0  0  0
  5  7  1  0  0  0  0
  5  8  1  0  0  0  0
  8  9  1  0  0  0  0
  8 10  1  0  0  0  0
  8 11  1  0  0  0  0
 11 12  1  0  0  0  0
 11 13  1  0  0  0  0
 11 14  1  0  0  0  0
 14 15  1  0  0  0  0
 14 16  1  0  0  0  0
 14 17  1  0  0  0  0
 17 18  1  0  0  0  0
 17 19  1  0  0  0  0
 17 20  1  0  0  0  0
 20 21  1  0  0  0  0
 20 22  1  0  0  0  0
 22 23  1  0  0  0  0
 22 24  1  0  0  0  0
 22 25  1  0  0  0  0
 20 26  1  0  0  0  0
 26 27  1  0  0  0  0
 26 28  1  0  0  0  0
 26 29  1  0  0  0  0
M  END
> <VM2 Rank>
82

> <Conf_Id>
481

> <Probability>
0.04

> <Sum Probability>
98.83

> <Delta G>
3.309

> <G>
37.011

> <E>
-0.767

> <-TS>
37.778

> <U+W>
-24.911

> <U>
27.426

> <W>
-52.337

> <W(PB)>
-54.832

> <W(SA)>
2.495

> <Valence>
6.169

> <Coulomb>
20.212

> <VdW>
1.045

> <VdW6>
-9.697

> <VdW12>
10.742

> <Bond>
0.273

> <Angle>
1.616

> <Pdih>
4.280

> <Idih>
0.000

> <Tether>
0.000

$$$$
VeraChem MOL file


 29 28  0  0  0  0  0  0  0  0999 V2000     
   19.0341   19.2829   19.0640 C   0  0  0  0  0  0  0  0  0  0  0  0
   19.5632   20.1945   18.7568 H   0  0  0  0  0  0  0  0  0  0  0  0
   19.0605   18.5781   18.2228 H   0  0  0  0  0  0  0  0  0  0  0  0
   17.9844   19.5438   19.2524 H   0  0  0  0  0  0  0  0  0  0  0  0
   19.6843   18.6601   20.3174 C   0  0  0  0  0  0  0  0  0  0  0  0
   20.7218   18.3789   20.0884 H   0  0  0  0  0  0  0  0  0  0  0  0
   19.1551   17.7333   20.5802 H   0  0  0  0  0  0  0  0  0  0  0  0
   19.6602   19.6326   21.5173 C   0  0  0  0  0  0  0  0  0  0  0  0
   20.1881   20.5582   21.2489 H   0  0  0  0  0  0  0  0  0  0  0  0
   18.6214   19.9124   21.7407 H   0  0  0  0  0  0  0  0  0  0  0  0
   20.3099   19.0122   22.7746 C   0  0  0  0  0  0  0  0  0  0  0  0
   21.3486   18.7347   22.5479 H   0  0  0  0  0  0  0  0  0  0  0  0
   19.7862   18.0834   23.0292 H   0  0  0  0  0  0  0  0  0  0  0  0
   20.2901   19.9924   23.9732 C   0  0  0  0  0  0  0  0  0  0  0  0
   20.8455   20.8949   23.6826 H   0  0  0  0  0  0  0  0  0  0  0  0
   19.2634   20.3235   24.1755 H   0  0  0  0  0  0  0  0  0  0  0  0
   20.9427   19.4126   25.2593 C   0  0  0  0  0  0  0  0  0  0  0  0
   21.4641   20.2277   25.7781 H   0  0  0  0  0  0  0  0  0  0  0  0
   21.7277   18.6942   24.9889 H   0  0  0  0  0  0  0  0  0  0  0  0
   19.9762   18.7586   26.2779 C   0  0  2  0  0  0  0  0  0  0  0  0
   20.5858   18.3955   27.1111 H   0  0  0  0  0  0  0  0  0  0  0  0
   19.2216   17.5514   25.6982 C   0  0  0  0  0  0  0  0  0  0  0  0
   18.4948   17.8597   24.9373 H   0  0  0  0  0  0  0  0  0  0  0  0
   19.9189   16.8352   25.2463 H   0  0  0  0  0  0  0  0  0  0  0  0
   18.6730   17.0270   26.4901 H   0  0  0  0  0  0  0  0  0  0  0  0
   19.0170   19.7532   26.8722 N   0  3  0  0  0  0  0  0  0  0  0  0
   18.3956   20.1426   26.1591 H   0  0  0  0  0  0  0  0  0  0  0  0
   19.5112   20.5354   27.3111 H   0  0  0  0  0  0  0  0  0  0  0  0
   18.4284   19.3216   27.5905 H   0  0  0  0  0  0  0  0  0  0  0  0
  1  2  1  0  0  0  0
  1  3  1  0  0  0  0
  1  4  1  0  0  0  0
  1  5  1  0  0  0  0
  5  6  1  0  0  0  0
  5  7  1  0  0  0  0
  5  8  1  0  0  0  0
  8  9  1  0  0  0  0
  8 10  1  0  0  0  0
  8 11  1  0  0  0  0
 11 12  1  0  0  0  0
 11 13  1  0  0  0  0
 11 14  1  0  0  0  0
 14 15  1  0  0  0  0
 14 16  1  0  0  0  0
 14 17  1  0  0  0  0
 17 18  1  0  0  0  0
 17 19  1  0  0  0  0
 17 20  1  0  0  0  0
 20 21  1  0  0  0  0
 20 22  1  0  0  0  0
 22 23  1  0  0  0  0
 22 24  1  0  0  0  0
 22 25  1  0  0  0  0
 20 26  1  0  0  0  0
 26 27  1  0  0  0  0
 26 28  1  0  0  0  0
 26 29  1  0  0  0  0
M  END
> <VM2 Rank>
83

> <Conf_Id>
994

> <Probability>
0.04

> <Sum Probability>
98.86

> <Delta G>
3.338

> <G>
37.041

> <E>
-0.701

> <-TS>
37.742

> <U+W>
-24.846

> <U>
27.319

> <W>
-52.165

> <W(PB)>
-54.657

> <W(SA)>
2.492

> <Valence>
6.250

> <Coulomb>
19.964

> <VdW>
1.105

> <VdW6>
-9.527

> <VdW12>
10.632

> <Bond>
0.282

> <Angle>
1.801

> <Pdih>
4.167

> <Idih>
0.000

> <Tether>
0.000

$$$$
VeraChem MOL file


 29 28  0  0  0  0  0  0  0  0999 V2000     
   20.1102   20.7972   20.0430 C   0  0  0  0  0  0  0  0  0  0  0  0
   19.6437   21.0710   19.0878 H   0  0  0  0  0  0  0  0  0  0  0  0
   20.0148   21.6542   20.7225 H   0  0  0  0  0  0  0  0  0  0  0  0
   21.1785   20.6239   19.8589 H   0  0  0  0  0  0  0  0  0  0  0  0
   19.4387   19.5408   20.6367 C   0  0  0  0  0  0  0  0  0  0  0  0
   19.5197   18.7114   19.9202 H   0  0  0  0  0  0  0  0  0  0  0  0
   18.3661   19.7335   20.7790 H   0  0  0  0  0  0  0  0  0  0  0  0
   20.0779   19.1331   21.9824 C   0  0  0  0  0  0  0  0  0  0  0  0
   21.1488   18.9394   21.8317 H   0  0  0  0  0  0  0  0  0  0  0  0
   20.0046   19.9757   22.6786 H   0  0  0  0  0  0  0  0  0  0  0  0
   19.4045   17.8724   22.5777 C   0  0  0  0  0  0  0  0  0  0  0  0
   19.4723   17.0680   21.8320 H   0  0  0  0  0  0  0  0  0  0  0  0
   18.3316   18.0502   22.7337 H   0  0  0  0  0  0  0  0  0  0  0  0
   20.0567   17.3660   23.8909 C   0  0  0  0  0  0  0  0  0  0  0  0
   19.9067   16.2786   23.9403 H   0  0  0  0  0  0  0  0  0  0  0  0
   21.1453   17.5047   23.8584 H   0  0  0  0  0  0  0  0  0  0  0  0
   19.4577   17.9684   25.1912 C   0  0  0  0  0  0  0  0  0  0  0  0
   19.9059   17.4578   26.0538 H   0  0  0  0  0  0  0  0  0  0  0  0
   18.3874   17.7256   25.2220 H   0  0  0  0  0  0  0  0  0  0  0  0
   19.6242   19.4938   25.3737 C   0  0  2  0  0  0  0  0  0  0  0  0
   19.1804   19.9960   24.5103 H   0  0  0  0  0  0  0  0  0  0  0  0
   21.1040   19.9033   25.4838 C   0  0  0  0  0  0  0  0  0  0  0  0
   21.5925   19.3984   26.3264 H   0  0  0  0  0  0  0  0  0  0  0  0
   21.6575   19.6558   24.5709 H   0  0  0  0  0  0  0  0  0  0  0  0
   21.1949   20.9857   25.6369 H   0  0  0  0  0  0  0  0  0  0  0  0
   18.8622   19.9810   26.5746 N   0  3  0  0  0  0  0  0  0  0  0  0
   17.8656   19.7554   26.5061 H   0  0  0  0  0  0  0  0  0  0  0  0
   18.9383   20.9968   26.6792 H   0  0  0  0  0  0  0  0  0  0  0  0
   19.2146   19.5581   27.4376 H   0  0  0  0  0  0  0  0  0  0  0  0
  1  2  1  0  0  0  0
  1  3  1  0  0  0  0
  1  4  1  0  0  0  0
  1  5  1  0  0  0  0
  5  6  1  0  0  0  0
  5  7  1  0  0  0  0
  5  8  1  0  0  0  0
  8  9  1  0  0  0  0
  8 10  1  0  0  0  0
  8 11  1  0  0  0  0
 11 12  1  0  0  0  0
 11 13  1  0  0  0  0
 11 14  1  0  0  0  0
 14 15  1  0  0  0  0
 14 16  1  0  0  0  0
 14 17  1  0  0  0  0
 17 18  1  0  0  0  0
 17 19  1  0  0  0  0
 17 20  1  0  0  0  0
 20 21  1  0  0  0  0
 20 22  1  0  0  0  0
 22 23  1  0  0  0  0
 22 24  1  0  0  0  0
 22 25  1  0  0  0  0
 20 26  1  0  0  0  0
 26 27  1  0  0  0  0
 26 28  1  0  0  0  0
 26 29  1  0  0  0  0
M  END
> <VM2 Rank>
84

> <Conf_Id>
298

> <Probability>
0.04

> <Sum Probability>
98.90

> <Delta G>
3.384

> <G>
37.087

> <E>
-0.946

> <-TS>
38.033

> <U+W>
-25.090

> <U>
27.495

> <W>
-52.586

> <W(PB)>
-55.042

> <W(SA)>
2.456

> <Valence>
6.349

> <Coulomb>
20.401

> <VdW>
0.745

> <VdW6>
-10.334

> <VdW12>
11.079

> <Bond>
0.286

> <Angle>
2.247

> <Pdih>
3.816

> <Idih>
0.000

> <Tether>
0.000

$$$$
VeraChem MOL file


 29 28  0  0  0  0  0  0  0  0999 V2000     
   21.0714   19.4461   19.7787 C   0  0  0  0  0  0  0  0  0  0  0  0
   22.1295   19.1547   19.7573 H   0  0  0  0  0  0  0  0  0  0  0  0
   20.5676   18.9468   18.9408 H   0  0  0  0  0  0  0  0  0  0  0  0
   21.0167   20.5301   19.6138 H   0  0  0  0  0  0  0  0  0  0  0  0
   20.4264   19.0574   21.1259 C   0  0  0  0  0  0  0  0  0  0  0  0
   20.9812   19.5462   21.9376 H   0  0  0  0  0  0  0  0  0  0  0  0
   20.5199   17.9727   21.2749 H   0  0  0  0  0  0  0  0  0  0  0  0
   18.9372   19.4675   21.1842 C   0  0  0  0  0  0  0  0  0  0  0  0
   18.8572   20.5611   21.1141 H   0  0  0  0  0  0  0  0  0  0  0  0
   18.4224   19.0667   20.3001 H   0  0  0  0  0  0  0  0  0  0  0  0
   18.1854   18.9765   22.4484 C   0  0  0  0  0  0  0  0  0  0  0  0
   18.1680   17.8782   22.4752 H   0  0  0  0  0  0  0  0  0  0  0  0
   17.1358   19.2860   22.3488 H   0  0  0  0  0  0  0  0  0  0  0  0
   18.7306   19.5401   23.7864 C   0  0  0  0  0  0  0  0  0  0  0  0
   19.2048   20.5169   23.6177 H   0  0  0  0  0  0  0  0  0  0  0  0
   17.8768   19.7261   24.4515 H   0  0  0  0  0  0  0  0  0  0  0  0
   19.7145   18.5774   24.5009 C   0  0  0  0  0  0  0  0  0  0  0  0
   20.5185   18.2911   23.8136 H   0  0  0  0  0  0  0  0  0  0  0  0
   19.1922   17.6486   24.7664 H   0  0  0  0  0  0  0  0  0  0  0  0
   20.3452   19.1955   25.7673 C   0  0  2  0  0  0  0  0  0  0  0  0
   20.8376   20.1307   25.4834 H   0  0  0  0  0  0  0  0  0  0  0  0
   21.4063   18.2499   26.3522 C   0  0  0  0  0  0  0  0  0  0  0  0
   21.8840   18.6990   27.2318 H   0  0  0  0  0  0  0  0  0  0  0  0
   20.9621   17.2935   26.6554 H   0  0  0  0  0  0  0  0  0  0  0  0
   22.1930   18.0432   25.6159 H   0  0  0  0  0  0  0  0  0  0  0  0
   19.3190   19.5457   26.8099 N   0  3  0  0  0  0  0  0  0  0  0  0
   18.6297   20.2099   26.4473 H   0  0  0  0  0  0  0  0  0  0  0  0
   19.7528   19.9729   27.6333 H   0  0  0  0  0  0  0  0  0  0  0  0
   18.8110   18.7156   27.1267 H   0  0  0  0  0  0  0  0  0  0  0  0
  1  2  1  0  0  0  0
  1  3  1  0  0  0  0
  1  4  1  0  0  0  0
  1  5  1  0  0  0  0
  5  6  1  0  0  0  0
  5  7  1  0  0  0  0
  5  8  1  0  0  0  0
  8  9  1  0  0  0  0
  8 10  1  0  0  0  0
  8 11  1  0  0  0  0
 11 12  1  0  0  0  0
 11 13  1  0  0  0  0
 11 14  1  0  0  0  0
 14 15  1  0  0  0  0
 14 16  1  0  0  0  0
 14 17  1  0  0  0  0
 17 18  1  0  0  0  0
 17 19  1  0  0  0  0
 17 20  1  0  0  0  0
 20 21  1  0  0  0  0
 20 22  1  0  0  0  0
 22 23  1  0  0  0  0
 22 24  1  0  0  0  0
 22 25  1  0  0  0  0
 20 26  1  0  0  0  0
 26 27  1  0  0  0  0
 26 28  1  0  0  0  0
 26 29  1  0  0  0  0
M  END
> <VM2 Rank>
85

> <Conf_Id>
958

> <Probability>
0.03

> <Sum Probability>
98.93

> <Delta G>
3.400

> <G>
37.102

> <E>
-0.690

> <-TS>
37.793

> <U+W>
-24.835

> <U>
27.471

> <W>
-52.306

> <W(PB)>
-54.789

> <W(SA)>
2.483

> <Valence>
6.231

> <Coulomb>
20.131

> <VdW>
1.110

> <VdW6>
-9.661

> <VdW12>
10.771

> <Bond>
0.280

> <Angle>
1.591

> <Pdih>
4.359

> <Idih>
0.000

> <Tether>
0.000

$$$$
VeraChem MOL file


 29 28  0  0  0  0  0  0  0  0999 V2000     
   18.3709   20.0956   20.7871 C   0  0  0  0  0  0  0  0  0  0  0  0
   17.5566   20.2943   20.0784 H   0  0  0  0  0  0  0  0  0  0  0  0
   17.9456   19.5260   21.6226 H   0  0  0  0  0  0  0  0  0  0  0  0
   18.7291   21.0612   21.1667 H   0  0  0  0  0  0  0  0  0  0  0  0
   19.5079   19.3120   20.0960 C   0  0  0  0  0  0  0  0  0  0  0  0
   19.7858   19.8369   19.1714 H   0  0  0  0  0  0  0  0  0  0  0  0
   19.1343   18.3262   19.7856 H   0  0  0  0  0  0  0  0  0  0  0  0
   20.7811   19.1355   20.9624 C   0  0  0  0  0  0  0  0  0  0  0  0
   21.5275   18.6118   20.3492 H   0  0  0  0  0  0  0  0  0  0  0  0
   21.2213   20.1158   21.1910 H   0  0  0  0  0  0  0  0  0  0  0  0
   20.5707   18.3220   22.2660 C   0  0  0  0  0  0  0  0  0  0  0  0
   21.4730   17.7229   22.4510 H   0  0  0  0  0  0  0  0  0  0  0  0
   19.7508   17.6029   22.1324 H   0  0  0  0  0  0  0  0  0  0  0  0
   20.3157   19.2080   23.5098 C   0  0  0  0  0  0  0  0  0  0  0  0
   21.1767   19.8731   23.6642 H   0  0  0  0  0  0  0  0  0  0  0  0
   19.4475   19.8537   23.3384 H   0  0  0  0  0  0  0  0  0  0  0  0
   20.0918   18.3556   24.7823 C   0  0  0  0  0  0  0  0  0  0  0  0
   20.9510   17.6847   24.9159 H   0  0  0  0  0  0  0  0  0  0  0  0
   19.2107   17.7138   24.6488 H   0  0  0  0  0  0  0  0  0  0  0  0
   19.9239   19.2092   26.0580 C   0  0  2  0  0  0  0  0  0  0  0  0
   20.8005   19.8571   26.1550 H   0  0  0  0  0  0  0  0  0  0  0  0
   19.8515   18.3060   27.2994 C   0  0  0  0  0  0  0  0  0  0  0  0
   18.9847   17.6349   27.2521 H   0  0  0  0  0  0  0  0  0  0  0  0
   20.7556   17.6906   27.3872 H   0  0  0  0  0  0  0  0  0  0  0  0
   19.7688   18.9075   28.2130 H   0  0  0  0  0  0  0  0  0  0  0  0
   18.7226   20.1123   25.9929 N   0  3  0  0  0  0  0  0  0  0  0  0
   17.8568   19.5746   25.8983 H   0  0  0  0  0  0  0  0  0  0  0  0
   18.7784   20.7516   25.1956 H   0  0  0  0  0  0  0  0  0  0  0  0
   18.6382   20.6834   26.8387 H   0  0  0  0  0  0  0  0  0  0  0  0
  1  2  1  0  0  0  0
  1  3  1  0  0  0  0
  1  4  1  0  0  0  0
  1  5  1  0  0  0  0
  5  6  1  0  0  0  0
  5  7  1  0  0  0  0
  5  8  1  0  0  0  0
  8  9  1  0  0  0  0
  8 10  1  0  0  0  0
  8 11  1  0  0  0  0
 11 12  1  0  0  0  0
 11 13  1  0  0  0  0
 11 14  1  0  0  0  0
 14 15  1  0  0  0  0
 14 16  1  0  0  0  0
 14 17  1  0  0  0  0
 17 18  1  0  0  0  0
 17 19  1  0  0  0  0
 17 20  1  0  0  0  0
 20 21  1  0  0  0  0
 20 22  1  0  0  0  0
 22 23  1  0  0  0  0
 22 24  1  0  0  0  0
 22 25  1  0  0  0  0
 20 26  1  0  0  0  0
 26 27  1  0  0  0  0
 26 28  1  0  0  0  0
 26 29  1  0  0  0  0
M  END
> <VM2 Rank>
86

> <Conf_Id>
1316

> <Probability>
0.03

> <Sum Probability>
98.97

> <Delta G>
3.418

> <G>
37.121

> <E>
-0.628

> <-TS>
37.749

> <U+W>
-24.773

> <U>
27.668

> <W>
-52.441

> <W(PB)>
-54.941

> <W(SA)>
2.500

> <Valence>
6.132

> <Coulomb>
20.412

> <VdW>
1.124

> <VdW6>
-9.581

> <VdW12>
10.705

> <Bond>
0.273

> <Angle>
1.615

> <Pdih>
4.244

> <Idih>
0.000

> <Tether>
0.000

$$$$
VeraChem MOL file


 29 28  0  0  0  0  0  0  0  0999 V2000     
   19.8295   20.9175   20.1510 C   0  0  0  0  0  0  0  0  0  0  0  0
   20.8377   21.2771   20.3950 H   0  0  0  0  0  0  0  0  0  0  0  0
   19.6733   21.0575   19.0735 H   0  0  0  0  0  0  0  0  0  0  0  0
   19.1038   21.5477   20.6815 H   0  0  0  0  0  0  0  0  0  0  0  0
   19.6619   19.4327   20.5374 C   0  0  0  0  0  0  0  0  0  0  0  0
   20.3767   18.8249   19.9651 H   0  0  0  0  0  0  0  0  0  0  0  0
   18.6564   19.0926   20.2522 H   0  0  0  0  0  0  0  0  0  0  0  0
   19.8784   19.2084   22.0502 C   0  0  0  0  0  0  0  0  0  0  0  0
   20.8869   19.5435   22.3292 H   0  0  0  0  0  0  0  0  0  0  0  0
   19.1616   19.8286   22.6030 H   0  0  0  0  0  0  0  0  0  0  0  0
   19.6943   17.7241   22.4431 C   0  0  0  0  0  0  0  0  0  0  0  0
   20.2894   17.0993   21.7628 H   0  0  0  0  0  0  0  0  0  0  0  0
   18.6467   17.4327   22.2856 H   0  0  0  0  0  0  0  0  0  0  0  0
   20.1133   17.3836   23.8968 C   0  0  0  0  0  0  0  0  0  0  0  0
   19.9776   16.3015   24.0309 H   0  0  0  0  0  0  0  0  0  0  0  0
   21.1883   17.5588   24.0258 H   0  0  0  0  0  0  0  0  0  0  0  0
   19.2933   18.1051   25.0017 C   0  0  0  0  0  0  0  0  0  0  0  0
   19.3083   17.4896   25.9110 H   0  0  0  0  0  0  0  0  0  0  0  0
   18.2419   18.1461   24.6880 H   0  0  0  0  0  0  0  0  0  0  0  0
   19.7798   19.5281   25.3697 C   0  0  2  0  0  0  0  0  0  0  0  0
   19.8998   20.1113   24.4543 H   0  0  0  0  0  0  0  0  0  0  0  0
   21.1311   19.5045   26.1069 C   0  0  0  0  0  0  0  0  0  0  0  0
   21.0750   18.8978   27.0193 H   0  0  0  0  0  0  0  0  0  0  0  0
   21.9277   19.0980   25.4740 H   0  0  0  0  0  0  0  0  0  0  0  0
   21.4317   20.5199   26.3932 H   0  0  0  0  0  0  0  0  0  0  0  0
   18.7543   20.2520   26.1973 N   0  3  0  0  0  0  0  0  0  0  0  0
   19.0560   21.2056   26.4170 H   0  0  0  0  0  0  0  0  0  0  0  0
   18.5860   19.7728   27.0860 H   0  0  0  0  0  0  0  0  0  0  0  0
   17.8562   20.3208   25.7099 H   0  0  0  0  0  0  0  0  0  0  0  0
  1  2  1  0  0  0  0
  1  3  1  0  0  0  0
  1  4  1  0  0  0  0
  1  5  1  0  0  0  0
  5  6  1  0  0  0  0
  5  7  1  0  0  0  0
  5  8  1  0  0  0  0
  8  9  1  0  0  0  0
  8 10  1  0  0  0  0
  8 11  1  0  0  0  0
 11 12  1  0  0  0  0
 11 13  1  0  0  0  0
 11 14  1  0  0  0  0
 14 15  1  0  0  0  0
 14 16  1  0  0  0  0
 14 17  1  0  0  0  0
 17 18  1  0  0  0  0
 17 19  1  0  0  0  0
 17 20  1  0  0  0  0
 20 21  1  0  0  0  0
 20 22  1  0  0  0  0
 22 23  1  0  0  0  0
 22 24  1  0  0  0  0
 22 25  1  0  0  0  0
 20 26  1  0  0  0  0
 26 27  1  0  0  0  0
 26 28  1  0  0  0  0
 26 29  1  0  0  0  0
M  END
> <VM2 Rank>
87

> <Conf_Id>
342

> <Probability>
0.03

> <Sum Probability>
99.00

> <Delta G>
3.441

> <G>
37.143

> <E>
-0.497

> <-TS>
37.640

> <U+W>
-24.641

> <U>
27.990

> <W>
-52.632

> <W(PB)>
-55.123

> <W(SA)>
2.492

> <Valence>
6.342

> <Coulomb>
20.686

> <VdW>
0.962

> <VdW6>
-10.031

> <VdW12>
10.993

> <Bond>
0.289

> <Angle>
2.142

> <Pdih>
3.911

> <Idih>
0.000

> <Tether>
0.000

$$$$
VeraChem MOL file


 29 28  0  0  0  0  0  0  0  0999 V2000     
   20.7725   18.3366   19.8235 C   0  0  0  0  0  0  0  0  0  0  0  0
   20.7784   17.2909   19.4898 H   0  0  0  0  0  0  0  0  0  0  0  0
   20.5814   18.9691   18.9468 H   0  0  0  0  0  0  0  0  0  0  0  0
   21.7740   18.5744   20.2051 H   0  0  0  0  0  0  0  0  0  0  0  0
   19.6990   18.5558   20.9104 C   0  0  0  0  0  0  0  0  0  0  0  0
   19.8948   17.8790   21.7509 H   0  0  0  0  0  0  0  0  0  0  0  0
   18.7151   18.2764   20.5085 H   0  0  0  0  0  0  0  0  0  0  0  0
   19.6635   20.0276   21.3880 C   0  0  0  0  0  0  0  0  0  0  0  0
   20.6591   20.3458   21.7267 H   0  0  0  0  0  0  0  0  0  0  0  0
   19.4217   20.6609   20.5232 H   0  0  0  0  0  0  0  0  0  0  0  0
   18.6125   20.2897   22.4981 C   0  0  0  0  0  0  0  0  0  0  0  0
   17.7807   19.5771   22.4116 H   0  0  0  0  0  0  0  0  0  0  0  0
   18.1712   21.2808   22.3237 H   0  0  0  0  0  0  0  0  0  0  0  0
   19.1756   20.2780   23.9429 C   0  0  0  0  0  0  0  0  0  0  0  0
   19.9287   21.0715   24.0461 H   0  0  0  0  0  0  0  0  0  0  0  0
   18.3567   20.5428   24.6243 H   0  0  0  0  0  0  0  0  0  0  0  0
   19.7945   18.9248   24.3743 C   0  0  0  0  0  0  0  0  0  0  0  0
   20.6615   18.7112   23.7371 H   0  0  0  0  0  0  0  0  0  0  0  0
   19.0707   18.1149   24.2138 H   0  0  0  0  0  0  0  0  0  0  0  0
   20.2646   18.9176   25.8452 C   0  0  2  0  0  0  0  0  0  0  0  0
   20.9500   19.7582   25.9907 H   0  0  0  0  0  0  0  0  0  0  0  0
   21.0228   17.6172   26.1564 C   0  0  0  0  0  0  0  0  0  0  0  0
   20.3769   16.7400   26.0248 H   0  0  0  0  0  0  0  0  0  0  0  0
   21.8913   17.5042   25.4955 H   0  0  0  0  0  0  0  0  0  0  0  0
   21.3899   17.6196   27.1901 H   0  0  0  0  0  0  0  0  0  0  0  0
   19.1308   19.1087   26.8152 N   0  3  0  0  0  0  0  0  0  0  0  0
   19.4645   19.1178   27.7833 H   0  0  0  0  0  0  0  0  0  0  0  0
   18.4411   18.3567   26.7356 H   0  0  0  0  0  0  0  0  0  0  0  0
   18.6431   19.9935   26.6513 H   0  0  0  0  0  0  0  0  0  0  0  0
  1  2  1  0  0  0  0
  1  3  1  0  0  0  0
  1  4  1  0  0  0  0
  1  5  1  0  0  0  0
  5  6  1  0  0  0  0
  5  7  1  0  0  0  0
  5  8  1  0  0  0  0
  8  9  1  0  0  0  0
  8 10  1  0  0  0  0
  8 11  1  0  0  0  0
 11 12  1  0  0  0  0
 11 13  1  0  0  0  0
 11 14  1  0  0  0  0
 14 15  1  0  0  0  0
 14 16  1  0  0  0  0
 14 17  1  0  0  0  0
 17 18  1  0  0  0  0
 17 19  1  0  0  0  0
 17 20  1  0  0  0  0
 20 21  1  0  0  0  0
 20 22  1  0  0  0  0
 22 23  1  0  0  0  0
 22 24  1  0  0  0  0
 22 25  1  0  0  0  0
 20 26  1  0  0  0  0
 26 27  1  0  0  0  0
 26 28  1  0  0  0  0
 26 29  1  0  0  0  0
M  END
> <VM2 Rank>
88

> <Conf_Id>
284

> <Probability>
0.03

> <Sum Probability>
99.03

> <Delta G>
3.447

> <G>
37.150

> <E>
-0.619

> <-TS>
37.769

> <U+W>
-24.764

> <U>
27.456

> <W>
-52.219

> <W(PB)>
-54.678

> <W(SA)>
2.459

> <Valence>
6.249

> <Coulomb>
20.070

> <VdW>
1.137

> <VdW6>
-9.668

> <VdW12>
10.805

> <Bond>
0.280

> <Angle>
1.673

> <Pdih>
4.296

> <Idih>
0.000

> <Tether>
0.000

$$$$
VeraChem MOL file


 29 28  0  0  0  0  0  0  0  0999 V2000     
   19.2000   20.8417   20.6387 C   0  0  0  0  0  0  0  0  0  0  0  0
   19.2956   21.0885   21.7017 H   0  0  0  0  0  0  0  0  0  0  0  0
   20.0547   21.2850   20.1114 H   0  0  0  0  0  0  0  0  0  0  0  0
   18.2898   21.3281   20.2648 H   0  0  0  0  0  0  0  0  0  0  0  0
   19.1354   19.3154   20.3980 C   0  0  0  0  0  0  0  0  0  0  0  0
   19.0199   19.1481   19.3180 H   0  0  0  0  0  0  0  0  0  0  0  0
   18.2362   18.8921   20.8670 H   0  0  0  0  0  0  0  0  0  0  0  0
   20.4012   18.5622   20.8819 C   0  0  0  0  0  0  0  0  0  0  0  0
   20.5977   17.7390   20.1811 H   0  0  0  0  0  0  0  0  0  0  0  0
   21.2804   19.2183   20.8208 H   0  0  0  0  0  0  0  0  0  0  0  0
   20.2916   17.9488   22.3017 C   0  0  0  0  0  0  0  0  0  0  0  0
   21.2139   17.3871   22.5043 H   0  0  0  0  0  0  0  0  0  0  0  0
   19.4756   17.2132   22.3190 H   0  0  0  0  0  0  0  0  0  0  0  0
   20.0734   18.9846   23.4288 C   0  0  0  0  0  0  0  0  0  0  0  0
   20.8347   19.7735   23.3553 H   0  0  0  0  0  0  0  0  0  0  0  0
   19.0945   19.4608   23.2957 H   0  0  0  0  0  0  0  0  0  0  0  0
   20.1415   18.3298   24.8300 C   0  0  0  0  0  0  0  0  0  0  0  0
   21.1047   17.8127   24.9342 H   0  0  0  0  0  0  0  0  0  0  0  0
   19.3618   17.5616   24.9192 H   0  0  0  0  0  0  0  0  0  0  0  0
   19.9992   19.3508   25.9795 C   0  0  2  0  0  0  0  0  0  0  0  0
   20.7689   20.1185   25.8535 H   0  0  0  0  0  0  0  0  0  0  0  0
   20.2212   18.6627   27.3358 C   0  0  0  0  0  0  0  0  0  0  0  0
   20.1575   19.3895   28.1550 H   0  0  0  0  0  0  0  0  0  0  0  0
   19.4709   17.8818   27.5123 H   0  0  0  0  0  0  0  0  0  0  0  0
   21.2144   18.1985   27.3795 H   0  0  0  0  0  0  0  0  0  0  0  0
   18.6726   20.0598   25.9597 N   0  3  0  0  0  0  0  0  0  0  0  0
   18.5294   20.5606   25.0786 H   0  0  0  0  0  0  0  0  0  0  0  0
   18.6040   20.7457   26.7170 H   0  0  0  0  0  0  0  0  0  0  0  0
   17.8967   19.4017   26.0710 H   0  0  0  0  0  0  0  0  0  0  0  0
  1  2  1  0  0  0  0
  1  3  1  0  0  0  0
  1  4  1  0  0  0  0
  1  5  1  0  0  0  0
  5  6  1  0  0  0  0
  5  7  1  0  0  0  0
  5  8  1  0  0  0  0
  8  9  1  0  0  0  0
  8 10  1  0  0  0  0
  8 11  1  0  0  0  0
 11 12  1  0  0  0  0
 11 13  1  0  0  0  0
 11 14  1  0  0  0  0
 14 15  1  0  0  0  0
 14 16  1  0  0  0  0
 14 17  1  0  0  0  0
 17 18  1  0  0  0  0
 17 19  1  0  0  0  0
 17 20  1  0  0  0  0
 20 21  1  0  0  0  0
 20 22  1  0  0  0  0
 22 23  1  0  0  0  0
 22 24  1  0  0  0  0
 22 25  1  0  0  0  0
 20 26  1  0  0  0  0
 26 27  1  0  0  0  0
 26 28  1  0  0  0  0
 26 29  1  0  0  0  0
M  END
> <VM2 Rank>
89

> <Conf_Id>
1611

> <Probability>
0.03

> <Sum Probability>
99.06

> <Delta G>
3.449

> <G>
37.151

> <E>
-0.582

> <-TS>
37.733

> <U+W>
-24.727

> <U>
27.696

> <W>
-52.423

> <W(PB)>
-54.887

> <W(SA)>
2.465

> <Valence>
6.158

> <Coulomb>
20.386

> <VdW>
1.152

> <VdW6>
-9.567

> <VdW12>
10.718

> <Bond>
0.273

> <Angle>
1.661

> <Pdih>
4.223

> <Idih>
0.000

> <Tether>
0.000

$$$$
VeraChem MOL file


 29 28  0  0  0  0  0  0  0  0999 V2000     
   18.2578   19.1446   19.9978 C   0  0  0  0  0  0  0  0  0  0  0  0
   18.0122   20.2067   19.8681 H   0  0  0  0  0  0  0  0  0  0  0  0
   18.7915   18.8048   19.1007 H   0  0  0  0  0  0  0  0  0  0  0  0
   17.3150   18.5857   20.0606 H   0  0  0  0  0  0  0  0  0  0  0  0
   19.1077   18.9233   21.2669 C   0  0  0  0  0  0  0  0  0  0  0  0
   19.3153   17.8507   21.3843 H   0  0  0  0  0  0  0  0  0  0  0  0
   18.5246   19.2398   22.1415 H   0  0  0  0  0  0  0  0  0  0  0  0
   20.4363   19.7109   21.2076 C   0  0  0  0  0  0  0  0  0  0  0  0
   20.9448   19.4812   20.2611 H   0  0  0  0  0  0  0  0  0  0  0  0
   20.2206   20.7880   21.1843 H   0  0  0  0  0  0  0  0  0  0  0  0
   21.4158   19.4065   22.3704 C   0  0  0  0  0  0  0  0  0  0  0  0
   22.3300   19.9895   22.1920 H   0  0  0  0  0  0  0  0  0  0  0  0
   21.7265   18.3532   22.3360 H   0  0  0  0  0  0  0  0  0  0  0  0
   20.8821   19.7667   23.7815 C   0  0  0  0  0  0  0  0  0  0  0  0
   21.7230   20.1327   24.3869 H   0  0  0  0  0  0  0  0  0  0  0  0
   20.1747   20.6030   23.7065 H   0  0  0  0  0  0  0  0  0  0  0  0
   20.2445   18.5629   24.5236 C   0  0  0  0  0  0  0  0  0  0  0  0
   20.9865   17.7558   24.5855 H   0  0  0  0  0  0  0  0  0  0  0  0
   19.3981   18.1599   23.9563 H   0  0  0  0  0  0  0  0  0  0  0  0
   19.7805   18.9178   25.9526 C   0  0  2  0  0  0  0  0  0  0  0  0
   20.6335   19.3348   26.4968 H   0  0  0  0  0  0  0  0  0  0  0  0
   19.3075   17.6551   26.6903 C   0  0  0  0  0  0  0  0  0  0  0  0
   19.0100   17.8947   27.7187 H   0  0  0  0  0  0  0  0  0  0  0  0
   18.4485   17.1975   26.1837 H   0  0  0  0  0  0  0  0  0  0  0  0
   20.1108   16.9095   26.7417 H   0  0  0  0  0  0  0  0  0  0  0  0
   18.7038   19.9682   25.9633 N   0  3  0  0  0  0  0  0  0  0  0  0
   18.4247   20.2074   26.9191 H   0  0  0  0  0  0  0  0  0  0  0  0
   17.8660   19.6486   25.4700 H   0  0  0  0  0  0  0  0  0  0  0  0
   19.0190   20.8308   25.5113 H   0  0  0  0  0  0  0  0  0  0  0  0
  1  2  1  0  0  0  0
  1  3  1  0  0  0  0
  1  4  1  0  0  0  0
  1  5  1  0  0  0  0
  5  6  1  0  0  0  0
  5  7  1  0  0  0  0
  5  8  1  0  0  0  0
  8  9  1  0  0  0  0
  8 10  1  0  0  0  0
  8 11  1  0  0  0  0
 11 12  1  0  0  0  0
 11 13  1  0  0  0  0
 11 14  1  0  0  0  0
 14 15  1  0  0  0  0
 14 16  1  0  0  0  0
 14 17  1  0  0  0  0
 17 18  1  0  0  0  0
 17 19  1  0  0  0  0
 17 20  1  0  0  0  0
 20 21  1  0  0  0  0
 20 22  1  0  0  0  0
 22 23  1  0  0  0  0
 22 24  1  0  0  0  0
 22 25  1  0  0  0  0
 20 26  1  0  0  0  0
 26 27  1  0  0  0  0
 26 28  1  0  0  0  0
 26 29  1  0  0  0  0
M  END
> <VM2 Rank>
90

> <Conf_Id>
376

> <Probability>
0.03

> <Sum Probability>
99.09

> <Delta G>
3.517

> <G>
37.220

> <E>
-0.531

> <-TS>
37.750

> <U+W>
-24.675

> <U>
27.893

> <W>
-52.568

> <W(PB)>
-55.031

> <W(SA)>
2.463

> <Valence>
6.177

> <Coulomb>
20.674

> <VdW>
1.042

> <VdW6>
-9.722

> <VdW12>
10.764

> <Bond>
0.282

> <Angle>
1.681

> <Pdih>
4.213

> <Idih>
0.000

> <Tether>
0.000

$$$$
VeraChem MOL file


 29 28  0  0  0  0  0  0  0  0999 V2000     
   18.3480   20.1991   20.2678 C   0  0  0  0  0  0  0  0  0  0  0  0
   17.7129   19.8810   21.1038 H   0  0  0  0  0  0  0  0  0  0  0  0
   18.6817   21.2271   20.4596 H   0  0  0  0  0  0  0  0  0  0  0  0
   17.7227   20.2121   19.3658 H   0  0  0  0  0  0  0  0  0  0  0  0
   19.5529   19.2501   20.0761 C   0  0  0  0  0  0  0  0  0  0  0  0
   20.0826   19.5328   19.1557 H   0  0  0  0  0  0  0  0  0  0  0  0
   19.1936   18.2232   19.9209 H   0  0  0  0  0  0  0  0  0  0  0  0
   20.5556   19.2815   21.2547 C   0  0  0  0  0  0  0  0  0  0  0  0
   21.4282   18.6704   20.9856 H   0  0  0  0  0  0  0  0  0  0  0  0
   20.9269   20.3063   21.3928 H   0  0  0  0  0  0  0  0  0  0  0  0
   19.9617   18.7577   22.5841 C   0  0  0  0  0  0  0  0  0  0  0  0
   19.5518   17.7505   22.4268 H   0  0  0  0  0  0  0  0  0  0  0  0
   19.1246   19.3958   22.8834 H   0  0  0  0  0  0  0  0  0  0  0  0
   21.0294   18.7086   23.7049 C   0  0  0  0  0  0  0  0  0  0  0  0
   21.8504   18.0625   23.3644 H   0  0  0  0  0  0  0  0  0  0  0  0
   21.4705   19.7034   23.8579 H   0  0  0  0  0  0  0  0  0  0  0  0
   20.5030   18.1496   25.0532 C   0  0  0  0  0  0  0  0  0  0  0  0
   21.3494   17.6788   25.5711 H   0  0  0  0  0  0  0  0  0  0  0  0
   19.7752   17.3467   24.8756 H   0  0  0  0  0  0  0  0  0  0  0  0
   19.9080   19.2171   26.0013 C   0  0  2  0  0  0  0  0  0  0  0  0
   20.6618   19.9959   26.1520 H   0  0  0  0  0  0  0  0  0  0  0  0
   19.5856   18.5918   27.3681 C   0  0  0  0  0  0  0  0  0  0  0  0
   20.4848   18.1541   27.8194 H   0  0  0  0  0  0  0  0  0  0  0  0
   19.2018   19.3503   28.0616 H   0  0  0  0  0  0  0  0  0  0  0  0
   18.8307   17.8010   27.2745 H   0  0  0  0  0  0  0  0  0  0  0  0
   18.6919   19.9005   25.4436 N   0  3  0  0  0  0  0  0  0  0  0  0
   18.3305   20.6070   26.0909 H   0  0  0  0  0  0  0  0  0  0  0  0
   17.9382   19.2315   25.2651 H   0  0  0  0  0  0  0  0  0  0  0  0
   18.9071   20.3724   24.5614 H   0  0  0  0  0  0  0  0  0  0  0  0
  1  2  1  0  0  0  0
  1  3  1  0  0  0  0
  1  4  1  0  0  0  0
  1  5  1  0  0  0  0
  5  6  1  0  0  0  0
  5  7  1  0  0  0  0
  5  8  1  0  0  0  0
  8  9  1  0  0  0  0
  8 10  1  0  0  0  0
  8 11  1  0  0  0  0
 11 12  1  0  0  0  0
 11 13  1  0  0  0  0
 11 14  1  0  0  0  0
 14 15  1  0  0  0  0
 14 16  1  0  0  0  0
 14 17  1  0  0  0  0
 17 18  1  0  0  0  0
 17 19  1  0  0  0  0
 17 20  1  0  0  0  0
 20 21  1  0  0  0  0
 20 22  1  0  0  0  0
 22 23  1  0  0  0  0
 22 24  1  0  0  0  0
 22 25  1  0  0  0  0
 20 26  1  0  0  0  0
 26 27  1  0  0  0  0
 26 28  1  0  0  0  0
 26 29  1  0  0  0  0
M  END
> <VM2 Rank>
91

> <Conf_Id>
629

> <Probability>
0.03

> <Sum Probability>
99.12

> <Delta G>
3.546

> <G>
37.248

> <E>
-0.111

> <-TS>
37.359

> <U+W>
-24.255

> <U>
27.845

> <W>
-52.100

> <W(PB)>
-54.588

> <W(SA)>
2.488

> <Valence>
5.677

> <Coulomb>
20.986

> <VdW>
1.182

> <VdW6>
-9.500

> <VdW12>
10.681

> <Bond>
0.294

> <Angle>
1.638

> <Pdih>
3.746

> <Idih>
0.000

> <Tether>
0.000

$$$$
VeraChem MOL file


 29 28  0  0  0  0  0  0  0  0999 V2000     
   20.1289   20.8592   20.0810 C   0  0  0  0  0  0  0  0  0  0  0  0
   20.7009   21.5210   20.7443 H   0  0  0  0  0  0  0  0  0  0  0  0
   20.5906   20.8985   19.0859 H   0  0  0  0  0  0  0  0  0  0  0  0
   19.1097   21.2582   19.9956 H   0  0  0  0  0  0  0  0  0  0  0  0
   20.1148   19.4124   20.6181 C   0  0  0  0  0  0  0  0  0  0  0  0
   21.1442   19.0296   20.6614 H   0  0  0  0  0  0  0  0  0  0  0  0
   19.5663   18.7686   19.9162 H   0  0  0  0  0  0  0  0  0  0  0  0
   19.4685   19.3288   22.0184 C   0  0  0  0  0  0  0  0  0  0  0  0
   20.0171   19.9887   22.6988 H   0  0  0  0  0  0  0  0  0  0  0  0
   18.4392   19.7093   21.9649 H   0  0  0  0  0  0  0  0  0  0  0  0
   19.4558   17.8768   22.5563 C   0  0  0  0  0  0  0  0  0  0  0  0
   20.4803   17.4850   22.6212 H   0  0  0  0  0  0  0  0  0  0  0  0
   18.9379   17.2473   21.8194 H   0  0  0  0  0  0  0  0  0  0  0  0
   18.7349   17.7099   23.9196 C   0  0  0  0  0  0  0  0  0  0  0  0
   17.8614   18.3729   23.9757 H   0  0  0  0  0  0  0  0  0  0  0  0
   18.3270   16.6904   23.9589 H   0  0  0  0  0  0  0  0  0  0  0  0
   19.6443   17.8863   25.1660 C   0  0  0  0  0  0  0  0  0  0  0  0
   20.4620   17.1554   25.1115 H   0  0  0  0  0  0  0  0  0  0  0  0
   19.0652   17.6253   26.0618 H   0  0  0  0  0  0  0  0  0  0  0  0
   20.2437   19.2963   25.3528 C   0  0  2  0  0  0  0  0  0  0  0  0
   20.8511   19.5319   24.4751 H   0  0  0  0  0  0  0  0  0  0  0  0
   21.1613   19.3278   26.5852 C   0  0  0  0  0  0  0  0  0  0  0  0
   21.6219   20.3167   26.7009 H   0  0  0  0  0  0  0  0  0  0  0  0
   20.6032   19.1014   27.5024 H   0  0  0  0  0  0  0  0  0  0  0  0
   21.9704   18.5933   26.4874 H   0  0  0  0  0  0  0  0  0  0  0  0
   19.1838   20.3586   25.4566 N   0  3  0  0  0  0  0  0  0  0  0  0
   18.5837   20.2056   26.2715 H   0  0  0  0  0  0  0  0  0  0  0  0
   18.5836   20.3643   24.6275 H   0  0  0  0  0  0  0  0  0  0  0  0
   19.5955   21.2916   25.5493 H   0  0  0  0  0  0  0  0  0  0  0  0
  1  2  1  0  0  0  0
  1  3  1  0  0  0  0
  1  4  1  0  0  0  0
  1  5  1  0  0  0  0
  5  6  1  0  0  0  0
  5  7  1  0  0  0  0
  5  8  1  0  0  0  0
  8  9  1  0  0  0  0
  8 10  1  0  0  0  0
  8 11  1  0  0  0  0
 11 12  1  0  0  0  0
 11 13  1  0  0  0  0
 11 14  1  0  0  0  0
 14 15  1  0  0  0  0
 14 16  1  0  0  0  0
 14 17  1  0  0  0  0
 17 18  1  0  0  0  0
 17 19  1  0  0  0  0
 17 20  1  0  0  0  0
 20 21  1  0  0  0  0
 20 22  1  0  0  0  0
 22 23  1  0  0  0  0
 22 24  1  0  0  0  0
 22 25  1  0  0  0  0
 20 26  1  0  0  0  0
 26 27  1  0  0  0  0
 26 28  1  0  0  0  0
 26 29  1  0  0  0  0
M  END
> <VM2 Rank>
92

> <Conf_Id>
901

> <Probability>
0.03

> <Sum Probability>
99.15

> <Delta G>
3.546

> <G>
37.248

> <E>
-0.604

> <-TS>
37.852

> <U+W>
-24.748

> <U>
27.636

> <W>
-52.384

> <W(PB)>
-54.895

> <W(SA)>
2.510

> <Valence>
5.823

> <Coulomb>
21.132

> <VdW>
0.681

> <VdW6>
-10.106

> <VdW12>
10.787

> <Bond>
0.276

> <Angle>
1.914

> <Pdih>
3.633

> <Idih>
0.000

> <Tether>
0.000

$$$$
VeraChem MOL file


 29 28  0  0  0  0  0  0  0  0999 V2000     
   20.7039   19.2164   19.8757 C   0  0  0  0  0  0  0  0  0  0  0  0
   21.6923   19.0652   20.3287 H   0  0  0  0  0  0  0  0  0  0  0  0
   20.2112   18.2398   19.7909 H   0  0  0  0  0  0  0  0  0  0  0  0
   20.8556   19.5996   18.8583 H   0  0  0  0  0  0  0  0  0  0  0  0
   19.8577   20.2073   20.7067 C   0  0  0  0  0  0  0  0  0  0  0  0
   18.8673   20.3248   20.2450 H   0  0  0  0  0  0  0  0  0  0  0  0
   20.3330   21.1976   20.6707 H   0  0  0  0  0  0  0  0  0  0  0  0
   19.6988   19.7846   22.1868 C   0  0  0  0  0  0  0  0  0  0  0  0
   20.6957   19.7041   22.6385 H   0  0  0  0  0  0  0  0  0  0  0  0
   19.1671   20.5823   22.7232 H   0  0  0  0  0  0  0  0  0  0  0  0
   18.9331   18.4504   22.3623 C   0  0  0  0  0  0  0  0  0  0  0  0
   19.5492   17.6194   21.9937 H   0  0  0  0  0  0  0  0  0  0  0  0
   18.0353   18.4699   21.7293 H   0  0  0  0  0  0  0  0  0  0  0  0
   18.4898   18.1475   23.8171 C   0  0  0  0  0  0  0  0  0  0  0  0
   17.7859   18.9154   24.1624 H   0  0  0  0  0  0  0  0  0  0  0  0
   17.9131   17.2125   23.7951 H   0  0  0  0  0  0  0  0  0  0  0  0
   19.6519   17.9650   24.8311 C   0  0  0  0  0  0  0  0  0  0  0  0
   20.4677   17.4123   24.3463 H   0  0  0  0  0  0  0  0  0  0  0  0
   19.3034   17.3261   25.6535 H   0  0  0  0  0  0  0  0  0  0  0  0
   20.1973   19.2792   25.4367 C   0  0  2  0  0  0  0  0  0  0  0  0
   20.4902   19.9496   24.6261 H   0  0  0  0  0  0  0  0  0  0  0  0
   21.4419   18.9944   26.2920 C   0  0  0  0  0  0  0  0  0  0  0  0
   22.2272   18.5192   25.6909 H   0  0  0  0  0  0  0  0  0  0  0  0
   21.8537   19.9253   26.7008 H   0  0  0  0  0  0  0  0  0  0  0  0
   21.2037   18.3284   27.1309 H   0  0  0  0  0  0  0  0  0  0  0  0
   19.1616   20.0113   26.2456 N   0  3  0  0  0  0  0  0  0  0  0  0
   18.3421   20.2464   25.6794 H   0  0  0  0  0  0  0  0  0  0  0  0
   19.5334   20.8863   26.6261 H   0  0  0  0  0  0  0  0  0  0  0  0
   18.8386   19.4465   27.0357 H   0  0  0  0  0  0  0  0  0  0  0  0
  1  2  1  0  0  0  0
  1  3  1  0  0  0  0
  1  4  1  0  0  0  0
  1  5  1  0  0  0  0
  5  6  1  0  0  0  0
  5  7  1  0  0  0  0
  5  8  1  0  0  0  0
  8  9  1  0  0  0  0
  8 10  1  0  0  0  0
  8 11  1  0  0  0  0
 11 12  1  0  0  0  0
 11 13  1  0  0  0  0
 11 14  1  0  0  0  0
 14 15  1  0  0  0  0
 14 16  1  0  0  0  0
 14 17  1  0  0  0  0
 17 18  1  0  0  0  0
 17 19  1  0  0  0  0
 17 20  1  0  0  0  0
 20 21  1  0  0  0  0
 20 22  1  0  0  0  0
 22 23  1  0  0  0  0
 22 24  1  0  0  0  0
 22 25  1  0  0  0  0
 20 26  1  0  0  0  0
 26 27  1  0  0  0  0
 26 28  1  0  0  0  0
 26 29  1  0  0  0  0
M  END
> <VM2 Rank>
93

> <Conf_Id>
292

> <Probability>
0.03

> <Sum Probability>
99.17

> <Delta G>
3.583

> <G>
37.286

> <E>
-0.558

> <-TS>
37.844

> <U+W>
-24.703

> <U>
27.777

> <W>
-52.480

> <W(PB)>
-54.933

> <W(SA)>
2.453

> <Valence>
6.108

> <Coulomb>
20.731

> <VdW>
0.938

> <VdW6>
-10.573

> <VdW12>
11.511

> <Bond>
0.307

> <Angle>
1.996

> <Pdih>
3.806

> <Idih>
0.000

> <Tether>
0.000

$$$$
VeraChem MOL file


 29 28  0  0  0  0  0  0  0  0999 V2000     
   20.0034   19.9128   19.1690 C   0  0  0  0  0  0  0  0  0  0  0  0
   19.8943   18.9165   18.7208 H   0  0  0  0  0  0  0  0  0  0  0  0
   19.1228   20.5089   18.8962 H   0  0  0  0  0  0  0  0  0  0  0  0
   20.8849   20.3894   18.7207 H   0  0  0  0  0  0  0  0  0  0  0  0
   20.1561   19.8172   20.7018 C   0  0  0  0  0  0  0  0  0  0  0  0
   20.2932   20.8251   21.1177 H   0  0  0  0  0  0  0  0  0  0  0  0
   21.0669   19.2495   20.9349 H   0  0  0  0  0  0  0  0  0  0  0  0
   18.9263   19.1446   21.3562 C   0  0  0  0  0  0  0  0  0  0  0  0
   18.0191   19.6854   21.0529 H   0  0  0  0  0  0  0  0  0  0  0  0
   18.8167   18.1207   20.9729 H   0  0  0  0  0  0  0  0  0  0  0  0
   18.9888   19.1165   22.9029 C   0  0  0  0  0  0  0  0  0  0  0  0
   18.0403   18.7109   23.2812 H   0  0  0  0  0  0  0  0  0  0  0  0
   19.0665   20.1478   23.2681 H   0  0  0  0  0  0  0  0  0  0  0  0
   20.1631   18.2678   23.4519 C   0  0  0  0  0  0  0  0  0  0  0  0
   20.1969   17.3170   22.9022 H   0  0  0  0  0  0  0  0  0  0  0  0
   21.1163   18.7737   23.2478 H   0  0  0  0  0  0  0  0  0  0  0  0
   20.0762   17.9407   24.9660 C   0  0  0  0  0  0  0  0  0  0  0  0
   20.8860   17.2333   25.1896 H   0  0  0  0  0  0  0  0  0  0  0  0
   19.1427   17.4059   25.1859 H   0  0  0  0  0  0  0  0  0  0  0  0
   20.2189   19.1631   25.9034 C   0  0  2  0  0  0  0  0  0  0  0  0
   21.0013   19.8154   25.5034 H   0  0  0  0  0  0  0  0  0  0  0  0
   20.6423   18.7109   27.3107 C   0  0  0  0  0  0  0  0  0  0  0  0
   20.7628   19.5743   27.9766 H   0  0  0  0  0  0  0  0  0  0  0  0
   19.8956   18.0393   27.7529 H   0  0  0  0  0  0  0  0  0  0  0  0
   21.6026   18.1812   27.2789 H   0  0  0  0  0  0  0  0  0  0  0  0
   18.9609   19.9826   25.9921 N   0  3  0  0  0  0  0  0  0  0  0  0
   19.0930   20.8070   26.5852 H   0  0  0  0  0  0  0  0  0  0  0  0
   18.1911   19.4387   26.3909 H   0  0  0  0  0  0  0  0  0  0  0  0
   18.6624   20.3094   25.0704 H   0  0  0  0  0  0  0  0  0  0  0  0
  1  2  1  0  0  0  0
  1  3  1  0  0  0  0
  1  4  1  0  0  0  0
  1  5  1  0  0  0  0
  5  6  1  0  0  0  0
  5  7  1  0  0  0  0
  5  8  1  0  0  0  0
  8  9  1  0  0  0  0
  8 10  1  0  0  0  0
  8 11  1  0  0  0  0
 11 12  1  0  0  0  0
 11 13  1  0  0  0  0
 11 14  1  0  0  0  0
 14 15  1  0  0  0  0
 14 16  1  0  0  0  0
 14 17  1  0  0  0  0
 17 18  1  0  0  0  0
 17 19  1  0  0  0  0
 17 20  1  0  0  0  0
 20 21  1  0  0  0  0
 20 22  1  0  0  0  0
 22 23  1  0  0  0  0
 22 24  1  0  0  0  0
 22 25  1  0  0  0  0
 20 26  1  0  0  0  0
 26 27  1  0  0  0  0
 26 28  1  0  0  0  0
 26 29  1  0  0  0  0
M  END
> <VM2 Rank>
94

> <Conf_Id>
859

> <Probability>
0.03

> <Sum Probability>
99.20

> <Delta G>
3.590

> <G>
37.292

> <E>
-0.219

> <-TS>
37.511

> <U+W>
-24.363

> <U>
27.700

> <W>
-52.063

> <W(PB)>
-54.565

> <W(SA)>
2.501

> <Valence>
5.425

> <Coulomb>
21.143

> <VdW>
1.132

> <VdW6>
-9.721

> <VdW12>
10.854

> <Bond>
0.283

> <Angle>
1.775

> <Pdih>
3.367

> <Idih>
0.000

> <Tether>
0.000

$$$$
VeraChem MOL file


 29 28  0  0  0  0  0  0  0  0999 V2000     
   18.4843   18.6322   19.9315 C   0  0  0  0  0  0  0  0  0  0  0  0
   18.6696   19.3463   19.1186 H   0  0  0  0  0  0  0  0  0  0  0  0
   18.9330   17.6704   19.6509 H   0  0  0  0  0  0  0  0  0  0  0  0
   17.3991   18.4875   20.0116 H   0  0  0  0  0  0  0  0  0  0  0  0
   19.0652   19.1464   21.2657 C   0  0  0  0  0  0  0  0  0  0  0  0
   18.8259   18.4236   22.0566 H   0  0  0  0  0  0  0  0  0  0  0  0
   18.5795   20.0951   21.5333 H   0  0  0  0  0  0  0  0  0  0  0  0
   20.5955   19.3464   21.1817 C   0  0  0  0  0  0  0  0  0  0  0  0
   21.0802   18.3763   21.0052 H   0  0  0  0  0  0  0  0  0  0  0  0
   20.8266   19.9668   20.3047 H   0  0  0  0  0  0  0  0  0  0  0  0
   21.2250   20.0172   22.4300 C   0  0  0  0  0  0  0  0  0  0  0  0
   20.8320   21.0363   22.5487 H   0  0  0  0  0  0  0  0  0  0  0  0
   22.2994   20.1366   22.2334 H   0  0  0  0  0  0  0  0  0  0  0  0
   21.0616   19.2172   23.7489 C   0  0  0  0  0  0  0  0  0  0  0  0
   21.0028   18.1450   23.5222 H   0  0  0  0  0  0  0  0  0  0  0  0
   21.9706   19.3517   24.3515 H   0  0  0  0  0  0  0  0  0  0  0  0
   19.8485   19.6771   24.6001 C   0  0  0  0  0  0  0  0  0  0  0  0
   18.9131   19.5521   24.0434 H   0  0  0  0  0  0  0  0  0  0  0  0
   19.9496   20.7535   24.7911 H   0  0  0  0  0  0  0  0  0  0  0  0
   19.7358   18.9506   25.9596 C   0  0  2  0  0  0  0  0  0  0  0  0
   20.6964   19.0374   26.4767 H   0  0  0  0  0  0  0  0  0  0  0  0
   19.4038   17.4570   25.7914 C   0  0  0  0  0  0  0  0  0  0  0  0
   19.2770   16.9772   26.7697 H   0  0  0  0  0  0  0  0  0  0  0  0
   18.4762   17.3183   25.2221 H   0  0  0  0  0  0  0  0  0  0  0  0
   20.2086   16.9244   25.2720 H   0  0  0  0  0  0  0  0  0  0  0  0
   18.7164   19.6119   26.8451 N   0  3  0  0  0  0  0  0  0  0  0  0
   18.6662   19.1571   27.7613 H   0  0  0  0  0  0  0  0  0  0  0  0
   17.7804   19.5723   26.4327 H   0  0  0  0  0  0  0  0  0  0  0  0
   18.9405   20.5980   27.0069 H   0  0  0  0  0  0  0  0  0  0  0  0
  1  2  1  0  0  0  0
  1  3  1  0  0  0  0
  1  4  1  0  0  0  0
  1  5  1  0  0  0  0
  5  6  1  0  0  0  0
  5  7  1  0  0  0  0
  5  8  1  0  0  0  0
  8  9  1  0  0  0  0
  8 10  1  0  0  0  0
  8 11  1  0  0  0  0
 11 12  1  0  0  0  0
 11 13  1  0  0  0  0
 11 14  1  0  0  0  0
 14 15  1  0  0  0  0
 14 16  1  0  0  0  0
 14 17  1  0  0  0  0
 17 18  1  0  0  0  0
 17 19  1  0  0  0  0
 17 20  1  0  0  0  0
 20 21  1  0  0  0  0
 20 22  1  0  0  0  0
 22 23  1  0  0  0  0
 22 24  1  0  0  0  0
 22 25  1  0  0  0  0
 20 26  1  0  0  0  0
 26 27  1  0  0  0  0
 26 28  1  0  0  0  0
 26 29  1  0  0  0  0
M  END
> <VM2 Rank>
95

> <Conf_Id>
1536

> <Probability>
0.02

> <Sum Probability>
99.22

> <Delta G>
3.721

> <G>
37.424

> <E>
-0.308

> <-TS>
37.732

> <U+W>
-24.453

> <U>
28.051

> <W>
-52.504

> <W(PB)>
-54.966

> <W(SA)>
2.462

> <Valence>
6.726

> <Coulomb>
20.160

> <VdW>
1.165

> <VdW6>
-9.906

> <VdW12>
11.071

> <Bond>
0.295

> <Angle>
1.941

> <Pdih>
4.490

> <Idih>
0.000

> <Tether>
0.000

$$$$
VeraChem MOL file


 29 28  0  0  0  0  0  0  0  0999 V2000     
   18.3479   19.7121   20.0263 C   0  0  0  0  0  0  0  0  0  0  0  0
   17.9134   20.3844   19.2752 H   0  0  0  0  0  0  0  0  0  0  0  0
   18.2684   18.6860   19.6445 H   0  0  0  0  0  0  0  0  0  0  0  0
   17.7350   19.7906   20.9327 H   0  0  0  0  0  0  0  0  0  0  0  0
   19.8210   20.0897   20.3020 C   0  0  0  0  0  0  0  0  0  0  0  0
   19.8709   21.1083   20.7112 H   0  0  0  0  0  0  0  0  0  0  0  0
   20.3646   20.1151   19.3472 H   0  0  0  0  0  0  0  0  0  0  0  0
   20.5399   19.1058   21.2563 C   0  0  0  0  0  0  0  0  0  0  0  0
   20.5108   18.0941   20.8286 H   0  0  0  0  0  0  0  0  0  0  0  0
   21.6005   19.3871   21.3134 H   0  0  0  0  0  0  0  0  0  0  0  0
   19.9445   19.0870   22.6844 C   0  0  0  0  0  0  0  0  0  0  0  0
   18.9081   18.7261   22.6496 H   0  0  0  0  0  0  0  0  0  0  0  0
   19.9270   20.1143   23.0680 H   0  0  0  0  0  0  0  0  0  0  0  0
   20.7690   18.1852   23.6335 C   0  0  0  0  0  0  0  0  0  0  0  0
   20.9305   17.2143   23.1449 H   0  0  0  0  0  0  0  0  0  0  0  0
   21.7666   18.6222   23.7795 H   0  0  0  0  0  0  0  0  0  0  0  0
   20.1141   17.9206   25.0150 C   0  0  0  0  0  0  0  0  0  0  0  0
   20.7458   17.1883   25.5354 H   0  0  0  0  0  0  0  0  0  0  0  0
   19.1383   17.4344   24.8846 H   0  0  0  0  0  0  0  0  0  0  0  0
   19.9649   19.1709   25.9138 C   0  0  2  0  0  0  0  0  0  0  0  0
   20.8625   19.7866   25.8010 H   0  0  0  0  0  0  0  0  0  0  0  0
   19.8468   18.7579   27.3902 C   0  0  0  0  0  0  0  0  0  0  0  0
   18.9674   18.1227   27.5553 H   0  0  0  0  0  0  0  0  0  0  0  0
   20.7359   18.2019   27.7130 H   0  0  0  0  0  0  0  0  0  0  0  0
   19.7570   19.6409   28.0349 H   0  0  0  0  0  0  0  0  0  0  0  0
   18.7880   20.0268   25.5325 N   0  3  0  0  0  0  0  0  0  0  0  0
   18.7362   20.8701   26.1113 H   0  0  0  0  0  0  0  0  0  0  0  0
   17.9068   19.5198   25.6510 H   0  0  0  0  0  0  0  0  0  0  0  0
   18.8433   20.3247   24.5559 H   0  0  0  0  0  0  0  0  0  0  0  0
  1  2  1  0  0  0  0
  1  3  1  0  0  0  0
  1  4  1  0  0  0  0
  1  5  1  0  0  0  0
  5  6  1  0  0  0  0
  5  7  1  0  0  0  0
  5  8  1  0  0  0  0
  8  9  1  0  0  0  0
  8 10  1  0  0  0  0
  8 11  1  0  0  0  0
 11 12  1  0  0  0  0
 11 13  1  0  0  0  0
 11 14  1  0  0  0  0
 14 15  1  0  0  0  0
 14 16  1  0  0  0  0
 14 17  1  0  0  0  0
 17 18  1  0  0  0  0
 17 19  1  0  0  0  0
 17 20  1  0  0  0  0
 20 21  1  0  0  0  0
 20 22  1  0  0  0  0
 22 23  1  0  0  0  0
 22 24  1  0  0  0  0
 22 25  1  0  0  0  0
 20 26  1  0  0  0  0
 26 27  1  0  0  0  0
 26 28  1  0  0  0  0
 26 29  1  0  0  0  0
M  END
> <VM2 Rank>
96

> <Conf_Id>
199

> <Probability>
0.02

> <Sum Probability>
99.24

> <Delta G>
3.730

> <G>
37.432

> <E>
-0.090

> <-TS>
37.522

> <U+W>
-24.234

> <U>
27.821

> <W>
-52.056

> <W(PB)>
-54.572

> <W(SA)>
2.516

> <Valence>
5.450

> <Coulomb>
21.220

> <VdW>
1.151

> <VdW6>
-9.707

> <VdW12>
10.858

> <Bond>
0.277

> <Angle>
1.826

> <Pdih>
3.348

> <Idih>
0.000

> <Tether>
0.000

$$$$
VeraChem MOL file


 29 28  0  0  0  0  0  0  0  0999 V2000     
   19.6761   19.5327   18.9981 C   0  0  0  0  0  0  0  0  0  0  0  0
   18.8884   20.2658   18.7806 H   0  0  0  0  0  0  0  0  0  0  0  0
   20.6481   20.0255   18.8655 H   0  0  0  0  0  0  0  0  0  0  0  0
   19.6017   18.7282   18.2550 H   0  0  0  0  0  0  0  0  0  0  0  0
   19.5310   18.9691   20.4276 C   0  0  0  0  0  0  0  0  0  0  0  0
   20.3079   18.2111   20.5903 H   0  0  0  0  0  0  0  0  0  0  0  0
   18.5626   18.4579   20.5203 H   0  0  0  0  0  0  0  0  0  0  0  0
   19.6361   20.0862   21.4931 C   0  0  0  0  0  0  0  0  0  0  0  0
   20.6239   20.5640   21.4359 H   0  0  0  0  0  0  0  0  0  0  0  0
   18.9020   20.8689   21.2566 H   0  0  0  0  0  0  0  0  0  0  0  0
   19.3772   19.5960   22.9392 C   0  0  0  0  0  0  0  0  0  0  0  0
   18.4081   19.0800   22.9834 H   0  0  0  0  0  0  0  0  0  0  0  0
   19.2970   20.4846   23.5765 H   0  0  0  0  0  0  0  0  0  0  0  0
   20.4953   18.6746   23.4891 C   0  0  0  0  0  0  0  0  0  0  0  0
   20.6676   17.8505   22.7857 H   0  0  0  0  0  0  0  0  0  0  0  0
   21.4389   19.2354   23.5379 H   0  0  0  0  0  0  0  0  0  0  0  0
   20.1976   18.0455   24.8759 C   0  0  0  0  0  0  0  0  0  0  0  0
   21.0162   17.3464   25.0933 H   0  0  0  0  0  0  0  0  0  0  0  0
   19.2876   17.4331   24.8264 H   0  0  0  0  0  0  0  0  0  0  0  0
   20.0897   19.0576   26.0412 C   0  0  2  0  0  0  0  0  0  0  0  0
   20.8361   19.8430   25.8873 H   0  0  0  0  0  0  0  0  0  0  0  0
   20.3884   18.3658   27.3816 C   0  0  0  0  0  0  0  0  0  0  0  0
   20.3278   19.0818   28.2106 H   0  0  0  0  0  0  0  0  0  0  0  0
   19.6754   17.5549   27.5770 H   0  0  0  0  0  0  0  0  0  0  0  0
   21.3998   17.9406   27.3853 H   0  0  0  0  0  0  0  0  0  0  0  0
   18.7447   19.7284   26.1080 N   0  3  0  0  0  0  0  0  0  0  0  0
   18.7119   20.4261   26.8570 H   0  0  0  0  0  0  0  0  0  0  0  0
   18.0004   19.0497   26.2895 H   0  0  0  0  0  0  0  0  0  0  0  0
   18.5196   20.2047   25.2317 H   0  0  0  0  0  0  0  0  0  0  0  0
  1  2  1  0  0  0  0
  1  3  1  0  0  0  0
  1  4  1  0  0  0  0
  1  5  1  0  0  0  0
  5  6  1  0  0  0  0
  5  7  1  0  0  0  0
  5  8  1  0  0  0  0
  8  9  1  0  0  0  0
  8 10  1  0  0  0  0
  8 11  1  0  0  0  0
 11 12  1  0  0  0  0
 11 13  1  0  0  0  0
 11 14  1  0  0  0  0
 14 15  1  0  0  0  0
 14 16  1  0  0  0  0
 14 17  1  0  0  0  0
 17 18  1  0  0  0  0
 17 19  1  0  0  0  0
 17 20  1  0  0  0  0
 20 21  1  0  0  0  0
 20 22  1  0  0  0  0
 22 23  1  0  0  0  0
 22 24  1  0  0  0  0
 22 25  1  0  0  0  0
 20 26  1  0  0  0  0
 26 27  1  0  0  0  0
 26 28  1  0  0  0  0
 26 29  1  0  0  0  0
M  END
> <VM2 Rank>
97

> <Conf_Id>
1589

> <Probability>
0.02

> <Sum Probability>
99.26

> <Delta G>
3.736

> <G>
37.438

> <E>
0.033

> <-TS>
37.405

> <U+W>
-24.111

> <U>
28.001

> <W>
-52.113

> <W(PB)>
-54.582

> <W(SA)>
2.469

> <Valence>
5.678

> <Coulomb>
21.086

> <VdW>
1.237

> <VdW6>
-9.584

> <VdW12>
10.821

> <Bond>
0.291

> <Angle>
1.936

> <Pdih>
3.451

> <Idih>
0.000

> <Tether>
0.000

$$$$
VeraChem MOL file


 29 28  0  0  0  0  0  0  0  0999 V2000     
   20.9069   20.3698   20.5249 C   0  0  0  0  0  0  0  0  0  0  0  0
   21.7107   19.7944   20.0475 H   0  0  0  0  0  0  0  0  0  0  0  0
   20.8952   21.3676   20.0675 H   0  0  0  0  0  0  0  0  0  0  0  0
   21.1632   20.4930   21.5828 H   0  0  0  0  0  0  0  0  0  0  0  0
   19.5403   19.6715   20.3334 C   0  0  0  0  0  0  0  0  0  0  0  0
   19.3413   19.6085   19.2543 H   0  0  0  0  0  0  0  0  0  0  0  0
   18.7338   20.2881   20.7539 H   0  0  0  0  0  0  0  0  0  0  0  0
   19.4910   18.2406   20.9283 C   0  0  0  0  0  0  0  0  0  0  0  0
   18.8604   17.6210   20.2758 H   0  0  0  0  0  0  0  0  0  0  0  0
   20.4887   17.7817   20.8974 H   0  0  0  0  0  0  0  0  0  0  0  0
   18.9068   18.1506   22.3618 C   0  0  0  0  0  0  0  0  0  0  0  0
   18.8593   17.0906   22.6472 H   0  0  0  0  0  0  0  0  0  0  0  0
   17.8694   18.5125   22.3557 H   0  0  0  0  0  0  0  0  0  0  0  0
   19.7152   18.9230   23.4298 C   0  0  0  0  0  0  0  0  0  0  0  0
   20.7719   18.6345   23.3572 H   0  0  0  0  0  0  0  0  0  0  0  0
   19.6545   20.0005   23.2290 H   0  0  0  0  0  0  0  0  0  0  0  0
   19.1859   18.6481   24.8587 C   0  0  0  0  0  0  0  0  0  0  0  0
   19.3075   17.5839   25.1007 H   0  0  0  0  0  0  0  0  0  0  0  0
   18.1068   18.8503   24.8763 H   0  0  0  0  0  0  0  0  0  0  0  0
   19.8627   19.5095   25.9492 C   0  0  2  0  0  0  0  0  0  0  0  0
   19.7597   20.5622   25.6681 H   0  0  0  0  0  0  0  0  0  0  0  0
   21.3610   19.1889   26.0957 C   0  0  0  0  0  0  0  0  0  0  0  0
   21.8033   19.7740   26.9114 H   0  0  0  0  0  0  0  0  0  0  0  0
   21.5196   18.1256   26.3150 H   0  0  0  0  0  0  0  0  0  0  0  0
   21.9135   19.4380   25.1824 H   0  0  0  0  0  0  0  0  0  0  0  0
   19.1660   19.3539   27.2723 N   0  3  0  0  0  0  0  0  0  0  0  0
   19.2184   18.3895   27.6113 H   0  0  0  0  0  0  0  0  0  0  0  0
   18.1750   19.6044   27.2085 H   0  0  0  0  0  0  0  0  0  0  0  0
   19.5860   19.9529   27.9889 H   0  0  0  0  0  0  0  0  0  0  0  0
  1  2  1  0  0  0  0
  1  3  1  0  0  0  0
  1  4  1  0  0  0  0
  1  5  1  0  0  0  0
  5  6  1  0  0  0  0
  5  7  1  0  0  0  0
  5  8  1  0  0  0  0
  8  9  1  0  0  0  0
  8 10  1  0  0  0  0
  8 11  1  0  0  0  0
 11 12  1  0  0  0  0
 11 13  1  0  0  0  0
 11 14  1  0  0  0  0
 14 15  1  0  0  0  0
 14 16  1  0  0  0  0
 14 17  1  0  0  0  0
 17 18  1  0  0  0  0
 17 19  1  0  0  0  0
 17 20  1  0  0  0  0
 20 21  1  0  0  0  0
 20 22  1  0  0  0  0
 22 23  1  0  0  0  0
 22 24  1  0  0  0  0
 22 25  1  0  0  0  0
 20 26  1  0  0  0  0
 26 27  1  0  0  0  0
 26 28  1  0  0  0  0
 26 29  1  0  0  0  0
M  END
> <VM2 Rank>
98

> <Conf_Id>
1337

> <Probability>
0.02

> <Sum Probability>
99.28

> <Delta G>
3.748

> <G>
37.450

> <E>
-0.302

> <-TS>
37.752

> <U+W>
-24.447

> <U>
27.666

> <W>
-52.113

> <W(PB)>
-54.554

> <W(SA)>
2.441

> <Valence>
6.690

> <Coulomb>
19.707

> <VdW>
1.268

> <VdW6>
-9.727

> <VdW12>
10.995

> <Bond>
0.283

> <Angle>
1.951

> <Pdih>
4.457

> <Idih>
0.000

> <Tether>
0.000

$$$$
VeraChem MOL file


 29 28  0  0  0  0  0  0  0  0999 V2000     
   20.0424   20.7262   20.6115 C   0  0  0  0  0  0  0  0  0  0  0  0
   21.0826   20.7724   20.9589 H   0  0  0  0  0  0  0  0  0  0  0  0
   19.9091   21.5006   19.8451 H   0  0  0  0  0  0  0  0  0  0  0  0
   19.3813   20.9783   21.4497 H   0  0  0  0  0  0  0  0  0  0  0  0
   19.7089   19.3333   20.0344 C   0  0  0  0  0  0  0  0  0  0  0  0
   20.2699   19.1961   19.0995 H   0  0  0  0  0  0  0  0  0  0  0  0
   18.6456   19.2982   19.7590 H   0  0  0  0  0  0  0  0  0  0  0  0
   20.0391   18.1527   20.9829 C   0  0  0  0  0  0  0  0  0  0  0  0
   19.8073   17.2229   20.4453 H   0  0  0  0  0  0  0  0  0  0  0  0
   21.1192   18.1183   21.1810 H   0  0  0  0  0  0  0  0  0  0  0  0
   19.2461   18.1497   22.3159 C   0  0  0  0  0  0  0  0  0  0  0  0
   19.0320   17.1074   22.5901 H   0  0  0  0  0  0  0  0  0  0  0  0
   18.2698   18.6329   22.1731 H   0  0  0  0  0  0  0  0  0  0  0  0
   20.0112   18.8088   23.4898 C   0  0  0  0  0  0  0  0  0  0  0  0
   20.9588   18.2749   23.6383 H   0  0  0  0  0  0  0  0  0  0  0  0
   20.2693   19.8456   23.2442 H   0  0  0  0  0  0  0  0  0  0  0  0
   19.1817   18.7855   24.7971 C   0  0  0  0  0  0  0  0  0  0  0  0
   18.9856   17.7464   25.0933 H   0  0  0  0  0  0  0  0  0  0  0  0
   18.2033   19.2423   24.5976 H   0  0  0  0  0  0  0  0  0  0  0  0
   19.8449   19.5443   25.9692 C   0  0  2  0  0  0  0  0  0  0  0  0
   20.0660   20.5633   25.6371 H   0  0  0  0  0  0  0  0  0  0  0  0
   21.1595   18.8825   26.4198 C   0  0  0  0  0  0  0  0  0  0  0  0
   21.9142   18.9130   25.6256 H   0  0  0  0  0  0  0  0  0  0  0  0
   21.5795   19.4085   27.2860 H   0  0  0  0  0  0  0  0  0  0  0  0
   20.9995   17.8347   26.7030 H   0  0  0  0  0  0  0  0  0  0  0  0
   18.9023   19.6730   27.1333 N   0  3  0  0  0  0  0  0  0  0  0  0
   18.0365   20.1507   26.8667 H   0  0  0  0  0  0  0  0  0  0  0  0
   19.3229   20.2093   27.8976 H   0  0  0  0  0  0  0  0  0  0  0  0
   18.6448   18.7564   27.5091 H   0  0  0  0  0  0  0  0  0  0  0  0
  1  2  1  0  0  0  0
  1  3  1  0  0  0  0
  1  4  1  0  0  0  0
  1  5  1  0  0  0  0
  5  6  1  0  0  0  0
  5  7  1  0  0  0  0
  5  8  1  0  0  0  0
  8  9  1  0  0  0  0
  8 10  1  0  0  0  0
  8 11  1  0  0  0  0
 11 12  1  0  0  0  0
 11 13  1  0  0  0  0
 11 14  1  0  0  0  0
 14 15  1  0  0  0  0
 14 16  1  0  0  0  0
 14 17  1  0  0  0  0
 17 18  1  0  0  0  0
 17 19  1  0  0  0  0
 17 20  1  0  0  0  0
 20 21  1  0  0  0  0
 20 22  1  0  0  0  0
 22 23  1  0  0  0  0
 22 24  1  0  0  0  0
 22 25  1  0  0  0  0
 20 26  1  0  0  0  0
 26 27  1  0  0  0  0
 26 28  1  0  0  0  0
 26 29  1  0  0  0  0
M  END
> <VM2 Rank>
99

> <Conf_Id>
1010

> <Probability>
0.02

> <Sum Probability>
99.30

> <Delta G>
3.750

> <G>
37.452

> <E>
-0.297

> <-TS>
37.750

> <U+W>
-24.442

> <U>
27.705

> <W>
-52.147

> <W(PB)>
-54.638

> <W(SA)>
2.492

> <Valence>
6.675

> <Coulomb>
19.752

> <VdW>
1.278

> <VdW6>
-9.693

> <VdW12>
10.971

> <Bond>
0.285

> <Angle>
1.922

> <Pdih>
4.468

> <Idih>
0.000

> <Tether>
0.000

$$$$
VeraChem MOL file


 29 28  0  0  0  0  0  0  0  0999 V2000     
   20.7508   18.0426   20.6075 C   0  0  0  0  0  0  0  0  0  0  0  0
   21.6828   18.5114   20.9487 H   0  0  0  0  0  0  0  0  0  0  0  0
   20.3156   17.4794   21.4423 H   0  0  0  0  0  0  0  0  0  0  0  0
   21.0063   17.3193   19.8224 H   0  0  0  0  0  0  0  0  0  0  0  0
   19.7614   19.0979   20.0672 C   0  0  0  0  0  0  0  0  0  0  0  0
   18.8172   18.6060   19.7947 H   0  0  0  0  0  0  0  0  0  0  0  0
   20.1667   19.5157   19.1350 H   0  0  0  0  0  0  0  0  0  0  0  0
   19.4751   20.2659   21.0453 C   0  0  0  0  0  0  0  0  0  0  0  0
   20.3981   20.8282   21.2426 H   0  0  0  0  0  0  0  0  0  0  0  0
   18.8043   20.9690   20.5324 H   0  0  0  0  0  0  0  0  0  0  0  0
   18.8050   19.8451   22.3792 C   0  0  0  0  0  0  0  0  0  0  0  0
   18.2013   18.9397   22.2276 H   0  0  0  0  0  0  0  0  0  0  0  0
   18.1003   20.6337   22.6776 H   0  0  0  0  0  0  0  0  0  0  0  0
   19.8136   19.6352   23.5351 C   0  0  0  0  0  0  0  0  0  0  0  0
   20.5606   18.8883   23.2461 H   0  0  0  0  0  0  0  0  0  0  0  0
   20.3585   20.5719   23.7165 H   0  0  0  0  0  0  0  0  0  0  0  0
   19.1048   19.1927   24.8387 C   0  0  0  0  0  0  0  0  0  0  0  0
   18.6084   18.2261   24.6801 H   0  0  0  0  0  0  0  0  0  0  0  0
   18.3113   19.9162   25.0680 H   0  0  0  0  0  0  0  0  0  0  0  0
   20.0482   19.0983   26.0596 C   0  0  2  0  0  0  0  0  0  0  0  0
   20.5637   20.0572   26.1703 H   0  0  0  0  0  0  0  0  0  0  0  0
   21.1059   17.9924   25.8923 C   0  0  0  0  0  0  0  0  0  0  0  0
   21.7243   17.9099   26.7946 H   0  0  0  0  0  0  0  0  0  0  0  0
   20.6358   17.0177   25.7119 H   0  0  0  0  0  0  0  0  0  0  0  0
   21.7811   18.2088   25.0565 H   0  0  0  0  0  0  0  0  0  0  0  0
   19.2712   18.8858   27.3290 N   0  3  0  0  0  0  0  0  0  0  0  0
   19.8885   18.8620   28.1458 H   0  0  0  0  0  0  0  0  0  0  0  0
   18.7568   18.0011   27.3090 H   0  0  0  0  0  0  0  0  0  0  0  0
   18.5899   19.6346   27.4840 H   0  0  0  0  0  0  0  0  0  0  0  0
  1  2  1  0  0  0  0
  1  3  1  0  0  0  0
  1  4  1  0  0  0  0
  1  5  1  0  0  0  0
  5  6  1  0  0  0  0
  5  7  1  0  0  0  0
  5  8  1  0  0  0  0
  8  9  1  0  0  0  0
  8 10  1  0  0  0  0
  8 11  1  0  0  0  0
 11 12  1  0  0  0  0
 11 13  1  0  0  0  0
 11 14  1  0  0  0  0
 14 15  1  0  0  0  0
 14 16  1  0  0  0  0
 14 17  1  0  0  0  0
 17 18  1  0  0  0  0
 17 19  1  0  0  0  0
 17 20  1  0  0  0  0
 20 21  1  0  0  0  0
 20 22  1  0  0  0  0
 22 23  1  0  0  0  0
 22 24  1  0  0  0  0
 22 25  1  0  0  0  0
 20 26  1  0  0  0  0
 26 27  1  0  0  0  0
 26 28  1  0  0  0  0
 26 29  1  0  0  0  0
M  END
> <VM2 Rank>
100

> <Conf_Id>
1531

> <Probability>
0.02

> <Sum Probability>
99.31

> <Delta G>
3.754

> <G>
37.456

> <E>
-0.303

> <-TS>
37.759

> <U+W>
-24.448

> <U>
27.633

> <W>
-52.080

> <W(PB)>
-54.518

> <W(SA)>
2.438

> <Valence>
6.676

> <Coulomb>
19.710

> <VdW>
1.246

> <VdW6>
-9.759

> <VdW12>
11.005

> <Bond>
0.286

> <Angle>
1.893

> <Pdih>
4.497

> <Idih>
0.000

> <Tether>
0.000

$$$$
VeraChem MOL file


 29 28  0  0  0  0  0  0  0  0999 V2000     
   18.8984   17.9581   20.7184 C   0  0  0  0  0  0  0  0  0  0  0  0
   18.6746   17.2482   19.9117 H   0  0  0  0  0  0  0  0  0  0  0  0
   19.4927   17.4232   21.4694 H   0  0  0  0  0  0  0  0  0  0  0  0
   17.9465   18.2599   21.1742 H   0  0  0  0  0  0  0  0  0  0  0  0
   19.6632   19.1800   20.1647 C   0  0  0  0  0  0  0  0  0  0  0  0
   19.1105   19.5806   19.3035 H   0  0  0  0  0  0  0  0  0  0  0  0
   20.6378   18.8537   19.7754 H   0  0  0  0  0  0  0  0  0  0  0  0
   19.8703   20.3235   21.1905 C   0  0  0  0  0  0  0  0  0  0  0  0
   20.3766   21.1473   20.6686 H   0  0  0  0  0  0  0  0  0  0  0  0
   18.8988   20.7268   21.5075 H   0  0  0  0  0  0  0  0  0  0  0  0
   20.7237   19.9387   22.4270 C   0  0  0  0  0  0  0  0  0  0  0  0
   21.3296   20.8088   22.7154 H   0  0  0  0  0  0  0  0  0  0  0  0
   21.4370   19.1470   22.1597 H   0  0  0  0  0  0  0  0  0  0  0  0
   19.8768   19.5132   23.6513 C   0  0  0  0  0  0  0  0  0  0  0  0
   19.2178   20.3440   23.9355 H   0  0  0  0  0  0  0  0  0  0  0  0
   19.2265   18.6744   23.3810 H   0  0  0  0  0  0  0  0  0  0  0  0
   20.7730   19.1163   24.8531 C   0  0  0  0  0  0  0  0  0  0  0  0
   21.4441   19.9512   25.0939 H   0  0  0  0  0  0  0  0  0  0  0  0
   21.4231   18.2812   24.5601 H   0  0  0  0  0  0  0  0  0  0  0  0
   20.0050   18.7208   26.1364 C   0  0  2  0  0  0  0  0  0  0  0  0
   20.7508   18.4980   26.9057 H   0  0  0  0  0  0  0  0  0  0  0  0
   19.1531   17.4554   25.9347 C   0  0  0  0  0  0  0  0  0  0  0  0
   19.7616   16.6355   25.5334 H   0  0  0  0  0  0  0  0  0  0  0  0
   18.7327   17.1202   26.8908 H   0  0  0  0  0  0  0  0  0  0  0  0
   18.3183   17.6332   25.2465 H   0  0  0  0  0  0  0  0  0  0  0  0
   19.1724   19.8500   26.6779 N   0  3  0  0  0  0  0  0  0  0  0  0
   19.7408   20.6827   26.8573 H   0  0  0  0  0  0  0  0  0  0  0  0
   18.7203   19.5920   27.5597 H   0  0  0  0  0  0  0  0  0  0  0  0
   18.4349   20.1155   26.0206 H   0  0  0  0  0  0  0  0  0  0  0  0
  1  2  1  0  0  0  0
  1  3  1  0  0  0  0
  1  4  1  0  0  0  0
  1  5  1  0  0  0  0
  5  6  1  0  0  0  0
  5  7  1  0  0  0  0
  5  8  1  0  0  0  0
  8  9  1  0  0  0  0
  8 10  1  0  0  0  0
  8 11  1  0  0  0  0
 11 12  1  0  0  0  0
 11 13  1  0  0  0  0
 11 14  1  0  0  0  0
 14 15  1  0  0  0  0
 14 16  1  0  0  0  0
 14 17  1  0  0  0  0
 17 18  1  0  0  0  0
 17 19  1  0  0  0  0
 17 20  1  0  0  0  0
 20 21  1  0  0  0  0
 20 22  1  0  0  0  0
 22 23  1  0  0  0  0
 22 24  1  0  0  0  0
 22 25  1  0  0  0  0
 20 26  1  0  0  0  0
 26 27  1  0  0  0  0
 26 28  1  0  0  0  0
 26 29  1  0  0  0  0
M  END
> <VM2 Rank>
101

> <Conf_Id>
606

> <Probability>
0.02

> <Sum Probability>
99.33

> <Delta G>
3.771

> <G>
37.473

> <E>
-0.420

> <-TS>
37.893

> <U+W>
-24.565

> <U>
27.852

> <W>
-52.416

> <W(PB)>
-54.827

> <W(SA)>
2.412

> <Valence>
6.641

> <Coulomb>
19.992

> <VdW>
1.219

> <VdW6>
-10.253

> <VdW12>
11.472

> <Bond>
0.310

> <Angle>
1.947

> <Pdih>
4.385

> <Idih>
0.000

> <Tether>
0.000

$$$$
VeraChem MOL file


 29 28  0  0  0  0  0  0  0  0999 V2000     
   18.2553   19.4232   20.0096 C   0  0  0  0  0  0  0  0  0  0  0  0
   18.6989   19.0878   19.0630 H   0  0  0  0  0  0  0  0  0  0  0  0
   17.6337   18.6086   20.4037 H   0  0  0  0  0  0  0  0  0  0  0  0
   17.5969   20.2738   19.7904 H   0  0  0  0  0  0  0  0  0  0  0  0
   19.3476   19.8264   21.0224 C   0  0  0  0  0  0  0  0  0  0  0  0
   18.8691   20.1966   21.9368 H   0  0  0  0  0  0  0  0  0  0  0  0
   19.9291   20.6642   20.6130 H   0  0  0  0  0  0  0  0  0  0  0  0
   20.2951   18.6442   21.3389 C   0  0  0  0  0  0  0  0  0  0  0  0
   19.7214   17.7789   21.6983 H   0  0  0  0  0  0  0  0  0  0  0  0
   20.7670   18.3253   20.3992 H   0  0  0  0  0  0  0  0  0  0  0  0
   21.4143   19.0003   22.3521 C   0  0  0  0  0  0  0  0  0  0  0  0
   21.6774   20.0640   22.2724 H   0  0  0  0  0  0  0  0  0  0  0  0
   22.3211   18.4498   22.0658 H   0  0  0  0  0  0  0  0  0  0  0  0
   21.0950   18.6364   23.8251 C   0  0  0  0  0  0  0  0  0  0  0  0
   20.9326   17.5527   23.8960 H   0  0  0  0  0  0  0  0  0  0  0  0
   21.9824   18.8558   24.4348 H   0  0  0  0  0  0  0  0  0  0  0  0
   19.8792   19.3916   24.4177 C   0  0  0  0  0  0  0  0  0  0  0  0
   18.9568   19.0516   23.9304 H   0  0  0  0  0  0  0  0  0  0  0  0
   19.9858   20.4605   24.1912 H   0  0  0  0  0  0  0  0  0  0  0  0
   19.7346   19.2266   25.9475 C   0  0  2  0  0  0  0  0  0  0  0  0
   20.6747   19.5332   26.4162 H   0  0  0  0  0  0  0  0  0  0  0  0
   19.4437   17.7689   26.3472 C   0  0  0  0  0  0  0  0  0  0  0  0
   19.2989   17.6873   27.4315 H   0  0  0  0  0  0  0  0  0  0  0  0
   18.5377   17.3954   25.8539 H   0  0  0  0  0  0  0  0  0  0  0  0
   20.2773   17.1089   26.0807 H   0  0  0  0  0  0  0  0  0  0  0  0
   18.6712   20.1384   26.4935 N   0  3  0  0  0  0  0  0  0  0  0  0
   18.5996   20.0608   27.5122 H   0  0  0  0  0  0  0  0  0  0  0  0
   17.7511   19.9150   26.1048 H   0  0  0  0  0  0  0  0  0  0  0  0
   18.8679   21.1197   26.2761 H   0  0  0  0  0  0  0  0  0  0  0  0
  1  2  1  0  0  0  0
  1  3  1  0  0  0  0
  1  4  1  0  0  0  0
  1  5  1  0  0  0  0
  5  6  1  0  0  0  0
  5  7  1  0  0  0  0
  5  8  1  0  0  0  0
  8  9  1  0  0  0  0
  8 10  1  0  0  0  0
  8 11  1  0  0  0  0
 11 12  1  0  0  0  0
 11 13  1  0  0  0  0
 11 14  1  0  0  0  0
 14 15  1  0  0  0  0
 14 16  1  0  0  0  0
 14 17  1  0  0  0  0
 17 18  1  0  0  0  0
 17 19  1  0  0  0  0
 17 20  1  0  0  0  0
 20 21  1  0  0  0  0
 20 22  1  0  0  0  0
 22 23  1  0  0  0  0
 22 24  1  0  0  0  0
 22 25  1  0  0  0  0
 20 26  1  0  0  0  0
 26 27  1  0  0  0  0
 26 28  1  0  0  0  0
 26 29  1  0  0  0  0
M  END
> <VM2 Rank>
102

> <Conf_Id>
1215

> <Probability>
0.02

> <Sum Probability>
99.35

> <Delta G>
3.773

> <G>
37.475

> <E>
-0.326

> <-TS>
37.801

> <U+W>
-24.470

> <U>
28.013

> <W>
-52.484

> <W(PB)>
-54.954

> <W(SA)>
2.471

> <Valence>
6.671

> <Coulomb>
20.180

> <VdW>
1.162

> <VdW6>
-9.852

> <VdW12>
11.014

> <Bond>
0.284

> <Angle>
1.876

> <Pdih>
4.512

> <Idih>
0.000

> <Tether>
0.000

$$$$
VeraChem MOL file


 29 28  0  0  0  0  0  0  0  0999 V2000     
   20.5551   19.7384   19.3123 C   0  0  0  0  0  0  0  0  0  0  0  0
   21.4418   20.3342   19.0595 H   0  0  0  0  0  0  0  0  0  0  0  0
   20.6285   18.7820   18.7783 H   0  0  0  0  0  0  0  0  0  0  0  0
   19.6720   20.2724   18.9378 H   0  0  0  0  0  0  0  0  0  0  0  0
   20.4637   19.5175   20.8370 C   0  0  0  0  0  0  0  0  0  0  0  0
   20.4340   20.4946   21.3367 H   0  0  0  0  0  0  0  0  0  0  0  0
   21.3728   19.0082   21.1861 H   0  0  0  0  0  0  0  0  0  0  0  0
   19.2183   18.6826   21.2178 C   0  0  0  0  0  0  0  0  0  0  0  0
   18.3065   19.2159   20.9154 H   0  0  0  0  0  0  0  0  0  0  0  0
   19.2305   17.7445   20.6459 H   0  0  0  0  0  0  0  0  0  0  0  0
   19.1436   18.3362   22.7249 C   0  0  0  0  0  0  0  0  0  0  0  0
   20.0543   17.8001   23.0177 H   0  0  0  0  0  0  0  0  0  0  0  0
   18.3148   17.6309   22.8758 H   0  0  0  0  0  0  0  0  0  0  0  0
   18.9168   19.5735   23.6322 C   0  0  0  0  0  0  0  0  0  0  0  0
   19.7211   20.3094   23.5048 H   0  0  0  0  0  0  0  0  0  0  0  0
   17.9944   20.0721   23.3037 H   0  0  0  0  0  0  0  0  0  0  0  0
   18.7726   19.2148   25.1352 C   0  0  0  0  0  0  0  0  0  0  0  0
   18.3744   18.1978   25.2488 H   0  0  0  0  0  0  0  0  0  0  0  0
   18.0149   19.8818   25.5672 H   0  0  0  0  0  0  0  0  0  0  0  0
   20.0656   19.3785   25.9701 C   0  0  2  0  0  0  0  0  0  0  0  0
   20.4006   20.4162   25.8783 H   0  0  0  0  0  0  0  0  0  0  0  0
   21.2058   18.4634   25.4931 C   0  0  0  0  0  0  0  0  0  0  0  0
   20.8903   17.4129   25.4716 H   0  0  0  0  0  0  0  0  0  0  0  0
   21.5441   18.7476   24.4900 H   0  0  0  0  0  0  0  0  0  0  0  0
   22.0727   18.5453   26.1603 H   0  0  0  0  0  0  0  0  0  0  0  0
   19.7945   19.1512   27.4314 N   0  3  0  0  0  0  0  0  0  0  0  0
   20.6349   19.3049   27.9959 H   0  0  0  0  0  0  0  0  0  0  0  0
   19.4786   18.1937   27.6083 H   0  0  0  0  0  0  0  0  0  0  0  0
   19.0707   19.7843   27.7838 H   0  0  0  0  0  0  0  0  0  0  0  0
  1  2  1  0  0  0  0
  1  3  1  0  0  0  0
  1  4  1  0  0  0  0
  1  5  1  0  0  0  0
  5  6  1  0  0  0  0
  5  7  1  0  0  0  0
  5  8  1  0  0  0  0
  8  9  1  0  0  0  0
  8 10  1  0  0  0  0
  8 11  1  0  0  0  0
 11 12  1  0  0  0  0
 11 13  1  0  0  0  0
 11 14  1  0  0  0  0
 14 15  1  0  0  0  0
 14 16  1  0  0  0  0
 14 17  1  0  0  0  0
 17 18  1  0  0  0  0
 17 19  1  0  0  0  0
 17 20  1  0  0  0  0
 20 21  1  0  0  0  0
 20 22  1  0  0  0  0
 22 23  1  0  0  0  0
 22 24  1  0  0  0  0
 22 25  1  0  0  0  0
 20 26  1  0  0  0  0
 26 27  1  0  0  0  0
 26 28  1  0  0  0  0
 26 29  1  0  0  0  0
M  END
> <VM2 Rank>
103

> <Conf_Id>
1002

> <Probability>
0.02

> <Sum Probability>
99.37

> <Delta G>
3.783

> <G>
37.485

> <E>
-0.253

> <-TS>
37.739

> <U+W>
-24.398

> <U>
27.862

> <W>
-52.260

> <W(PB)>
-54.709

> <W(SA)>
2.449

> <Valence>
6.792

> <Coulomb>
19.861

> <VdW>
1.208

> <VdW6>
-9.832

> <VdW12>
11.040

> <Bond>
0.295

> <Angle>
1.936

> <Pdih>
4.561

> <Idih>
0.000

> <Tether>
0.000

$$$$
VeraChem MOL file


 29 28  0  0  0  0  0  0  0  0999 V2000     
   20.1576   17.8141   20.0316 C   0  0  0  0  0  0  0  0  0  0  0  0
   21.2434   17.7735   20.1875 H   0  0  0  0  0  0  0  0  0  0  0  0
   19.6750   17.2111   20.8107 H   0  0  0  0  0  0  0  0  0  0  0  0
   19.9391   17.3406   19.0657 H   0  0  0  0  0  0  0  0  0  0  0  0
   19.6484   19.2733   20.0455 C   0  0  0  0  0  0  0  0  0  0  0  0
   18.5566   19.2853   19.9204 H   0  0  0  0  0  0  0  0  0  0  0  0
   20.0634   19.8011   19.1754 H   0  0  0  0  0  0  0  0  0  0  0  0
   20.0370   20.0485   21.3275 C   0  0  0  0  0  0  0  0  0  0  0  0
   21.1301   20.0488   21.4382 H   0  0  0  0  0  0  0  0  0  0  0  0
   19.7384   21.0987   21.2042 H   0  0  0  0  0  0  0  0  0  0  0  0
   19.3829   19.4844   22.6113 C   0  0  0  0  0  0  0  0  0  0  0  0
   19.7170   18.4537   22.7730 H   0  0  0  0  0  0  0  0  0  0  0  0
   18.2932   19.4437   22.4770 H   0  0  0  0  0  0  0  0  0  0  0  0
   19.7146   20.3516   23.8505 C   0  0  0  0  0  0  0  0  0  0  0  0
   20.8019   20.4676   23.9588 H   0  0  0  0  0  0  0  0  0  0  0  0
   19.3183   21.3617   23.6769 H   0  0  0  0  0  0  0  0  0  0  0  0
   19.1036   19.8035   25.1674 C   0  0  0  0  0  0  0  0  0  0  0  0
   18.1937   19.2268   24.9545 H   0  0  0  0  0  0  0  0  0  0  0  0
   18.7786   20.6629   25.7686 H   0  0  0  0  0  0  0  0  0  0  0  0
   20.0745   18.9687   26.0370 C   0  0  2  0  0  0  0  0  0  0  0  0
   20.9437   19.5915   26.2697 H   0  0  0  0  0  0  0  0  0  0  0  0
   20.5719   17.6982   25.3274 C   0  0  0  0  0  0  0  0  0  0  0  0
   19.7331   17.0787   24.9863 H   0  0  0  0  0  0  0  0  0  0  0  0
   21.1953   17.9499   24.4616 H   0  0  0  0  0  0  0  0  0  0  0  0
   21.1890   17.0937   26.0034 H   0  0  0  0  0  0  0  0  0  0  0  0
   19.4456   18.6138   27.3557 N   0  3  0  0  0  0  0  0  0  0  0  0
   20.0990   18.1024   27.9560 H   0  0  0  0  0  0  0  0  0  0  0  0
   18.6202   18.0219   27.2289 H   0  0  0  0  0  0  0  0  0  0  0  0
   19.1498   19.4488   27.8696 H   0  0  0  0  0  0  0  0  0  0  0  0
  1  2  1  0  0  0  0
  1  3  1  0  0  0  0
  1  4  1  0  0  0  0
  1  5  1  0  0  0  0
  5  6  1  0  0  0  0
  5  7  1  0  0  0  0
  5  8  1  0  0  0  0
  8  9  1  0  0  0  0
  8 10  1  0  0  0  0
  8 11  1  0  0  0  0
 11 12  1  0  0  0  0
 11 13  1  0  0  0  0
 11 14  1  0  0  0  0
 14 15  1  0  0  0  0
 14 16  1  0  0  0  0
 14 17  1  0  0  0  0
 17 18  1  0  0  0  0
 17 19  1  0  0  0  0
 17 20  1  0  0  0  0
 20 21  1  0  0  0  0
 20 22  1  0  0  0  0
 22 23  1  0  0  0  0
 22 24  1  0  0  0  0
 22 25  1  0  0  0  0
 20 26  1  0  0  0  0
 26 27  1  0  0  0  0
 26 28  1  0  0  0  0
 26 29  1  0  0  0  0
M  END
> <VM2 Rank>
104

> <Conf_Id>
267

> <Probability>
0.02

> <Sum Probability>
99.39

> <Delta G>
3.803

> <G>
37.506

> <E>
-0.288

> <-TS>
37.793

> <U+W>
-24.432

> <U>
27.713

> <W>
-52.145

> <W(PB)>
-54.603

> <W(SA)>
2.458

> <Valence>
6.758

> <Coulomb>
19.720

> <VdW>
1.235

> <VdW6>
-9.782

> <VdW12>
11.017

> <Bond>
0.287

> <Angle>
1.880

> <Pdih>
4.591

> <Idih>
0.000

> <Tether>
0.000

$$$$
VeraChem MOL file


 29 28  0  0  0  0  0  0  0  0999 V2000     
   19.3864   18.8044   19.3279 C   0  0  0  0  0  0  0  0  0  0  0  0
   20.2553   19.3311   18.9123 H   0  0  0  0  0  0  0  0  0  0  0  0
   19.3338   17.8152   18.8551 H   0  0  0  0  0  0  0  0  0  0  0  0
   18.4826   19.3606   19.0467 H   0  0  0  0  0  0  0  0  0  0  0  0
   19.5011   18.6701   20.8611 C   0  0  0  0  0  0  0  0  0  0  0  0
   20.3925   18.0753   21.1010 H   0  0  0  0  0  0  0  0  0  0  0  0
   18.6340   18.1141   21.2438 H   0  0  0  0  0  0  0  0  0  0  0  0
   19.5810   20.0530   21.5498 C   0  0  0  0  0  0  0  0  0  0  0  0
   20.4752   20.5887   21.2026 H   0  0  0  0  0  0  0  0  0  0  0  0
   18.7188   20.6583   21.2374 H   0  0  0  0  0  0  0  0  0  0  0  0
   19.5908   19.9726   23.0959 C   0  0  0  0  0  0  0  0  0  0  0  0
   18.6804   19.4576   23.4262 H   0  0  0  0  0  0  0  0  0  0  0  0
   19.5451   20.9944   23.4971 H   0  0  0  0  0  0  0  0  0  0  0  0
   20.8422   19.2580   23.6643 C   0  0  0  0  0  0  0  0  0  0  0  0
   20.8205   18.1931   23.3998 H   0  0  0  0  0  0  0  0  0  0  0  0
   21.7343   19.6694   23.1723 H   0  0  0  0  0  0  0  0  0  0  0  0
   21.0331   19.4115   25.1996 C   0  0  0  0  0  0  0  0  0  0  0  0
   21.1761   20.4724   25.4433 H   0  0  0  0  0  0  0  0  0  0  0  0
   21.9781   18.9217   25.4689 H   0  0  0  0  0  0  0  0  0  0  0  0
   19.9274   18.8291   26.1166 C   0  0  2  0  0  0  0  0  0  0  0  0
   20.3271   18.8344   27.1354 H   0  0  0  0  0  0  0  0  0  0  0  0
   19.5811   17.3712   25.7674 C   0  0  0  0  0  0  0  0  0  0  0  0
   19.0854   17.2951   24.7922 H   0  0  0  0  0  0  0  0  0  0  0  0
   20.4863   16.7520   25.7431 H   0  0  0  0  0  0  0  0  0  0  0  0
   18.9067   16.9457   26.5206 H   0  0  0  0  0  0  0  0  0  0  0  0
   18.6929   19.6861   26.1714 N   0  3  0  0  0  0  0  0  0  0  0  0
   18.2448   19.7497   25.2550 H   0  0  0  0  0  0  0  0  0  0  0  0
   18.9122   20.6391   26.4753 H   0  0  0  0  0  0  0  0  0  0  0  0
   18.0041   19.3069   26.8276 H   0  0  0  0  0  0  0  0  0  0  0  0
  1  2  1  0  0  0  0
  1  3  1  0  0  0  0
  1  4  1  0  0  0  0
  1  5  1  0  0  0  0
  5  6  1  0  0  0  0
  5  7  1  0  0  0  0
  5  8  1  0  0  0  0
  8  9  1  0  0  0  0
  8 10  1  0  0  0  0
  8 11  1  0  0  0  0
 11 12  1  0  0  0  0
 11 13  1  0  0  0  0
 11 14  1  0  0  0  0
 14 15  1  0  0  0  0
 14 16  1  0  0  0  0
 14 17  1  0  0  0  0
 17 18  1  0  0  0  0
 17 19  1  0  0  0  0
 17 20  1  0  0  0  0
 20 21  1  0  0  0  0
 20 22  1  0  0  0  0
 22 23  1  0  0  0  0
 22 24  1  0  0  0  0
 22 25  1  0  0  0  0
 20 26  1  0  0  0  0
 26 27  1  0  0  0  0
 26 28  1  0  0  0  0
 26 29  1  0  0  0  0
M  END
> <VM2 Rank>
105

> <Conf_Id>
648

> <Probability>
0.02

> <Sum Probability>
99.40

> <Delta G>
3.828

> <G>
37.530

> <E>
-0.572

> <-TS>
38.103

> <U+W>
-24.717

> <U>
27.804

> <W>
-52.521

> <W(PB)>
-54.966

> <W(SA)>
2.445

> <Valence>
5.527

> <Coulomb>
21.305

> <VdW>
0.973

> <VdW6>
-10.820

> <VdW12>
11.793

> <Bond>
0.332

> <Angle>
2.322

> <Pdih>
2.873

> <Idih>
0.000

> <Tether>
0.000

$$$$
VeraChem MOL file


 29 28  0  0  0  0  0  0  0  0999 V2000     
   21.0219   20.1817   20.2302 C   0  0  0  0  0  0  0  0  0  0  0  0
   20.5028   21.1481   20.2700 H   0  0  0  0  0  0  0  0  0  0  0  0
   21.6547   20.0935   21.1219 H   0  0  0  0  0  0  0  0  0  0  0  0
   21.6850   20.1926   19.3554 H   0  0  0  0  0  0  0  0  0  0  0  0
   20.0148   19.0136   20.1303 C   0  0  0  0  0  0  0  0  0  0  0  0
   20.5570   18.0577   20.1255 H   0  0  0  0  0  0  0  0  0  0  0  0
   19.4944   19.0767   19.1644 H   0  0  0  0  0  0  0  0  0  0  0  0
   18.9599   19.0113   21.2629 C   0  0  0  0  0  0  0  0  0  0  0  0
   18.4050   19.9595   21.2494 H   0  0  0  0  0  0  0  0  0  0  0  0
   18.2264   18.2206   21.0536 H   0  0  0  0  0  0  0  0  0  0  0  0
   19.5657   18.7813   22.6681 C   0  0  0  0  0  0  0  0  0  0  0  0
   20.2480   19.6058   22.9085 H   0  0  0  0  0  0  0  0  0  0  0  0
   20.1591   17.8567   22.6638 H   0  0  0  0  0  0  0  0  0  0  0  0
   18.4701   18.6885   23.7558 C   0  0  0  0  0  0  0  0  0  0  0  0
   17.9206   19.6390   23.8027 H   0  0  0  0  0  0  0  0  0  0  0  0
   17.7371   17.9241   23.4629 H   0  0  0  0  0  0  0  0  0  0  0  0
   19.0059   18.3357   25.1667 C   0  0  0  0  0  0  0  0  0  0  0  0
   19.4807   17.3455   25.1531 H   0  0  0  0  0  0  0  0  0  0  0  0
   18.1373   18.2375   25.8313 H   0  0  0  0  0  0  0  0  0  0  0  0
   19.9749   19.3923   25.7508 C   0  0  2  0  0  0  0  0  0  0  0  0
   19.8225   20.3315   25.2102 H   0  0  0  0  0  0  0  0  0  0  0  0
   21.4454   18.9639   25.5941 C   0  0  0  0  0  0  0  0  0  0  0  0
   21.6531   18.0501   26.1649 H   0  0  0  0  0  0  0  0  0  0  0  0
   21.6999   18.7706   24.5462 H   0  0  0  0  0  0  0  0  0  0  0  0
   22.1176   19.7507   25.9581 H   0  0  0  0  0  0  0  0  0  0  0  0
   19.6774   19.6876   27.1953 N   0  3  0  0  0  0  0  0  0  0  0  0
   18.7172   20.0211   27.3214 H   0  0  0  0  0  0  0  0  0  0  0  0
   20.3018   20.4100   27.5655 H   0  0  0  0  0  0  0  0  0  0  0  0
   19.7939   18.8547   27.7789 H   0  0  0  0  0  0  0  0  0  0  0  0
  1  2  1  0  0  0  0
  1  3  1  0  0  0  0
  1  4  1  0  0  0  0
  1  5  1  0  0  0  0
  5  6  1  0  0  0  0
  5  7  1  0  0  0  0
  5  8  1  0  0  0  0
  8  9  1  0  0  0  0
  8 10  1  0  0  0  0
  8 11  1  0  0  0  0
 11 12  1  0  0  0  0
 11 13  1  0  0  0  0
 11 14  1  0  0  0  0
 14 15  1  0  0  0  0
 14 16  1  0  0  0  0
 14 17  1  0  0  0  0
 17 18  1  0  0  0  0
 17 19  1  0  0  0  0
 17 20  1  0  0  0  0
 20 21  1  0  0  0  0
 20 22  1  0  0  0  0
 22 23  1  0  0  0  0
 22 24  1  0  0  0  0
 22 25  1  0  0  0  0
 20 26  1  0  0  0  0
 26 27  1  0  0  0  0
 26 28  1  0  0  0  0
 26 29  1  0  0  0  0
M  END
> <VM2 Rank>
106

> <Conf_Id>
4

> <Probability>
0.02

> <Sum Probability>
99.42

> <Delta G>
3.849

> <G>
37.551

> <E>
-0.111

> <-TS>
37.662

> <U+W>
-24.256

> <U>
27.879

> <W>
-52.135

> <W(PB)>
-54.595

> <W(SA)>
2.460

> <Valence>
6.782

> <Coulomb>
19.866

> <VdW>
1.231

> <VdW6>
-9.739

> <VdW12>
10.970

> <Bond>
0.261

> <Angle>
1.615

> <Pdih>
4.906

> <Idih>
0.000

> <Tether>
0.000

$$$$
VeraChem MOL file


 29 28  0  0  0  0  0  0  0  0999 V2000     
   19.0839   20.0670   19.9571 C   0  0  0  0  0  0  0  0  0  0  0  0
   19.2343   20.4475   18.9385 H   0  0  0  0  0  0  0  0  0  0  0  0
   18.5436   19.1153   19.8779 H   0  0  0  0  0  0  0  0  0  0  0  0
   18.4451   20.7818   20.4919 H   0  0  0  0  0  0  0  0  0  0  0  0
   20.4410   19.8897   20.6747 C   0  0  0  0  0  0  0  0  0  0  0  0
   20.9921   20.8396   20.6327 H   0  0  0  0  0  0  0  0  0  0  0  0
   21.0526   19.1553   20.1320 H   0  0  0  0  0  0  0  0  0  0  0  0
   20.2988   19.4613   22.1548 C   0  0  0  0  0  0  0  0  0  0  0  0
   21.2974   19.4455   22.6126 H   0  0  0  0  0  0  0  0  0  0  0  0
   19.7144   20.2229   22.6863 H   0  0  0  0  0  0  0  0  0  0  0  0
   19.6339   18.0737   22.3280 C   0  0  0  0  0  0  0  0  0  0  0  0
   20.0914   17.3702   21.6188 H   0  0  0  0  0  0  0  0  0  0  0  0
   18.5720   18.1358   22.0550 H   0  0  0  0  0  0  0  0  0  0  0  0
   19.7599   17.4707   23.7511 C   0  0  0  0  0  0  0  0  0  0  0  0
   19.3102   16.4687   23.7212 H   0  0  0  0  0  0  0  0  0  0  0  0
   20.8162   17.3055   23.9956 H   0  0  0  0  0  0  0  0  0  0  0  0
   19.0450   18.2757   24.8713 C   0  0  0  0  0  0  0  0  0  0  0  0
   18.8015   17.5913   25.6949 H   0  0  0  0  0  0  0  0  0  0  0  0
   18.0807   18.6321   24.4859 H   0  0  0  0  0  0  0  0  0  0  0  0
   19.8410   19.4698   25.4524 C   0  0  2  0  0  0  0  0  0  0  0  0
   20.1851   20.1021   24.6316 H   0  0  0  0  0  0  0  0  0  0  0  0
   21.0712   19.0105   26.2558 C   0  0  0  0  0  0  0  0  0  0  0  0
   21.5862   19.8720   26.6983 H   0  0  0  0  0  0  0  0  0  0  0  0
   20.7838   18.3328   27.0693 H   0  0  0  0  0  0  0  0  0  0  0  0
   21.7970   18.4930   25.6188 H   0  0  0  0  0  0  0  0  0  0  0  0
   18.9613   20.3376   26.3089 N   0  3  0  0  0  0  0  0  0  0  0  0
   18.5989   19.8214   27.1151 H   0  0  0  0  0  0  0  0  0  0  0  0
   18.1569   20.6935   25.7844 H   0  0  0  0  0  0  0  0  0  0  0  0
   19.4727   21.1480   26.6701 H   0  0  0  0  0  0  0  0  0  0  0  0
  1  2  1  0  0  0  0
  1  3  1  0  0  0  0
  1  4  1  0  0  0  0
  1  5  1  0  0  0  0
  5  6  1  0  0  0  0
  5  7  1  0  0  0  0
  5  8  1  0  0  0  0
  8  9  1  0  0  0  0
  8 10  1  0  0  0  0
  8 11  1  0  0  0  0
 11 12  1  0  0  0  0
 11 13  1  0  0  0  0
 11 14  1  0  0  0  0
 14 15  1  0  0  0  0
 14 16  1  0  0  0  0
 14 17  1  0  0  0  0
 17 18  1  0  0  0  0
 17 19  1  0  0  0  0
 17 20  1  0  0  0  0
 20 21  1  0  0  0  0
 20 22  1  0  0  0  0
 22 23  1  0  0  0  0
 22 24  1  0  0  0  0
 22 25  1  0  0  0  0
 20 26  1  0  0  0  0
 26 27  1  0  0  0  0
 26 28  1  0  0  0  0
 26 29  1  0  0  0  0
M  END
> <VM2 Rank>
107

> <Conf_Id>
1321

> <Probability>
0.02

> <Sum Probability>
99.44

> <Delta G>
3.857

> <G>
37.559

> <E>
-0.147

> <-TS>
37.706

> <U+W>
-24.292

> <U>
28.431

> <W>
-52.722

> <W(PB)>
-55.174

> <W(SA)>
2.452

> <Valence>
6.780

> <Coulomb>
20.578

> <VdW>
1.072

> <VdW6>
-10.670

> <VdW12>
11.742

> <Bond>
0.323

> <Angle>
2.399

> <Pdih>
4.058

> <Idih>
0.000

> <Tether>
0.000

$$$$
VeraChem MOL file


 29 28  0  0  0  0  0  0  0  0999 V2000     
   20.8594   19.9907   19.8047 C   0  0  0  0  0  0  0  0  0  0  0  0
   21.8274   19.6177   20.1639 H   0  0  0  0  0  0  0  0  0  0  0  0
   20.5692   19.3987   18.9269 H   0  0  0  0  0  0  0  0  0  0  0  0
   20.9981   21.0299   19.4796 H   0  0  0  0  0  0  0  0  0  0  0  0
   19.7872   19.9044   20.9113 C   0  0  0  0  0  0  0  0  0  0  0  0
   18.8416   20.3158   20.5317 H   0  0  0  0  0  0  0  0  0  0  0  0
   20.0879   20.5402   21.7526 H   0  0  0  0  0  0  0  0  0  0  0  0
   19.5664   18.4454   21.3782 C   0  0  0  0  0  0  0  0  0  0  0  0
   19.2368   17.8565   20.5110 H   0  0  0  0  0  0  0  0  0  0  0  0
   20.5160   17.9989   21.7037 H   0  0  0  0  0  0  0  0  0  0  0  0
   18.5010   18.3086   22.4971 C   0  0  0  0  0  0  0  0  0  0  0  0
   17.9459   17.3756   22.3273 H   0  0  0  0  0  0  0  0  0  0  0  0
   17.7570   19.1131   22.4166 H   0  0  0  0  0  0  0  0  0  0  0  0
   19.0750   18.2533   23.9363 C   0  0  0  0  0  0  0  0  0  0  0  0
   18.2404   18.0733   24.6264 H   0  0  0  0  0  0  0  0  0  0  0  0
   19.7377   17.3819   24.0212 H   0  0  0  0  0  0  0  0  0  0  0  0
   19.8356   19.5359   24.3658 C   0  0  0  0  0  0  0  0  0  0  0  0
   19.2159   20.4154   24.1479 H   0  0  0  0  0  0  0  0  0  0  0  0
   20.7446   19.6394   23.7603 H   0  0  0  0  0  0  0  0  0  0  0  0
   20.2437   19.5803   25.8572 C   0  0  2  0  0  0  0  0  0  0  0  0
   20.7659   20.5277   26.0233 H   0  0  0  0  0  0  0  0  0  0  0  0
   21.2128   18.4433   26.2248 C   0  0  0  0  0  0  0  0  0  0  0  0
   22.0788   18.4363   25.5513 H   0  0  0  0  0  0  0  0  0  0  0  0
   21.5875   18.5740   27.2473 H   0  0  0  0  0  0  0  0  0  0  0  0
   20.7258   17.4623   26.1691 H   0  0  0  0  0  0  0  0  0  0  0  0
   19.0550   19.5942   26.7786 N   0  3  0  0  0  0  0  0  0  0  0  0
   19.3416   19.6874   27.7573 H   0  0  0  0  0  0  0  0  0  0  0  0
   18.5128   18.7305   26.6984 H   0  0  0  0  0  0  0  0  0  0  0  0
   18.4260   20.3744   26.5680 H   0  0  0  0  0  0  0  0  0  0  0  0
  1  2  1  0  0  0  0
  1  3  1  0  0  0  0
  1  4  1  0  0  0  0
  1  5  1  0  0  0  0
  5  6  1  0  0  0  0
  5  7  1  0  0  0  0
  5  8  1  0  0  0  0
  8  9  1  0  0  0  0
  8 10  1  0  0  0  0
  8 11  1  0  0  0  0
 11 12  1  0  0  0  0
 11 13  1  0  0  0  0
 11 14  1  0  0  0  0
 14 15  1  0  0  0  0
 14 16  1  0  0  0  0
 14 17  1  0  0  0  0
 17 18  1  0  0  0  0
 17 19  1  0  0  0  0
 17 20  1  0  0  0  0
 20 21  1  0  0  0  0
 20 22  1  0  0  0  0
 22 23  1  0  0  0  0
 22 24  1  0  0  0  0
 22 25  1  0  0  0  0
 20 26  1  0  0  0  0
 26 27  1  0  0  0  0
 26 28  1  0  0  0  0
 26 29  1  0  0  0  0
M  END
> <VM2 Rank>
108

> <Conf_Id>
560

> <Probability>
0.02

> <Sum Probability>
99.45

> <Delta G>
3.858

> <G>
37.561

> <E>
-0.374

> <-TS>
37.935

> <U+W>
-24.519

> <U>
27.916

> <W>
-52.435

> <W(PB)>
-54.868

> <W(SA)>
2.433

> <Valence>
6.693

> <Coulomb>
20.015

> <VdW>
1.208

> <VdW6>
-10.295

> <VdW12>
11.503

> <Bond>
0.312

> <Angle>
1.939

> <Pdih>
4.441

> <Idih>
0.000

> <Tether>
0.000

$$$$
VeraChem MOL file


 29 28  0  0  0  0  0  0  0  0999 V2000     
   19.6272   20.0608   19.7015 C   0  0  0  0  0  0  0  0  0  0  0  0
   19.2514   21.0379   20.0320 H   0  0  0  0  0  0  0  0  0  0  0  0
   20.0702   20.1915   18.7057 H   0  0  0  0  0  0  0  0  0  0  0  0
   18.7726   19.3819   19.5942 H   0  0  0  0  0  0  0  0  0  0  0  0
   20.6774   19.5058   20.6907 C   0  0  0  0  0  0  0  0  0  0  0  0
   21.5633   20.1556   20.6623 H   0  0  0  0  0  0  0  0  0  0  0  0
   21.0134   18.5138   20.3580 H   0  0  0  0  0  0  0  0  0  0  0  0
   20.1704   19.4260   22.1511 C   0  0  0  0  0  0  0  0  0  0  0  0
   21.0291   19.1777   22.7872 H   0  0  0  0  0  0  0  0  0  0  0  0
   19.8118   20.4143   22.4698 H   0  0  0  0  0  0  0  0  0  0  0  0
   19.0607   18.3663   22.3622 C   0  0  0  0  0  0  0  0  0  0  0  0
   19.4621   17.3698   22.1326 H   0  0  0  0  0  0  0  0  0  0  0  0
   18.2474   18.5391   21.6462 H   0  0  0  0  0  0  0  0  0  0  0  0
   18.4397   18.3572   23.7833 C   0  0  0  0  0  0  0  0  0  0  0  0
   17.9237   19.3074   23.9710 H   0  0  0  0  0  0  0  0  0  0  0  0
   17.6522   17.5910   23.7914 H   0  0  0  0  0  0  0  0  0  0  0  0
   19.4336   18.0315   24.9314 C   0  0  0  0  0  0  0  0  0  0  0  0
   20.1525   17.2785   24.5819 H   0  0  0  0  0  0  0  0  0  0  0  0
   18.8801   17.5591   25.7537 H   0  0  0  0  0  0  0  0  0  0  0  0
   20.1882   19.2573   25.4969 C   0  0  2  0  0  0  0  0  0  0  0  0
   20.6755   19.7854   24.6743 H   0  0  0  0  0  0  0  0  0  0  0  0
   21.2751   18.8043   26.4843 C   0  0  0  0  0  0  0  0  0  0  0  0
   21.8348   19.6661   26.8683 H   0  0  0  0  0  0  0  0  0  0  0  0
   20.8386   18.2718   27.3386 H   0  0  0  0  0  0  0  0  0  0  0  0
   21.9921   18.1341   25.9939 H   0  0  0  0  0  0  0  0  0  0  0  0
   19.2637   20.2465   26.1526 N   0  3  0  0  0  0  0  0  0  0  0  0
   18.7701   19.8266   26.9448 H   0  0  0  0  0  0  0  0  0  0  0  0
   18.5574   20.5905   25.4967 H   0  0  0  0  0  0  0  0  0  0  0  0
   19.7757   21.0596   26.5067 H   0  0  0  0  0  0  0  0  0  0  0  0
  1  2  1  0  0  0  0
  1  3  1  0  0  0  0
  1  4  1  0  0  0  0
  1  5  1  0  0  0  0
  5  6  1  0  0  0  0
  5  7  1  0  0  0  0
  5  8  1  0  0  0  0
  8  9  1  0  0  0  0
  8 10  1  0  0  0  0
  8 11  1  0  0  0  0
 11 12  1  0  0  0  0
 11 13  1  0  0  0  0
 11 14  1  0  0  0  0
 14 15  1  0  0  0  0
 14 16  1  0  0  0  0
 14 17  1  0  0  0  0
 17 18  1  0  0  0  0
 17 19  1  0  0  0  0
 17 20  1  0  0  0  0
 20 21  1  0  0  0  0
 20 22  1  0  0  0  0
 22 23  1  0  0  0  0
 22 24  1  0  0  0  0
 22 25  1  0  0  0  0
 20 26  1  0  0  0  0
 26 27  1  0  0  0  0
 26 28  1  0  0  0  0
 26 29  1  0  0  0  0
M  END
> <VM2 Rank>
109

> <Conf_Id>
1623

> <Probability>
0.02

> <Sum Probability>
99.47

> <Delta G>
3.862

> <G>
37.564

> <E>
-0.218

> <-TS>
37.782

> <U+W>
-24.362

> <U>
28.056

> <W>
-52.418

> <W(PB)>
-54.882

> <W(SA)>
2.464

> <Valence>
6.325

> <Coulomb>
20.690

> <VdW>
1.041

> <VdW6>
-10.427

> <VdW12>
11.468

> <Bond>
0.315

> <Angle>
2.080

> <Pdih>
3.930

> <Idih>
0.000

> <Tether>
0.000

$$$$
VeraChem MOL file


 29 28  0  0  0  0  0  0  0  0999 V2000     
   18.7547   19.0292   19.6209 C   0  0  0  0  0  0  0  0  0  0  0  0
   18.7845   20.0896   19.3385 H   0  0  0  0  0  0  0  0  0  0  0  0
   18.4814   18.4516   18.7283 H   0  0  0  0  0  0  0  0  0  0  0  0
   17.9555   18.8919   20.3597 H   0  0  0  0  0  0  0  0  0  0  0  0
   20.1217   18.5617   20.1696 C   0  0  0  0  0  0  0  0  0  0  0  0
   20.8618   18.6032   19.3583 H   0  0  0  0  0  0  0  0  0  0  0  0
   20.0571   17.5074   20.4731 H   0  0  0  0  0  0  0  0  0  0  0  0
   20.6345   19.4168   21.3534 C   0  0  0  0  0  0  0  0  0  0  0  0
   21.6514   19.0867   21.6066 H   0  0  0  0  0  0  0  0  0  0  0  0
   20.7193   20.4660   21.0384 H   0  0  0  0  0  0  0  0  0  0  0  0
   19.7436   19.3204   22.6149 C   0  0  0  0  0  0  0  0  0  0  0  0
   19.6097   18.2658   22.8832 H   0  0  0  0  0  0  0  0  0  0  0  0
   18.7442   19.7176   22.3941 H   0  0  0  0  0  0  0  0  0  0  0  0
   20.3468   20.1104   23.8024 C   0  0  0  0  0  0  0  0  0  0  0  0
   21.3725   19.7743   24.0078 H   0  0  0  0  0  0  0  0  0  0  0  0
   20.4281   21.1649   23.5039 H   0  0  0  0  0  0  0  0  0  0  0  0
   19.4915   20.0300   25.0948 C   0  0  0  0  0  0  0  0  0  0  0  0
   18.4348   19.8687   24.8434 H   0  0  0  0  0  0  0  0  0  0  0  0
   19.5350   21.0110   25.5862 H   0  0  0  0  0  0  0  0  0  0  0  0
   19.9636   18.9740   26.1231 C   0  0  2  0  0  0  0  0  0  0  0  0
   21.0024   19.1962   26.3863 H   0  0  0  0  0  0  0  0  0  0  0  0
   19.9048   17.5380   25.5759 C   0  0  0  0  0  0  0  0  0  0  0  0
   18.9011   17.2938   25.2064 H   0  0  0  0  0  0  0  0  0  0  0  0
   20.6216   17.3994   24.7584 H   0  0  0  0  0  0  0  0  0  0  0  0
   20.1652   16.8147   26.3584 H   0  0  0  0  0  0  0  0  0  0  0  0
   19.1748   19.0756   27.3990 N   0  3  0  0  0  0  0  0  0  0  0  0
   19.2389   20.0120   27.8087 H   0  0  0  0  0  0  0  0  0  0  0  0
   19.5134   18.4120   28.1017 H   0  0  0  0  0  0  0  0  0  0  0  0
   18.1833   18.8752   27.2424 H   0  0  0  0  0  0  0  0  0  0  0  0
  1  2  1  0  0  0  0
  1  3  1  0  0  0  0
  1  4  1  0  0  0  0
  1  5  1  0  0  0  0
  5  6  1  0  0  0  0
  5  7  1  0  0  0  0
  5  8  1  0  0  0  0
  8  9  1  0  0  0  0
  8 10  1  0  0  0  0
  8 11  1  0  0  0  0
 11 12  1  0  0  0  0
 11 13  1  0  0  0  0
 11 14  1  0  0  0  0
 14 15  1  0  0  0  0
 14 16  1  0  0  0  0
 14 17  1  0  0  0  0
 17 18  1  0  0  0  0
 17 19  1  0  0  0  0
 17 20  1  0  0  0  0
 20 21  1  0  0  0  0
 20 22  1  0  0  0  0
 22 23  1  0  0  0  0
 22 24  1  0  0  0  0
 22 25  1  0  0  0  0
 20 26  1  0  0  0  0
 26 27  1  0  0  0  0
 26 28  1  0  0  0  0
 26 29  1  0  0  0  0
M  END
> <VM2 Rank>
110

> <Conf_Id>
293

> <Probability>
0.02

> <Sum Probability>
99.48

> <Delta G>
3.871

> <G>
37.574

> <E>
-0.213

> <-TS>
37.787

> <U+W>
-24.357

> <U>
27.696

> <W>
-52.053

> <W(PB)>
-54.527

> <W(SA)>
2.474

> <Valence>
6.761

> <Coulomb>
19.663

> <VdW>
1.272

> <VdW6>
-9.717

> <VdW12>
10.988

> <Bond>
0.286

> <Angle>
1.903

> <Pdih>
4.573

> <Idih>
0.000

> <Tether>
0.000

$$$$
VeraChem MOL file


 29 28  0  0  0  0  0  0  0  0999 V2000     
   21.2261   19.4054   20.2539 C   0  0  0  0  0  0  0  0  0  0  0  0
   22.2555   19.7840   20.2995 H   0  0  0  0  0  0  0  0  0  0  0  0
   21.2717   18.3296   20.0402 H   0  0  0  0  0  0  0  0  0  0  0  0
   20.7223   19.9001   19.4132 H   0  0  0  0  0  0  0  0  0  0  0  0
   20.4867   19.6757   21.5812 C   0  0  0  0  0  0  0  0  0  0  0  0
   20.4857   20.7563   21.7808 H   0  0  0  0  0  0  0  0  0  0  0  0
   21.0450   19.2049   22.3978 H   0  0  0  0  0  0  0  0  0  0  0  0
   19.0308   19.1524   21.5376 C   0  0  0  0  0  0  0  0  0  0  0  0
   18.5266   19.6264   20.6840 H   0  0  0  0  0  0  0  0  0  0  0  0
   19.0189   18.0730   21.3338 H   0  0  0  0  0  0  0  0  0  0  0  0
   18.2090   19.4636   22.8162 C   0  0  0  0  0  0  0  0  0  0  0  0
   17.1641   19.6158   22.5120 H   0  0  0  0  0  0  0  0  0  0  0  0
   18.5249   20.4205   23.2522 H   0  0  0  0  0  0  0  0  0  0  0  0
   18.2128   18.3386   23.8864 C   0  0  0  0  0  0  0  0  0  0  0  0
   17.4978   18.6042   24.6765 H   0  0  0  0  0  0  0  0  0  0  0  0
   17.8198   17.4170   23.4357 H   0  0  0  0  0  0  0  0  0  0  0  0
   19.5876   18.0285   24.5321 C   0  0  0  0  0  0  0  0  0  0  0  0
   20.2497   17.5915   23.7747 H   0  0  0  0  0  0  0  0  0  0  0  0
   19.4539   17.2490   25.2939 H   0  0  0  0  0  0  0  0  0  0  0  0
   20.2705   19.2552   25.1768 C   0  0  2  0  0  0  0  0  0  0  0  0
   20.3826   20.0290   24.4118 H   0  0  0  0  0  0  0  0  0  0  0  0
   21.6697   18.8811   25.6900 C   0  0  0  0  0  0  0  0  0  0  0  0
   22.2954   18.4998   24.8734 H   0  0  0  0  0  0  0  0  0  0  0  0
   22.1744   19.7575   26.1148 H   0  0  0  0  0  0  0  0  0  0  0  0
   21.6140   18.1085   26.4671 H   0  0  0  0  0  0  0  0  0  0  0  0
   19.4430   19.8555   26.2798 N   0  3  0  0  0  0  0  0  0  0  0  0
   19.2991   19.1884   27.0425 H   0  0  0  0  0  0  0  0  0  0  0  0
   18.5202   20.1386   25.9390 H   0  0  0  0  0  0  0  0  0  0  0  0
   19.8930   20.6848   26.6777 H   0  0  0  0  0  0  0  0  0  0  0  0
  1  2  1  0  0  0  0
  1  3  1  0  0  0  0
  1  4  1  0  0  0  0
  1  5  1  0  0  0  0
  5  6  1  0  0  0  0
  5  7  1  0  0  0  0
  5  8  1  0  0  0  0
  8  9  1  0  0  0  0
  8 10  1  0  0  0  0
  8 11  1  0  0  0  0
 11 12  1  0  0  0  0
 11 13  1  0  0  0  0
 11 14  1  0  0  0  0
 14 15  1  0  0  0  0
 14 16  1  0  0  0  0
 14 17  1  0  0  0  0
 17 18  1  0  0  0  0
 17 19  1  0  0  0  0
 17 20  1  0  0  0  0
 20 21  1  0  0  0  0
 20 22  1  0  0  0  0
 22 23  1  0  0  0  0
 22 24  1  0  0  0  0
 22 25  1  0  0  0  0
 20 26  1  0  0  0  0
 26 27  1  0  0  0  0
 26 28  1  0  0  0  0
 26 29  1  0  0  0  0
M  END
> <VM2 Rank>
111

> <Conf_Id>
701

> <Probability>
0.02

> <Sum Probability>
99.50

> <Delta G>
3.881

> <G>
37.584

> <E>
-0.646

> <-TS>
38.229

> <U+W>
-24.790

> <U>
27.761

> <W>
-52.551

> <W(PB)>
-54.967

> <W(SA)>
2.416

> <Valence>
6.483

> <Coulomb>
20.860

> <VdW>
0.418

> <VdW6>
-11.358

> <VdW12>
11.776

> <Bond>
0.310

> <Angle>
2.147

> <Pdih>
4.026

> <Idih>
0.000

> <Tether>
0.000

$$$$
VeraChem MOL file


 29 28  0  0  0  0  0  0  0  0999 V2000     
   18.7860   18.1573   20.1048 C   0  0  0  0  0  0  0  0  0  0  0  0
   17.7779   18.4916   20.3824 H   0  0  0  0  0  0  0  0  0  0  0  0
   18.7293   17.7181   19.1004 H   0  0  0  0  0  0  0  0  0  0  0  0
   19.0872   17.3606   20.7961 H   0  0  0  0  0  0  0  0  0  0  0  0
   19.7869   19.3349   20.1240 C   0  0  0  0  0  0  0  0  0  0  0  0
   19.5130   20.0449   19.3312 H   0  0  0  0  0  0  0  0  0  0  0  0
   20.7929   18.9692   19.8751 H   0  0  0  0  0  0  0  0  0  0  0  0
   19.8234   20.0895   21.4748 C   0  0  0  0  0  0  0  0  0  0  0  0
   20.4688   20.9718   21.3640 H   0  0  0  0  0  0  0  0  0  0  0  0
   18.8193   20.4685   21.7100 H   0  0  0  0  0  0  0  0  0  0  0  0
   20.3437   19.2267   22.6492 C   0  0  0  0  0  0  0  0  0  0  0  0
   21.3277   18.8132   22.3889 H   0  0  0  0  0  0  0  0  0  0  0  0
   19.6748   18.3732   22.8021 H   0  0  0  0  0  0  0  0  0  0  0  0
   20.4619   20.0503   23.9551 C   0  0  0  0  0  0  0  0  0  0  0  0
   21.1669   20.8737   23.7751 H   0  0  0  0  0  0  0  0  0  0  0  0
   19.5006   20.5240   24.1926 H   0  0  0  0  0  0  0  0  0  0  0  0
   20.9788   19.2226   25.1649 C   0  0  0  0  0  0  0  0  0  0  0  0
   21.6198   19.8708   25.7768 H   0  0  0  0  0  0  0  0  0  0  0  0
   21.6360   18.4166   24.8129 H   0  0  0  0  0  0  0  0  0  0  0  0
   19.8935   18.6303   26.0980 C   0  0  2  0  0  0  0  0  0  0  0  0
   20.4144   18.0743   26.8836 H   0  0  0  0  0  0  0  0  0  0  0  0
   18.9573   17.6455   25.3793 C   0  0  0  0  0  0  0  0  0  0  0  0
   18.3098   17.1355   26.1031 H   0  0  0  0  0  0  0  0  0  0  0  0
   18.3107   18.1593   24.6581 H   0  0  0  0  0  0  0  0  0  0  0  0
   19.5322   16.8769   24.8482 H   0  0  0  0  0  0  0  0  0  0  0  0
   19.1046   19.6990   26.8038 N   0  3  0  0  0  0  0  0  0  0  0  0
   19.7149   20.3288   27.3324 H   0  0  0  0  0  0  0  0  0  0  0  0
   18.4358   19.2944   27.4654 H   0  0  0  0  0  0  0  0  0  0  0  0
   18.5741   20.2690   26.1405 H   0  0  0  0  0  0  0  0  0  0  0  0
  1  2  1  0  0  0  0
  1  3  1  0  0  0  0
  1  4  1  0  0  0  0
  1  5  1  0  0  0  0
  5  6  1  0  0  0  0
  5  7  1  0  0  0  0
  5  8  1  0  0  0  0
  8  9  1  0  0  0  0
  8 10  1  0  0  0  0
  8 11  1  0  0  0  0
 11 12  1  0  0  0  0
 11 13  1  0  0  0  0
 11 14  1  0  0  0  0
 14 15  1  0  0  0  0
 14 16  1  0  0  0  0
 14 17  1  0  0  0  0
 17 18  1  0  0  0  0
 17 19  1  0  0  0  0
 17 20  1  0  0  0  0
 20 21  1  0  0  0  0
 20 22  1  0  0  0  0
 22 23  1  0  0  0  0
 22 24  1  0  0  0  0
 22 25  1  0  0  0  0
 20 26  1  0  0  0  0
 26 27  1  0  0  0  0
 26 28  1  0  0  0  0
 26 29  1  0  0  0  0
M  END
> <VM2 Rank>
112

> <Conf_Id>
1593

> <Probability>
0.02

> <Sum Probability>
99.52

> <Delta G>
3.888

> <G>
37.590

> <E>
-0.269

> <-TS>
37.860

> <U+W>
-24.414

> <U>
27.944

> <W>
-52.358

> <W(PB)>
-54.791

> <W(SA)>
2.433

> <Valence>
6.749

> <Coulomb>
19.998

> <VdW>
1.197

> <VdW6>
-10.230

> <VdW12>
11.427

> <Bond>
0.319

> <Angle>
2.020

> <Pdih>
4.410

> <Idih>
0.000

> <Tether>
0.000

$$$$
VeraChem MOL file


 29 28  0  0  0  0  0  0  0  0999 V2000     
   18.7152   19.4572   19.5178 C   0  0  0  0  0  0  0  0  0  0  0  0
   19.2290   20.3600   19.1626 H   0  0  0  0  0  0  0  0  0  0  0  0
   19.0594   18.6077   18.9134 H   0  0  0  0  0  0  0  0  0  0  0  0
   17.6406   19.5869   19.3353 H   0  0  0  0  0  0  0  0  0  0  0  0
   18.9883   19.2181   21.0178 C   0  0  0  0  0  0  0  0  0  0  0  0
   18.4388   18.3264   21.3502 H   0  0  0  0  0  0  0  0  0  0  0  0
   18.5939   20.0676   21.5906 H   0  0  0  0  0  0  0  0  0  0  0  0
   20.4985   19.0367   21.3000 C   0  0  0  0  0  0  0  0  0  0  0  0
   20.8870   18.2356   20.6560 H   0  0  0  0  0  0  0  0  0  0  0  0
   21.0415   19.9492   21.0176 H   0  0  0  0  0  0  0  0  0  0  0  0
   20.8138   18.6773   22.7725 C   0  0  0  0  0  0  0  0  0  0  0  0
   21.8828   18.4349   22.8466 H   0  0  0  0  0  0  0  0  0  0  0  0
   20.2752   17.7612   23.0419 H   0  0  0  0  0  0  0  0  0  0  0  0
   20.4895   19.8201   23.7695 C   0  0  0  0  0  0  0  0  0  0  0  0
   21.0361   20.7167   23.4462 H   0  0  0  0  0  0  0  0  0  0  0  0
   19.4262   20.0836   23.7264 H   0  0  0  0  0  0  0  0  0  0  0  0
   20.9037   19.4999   25.2332 C   0  0  0  0  0  0  0  0  0  0  0  0
   21.2501   20.4294   25.7039 H   0  0  0  0  0  0  0  0  0  0  0  0
   21.7753   18.8323   25.2384 H   0  0  0  0  0  0  0  0  0  0  0  0
   19.7971   18.9061   26.1399 C   0  0  2  0  0  0  0  0  0  0  0  0
   20.2490   18.7239   27.1199 H   0  0  0  0  0  0  0  0  0  0  0  0
   19.2560   17.5629   25.6245 C   0  0  0  0  0  0  0  0  0  0  0  0
   20.0760   16.8616   25.4263 H   0  0  0  0  0  0  0  0  0  0  0  0
   18.5985   17.1030   26.3724 H   0  0  0  0  0  0  0  0  0  0  0  0
   18.6747   17.6909   24.7037 H   0  0  0  0  0  0  0  0  0  0  0  0
   18.6739   19.8778   26.3789 N   0  3  0  0  0  0  0  0  0  0  0  0
   19.0167   20.7576   26.7752 H   0  0  0  0  0  0  0  0  0  0  0  0
   17.9831   19.4969   27.0318 H   0  0  0  0  0  0  0  0  0  0  0  0
   18.1841   20.1015   25.5092 H   0  0  0  0  0  0  0  0  0  0  0  0
  1  2  1  0  0  0  0
  1  3  1  0  0  0  0
  1  4  1  0  0  0  0
  1  5  1  0  0  0  0
  5  6  1  0  0  0  0
  5  7  1  0  0  0  0
  5  8  1  0  0  0  0
  8  9  1  0  0  0  0
  8 10  1  0  0  0  0
  8 11  1  0  0  0  0
 11 12  1  0  0  0  0
 11 13  1  0  0  0  0
 11 14  1  0  0  0  0
 14 15  1  0  0  0  0
 14 16  1  0  0  0  0
 14 17  1  0  0  0  0
 17 18  1  0  0  0  0
 17 19  1  0  0  0  0
 17 20  1  0  0  0  0
 20 21  1  0  0  0  0
 20 22  1  0  0  0  0
 22 23  1  0  0  0  0
 22 24  1  0  0  0  0
 22 25  1  0  0  0  0
 20 26  1  0  0  0  0
 26 27  1  0  0  0  0
 26 28  1  0  0  0  0
 26 29  1  0  0  0  0
M  END
> <VM2 Rank>
113

> <Conf_Id>
1594

> <Probability>
0.02

> <Sum Probability>
99.53

> <Delta G>
3.896

> <G>
37.598

> <E>
-0.199

> <-TS>
37.797

> <U+W>
-24.344

> <U>
28.333

> <W>
-52.677

> <W(PB)>
-55.100

> <W(SA)>
2.423

> <Valence>
6.776

> <Coulomb>
20.398

> <VdW>
1.160

> <VdW6>
-10.290

> <VdW12>
11.450

> <Bond>
0.329

> <Angle>
2.071

> <Pdih>
4.376

> <Idih>
0.000

> <Tether>
0.000

$$$$
VeraChem MOL file


 29 28  0  0  0  0  0  0  0  0999 V2000     
   19.2987   18.3385   20.0523 C   0  0  0  0  0  0  0  0  0  0  0  0
   19.6032   17.5892   20.7935 H   0  0  0  0  0  0  0  0  0  0  0  0
   18.2303   18.5508   20.1873 H   0  0  0  0  0  0  0  0  0  0  0  0
   19.4292   17.8894   19.0593 H   0  0  0  0  0  0  0  0  0  0  0  0
   20.1424   19.6258   20.1774 C   0  0  0  0  0  0  0  0  0  0  0  0
   19.9168   20.2792   19.3231 H   0  0  0  0  0  0  0  0  0  0  0  0
   21.2083   19.3722   20.0932 H   0  0  0  0  0  0  0  0  0  0  0  0
   19.9001   20.4232   21.4842 C   0  0  0  0  0  0  0  0  0  0  0  0
   20.5116   21.3347   21.4329 H   0  0  0  0  0  0  0  0  0  0  0  0
   18.8579   20.7683   21.5285 H   0  0  0  0  0  0  0  0  0  0  0  0
   20.2724   19.6638   22.7841 C   0  0  0  0  0  0  0  0  0  0  0  0
   20.6982   20.3875   23.4916 H   0  0  0  0  0  0  0  0  0  0  0  0
   21.0684   18.9350   22.5781 H   0  0  0  0  0  0  0  0  0  0  0  0
   19.0612   18.9660   23.4546 C   0  0  0  0  0  0  0  0  0  0  0  0
   18.3145   19.7184   23.7411 H   0  0  0  0  0  0  0  0  0  0  0  0
   18.5599   18.3106   22.7326 H   0  0  0  0  0  0  0  0  0  0  0  0
   19.4557   18.1161   24.6894 C   0  0  0  0  0  0  0  0  0  0  0  0
   20.1230   17.3078   24.3620 H   0  0  0  0  0  0  0  0  0  0  0  0
   18.5572   17.6282   25.0901 H   0  0  0  0  0  0  0  0  0  0  0  0
   20.1484   18.9154   25.8158 C   0  0  2  0  0  0  0  0  0  0  0  0
   21.0499   19.3795   25.4052 H   0  0  0  0  0  0  0  0  0  0  0  0
   20.5704   17.9761   26.9565 C   0  0  0  0  0  0  0  0  0  0  0  0
   21.2485   17.1961   26.5882 H   0  0  0  0  0  0  0  0  0  0  0  0
   21.0976   18.5317   27.7419 H   0  0  0  0  0  0  0  0  0  0  0  0
   19.6999   17.4859   27.4101 H   0  0  0  0  0  0  0  0  0  0  0  0
   19.2867   20.0312   26.3397 N   0  3  0  0  0  0  0  0  0  0  0  0
   19.0297   20.6830   25.5934 H   0  0  0  0  0  0  0  0  0  0  0  0
   19.7694   20.5683   27.0657 H   0  0  0  0  0  0  0  0  0  0  0  0
   18.4199   19.6719   26.7483 H   0  0  0  0  0  0  0  0  0  0  0  0
  1  2  1  0  0  0  0
  1  3  1  0  0  0  0
  1  4  1  0  0  0  0
  1  5  1  0  0  0  0
  5  6  1  0  0  0  0
  5  7  1  0  0  0  0
  5  8  1  0  0  0  0
  8  9  1  0  0  0  0
  8 10  1  0  0  0  0
  8 11  1  0  0  0  0
 11 12  1  0  0  0  0
 11 13  1  0  0  0  0
 11 14  1  0  0  0  0
 14 15  1  0  0  0  0
 14 16  1  0  0  0  0
 14 17  1  0  0  0  0
 17 18  1  0  0  0  0
 17 19  1  0  0  0  0
 17 20  1  0  0  0  0
 20 21  1  0  0  0  0
 20 22  1  0  0  0  0
 22 23  1  0  0  0  0
 22 24  1  0  0  0  0
 22 25  1  0  0  0  0
 20 26  1  0  0  0  0
 26 27  1  0  0  0  0
 26 28  1  0  0  0  0
 26 29  1  0  0  0  0
M  END
> <VM2 Rank>
114

> <Conf_Id>
1022

> <Probability>
0.02

> <Sum Probability>
99.55

> <Delta G>
3.896

> <G>
37.599

> <E>
-0.364

> <-TS>
37.963

> <U+W>
-24.508

> <U>
27.887

> <W>
-52.395

> <W(PB)>
-54.858

> <W(SA)>
2.462

> <Valence>
6.471

> <Coulomb>
20.362

> <VdW>
1.054

> <VdW6>
-10.398

> <VdW12>
11.452

> <Bond>
0.305

> <Angle>
1.802

> <Pdih>
4.364

> <Idih>
0.000

> <Tether>
0.000

$$$$
VeraChem MOL file


 29 28  0  0  0  0  0  0  0  0999 V2000     
   20.5806   18.2686   19.8011 C   0  0  0  0  0  0  0  0  0  0  0  0
   20.4796   18.9943   18.9835 H   0  0  0  0  0  0  0  0  0  0  0  0
   21.5811   17.8221   19.7333 H   0  0  0  0  0  0  0  0  0  0  0  0
   19.8436   17.4704   19.6429 H   0  0  0  0  0  0  0  0  0  0  0  0
   20.3780   18.9460   21.1729 C   0  0  0  0  0  0  0  0  0  0  0  0
   21.1448   19.7204   21.3137 H   0  0  0  0  0  0  0  0  0  0  0  0
   20.5239   18.1966   21.9620 H   0  0  0  0  0  0  0  0  0  0  0  0
   18.9710   19.5737   21.2966 C   0  0  0  0  0  0  0  0  0  0  0  0
   18.7961   20.2305   20.4333 H   0  0  0  0  0  0  0  0  0  0  0  0
   18.2122   18.7814   21.2357 H   0  0  0  0  0  0  0  0  0  0  0  0
   18.7488   20.4006   22.5894 C   0  0  0  0  0  0  0  0  0  0  0  0
   17.7355   20.8229   22.5409 H   0  0  0  0  0  0  0  0  0  0  0  0
   19.4279   21.2640   22.6066 H   0  0  0  0  0  0  0  0  0  0  0  0
   18.8723   19.5896   23.9057 C   0  0  0  0  0  0  0  0  0  0  0  0
   18.1235   19.9700   24.6129 H   0  0  0  0  0  0  0  0  0  0  0  0
   18.6082   18.5412   23.7165 H   0  0  0  0  0  0  0  0  0  0  0  0
   20.2760   19.7030   24.5628 C   0  0  0  0  0  0  0  0  0  0  0  0
   20.4799   20.7587   24.7850 H   0  0  0  0  0  0  0  0  0  0  0  0
   21.0536   19.3948   23.8551 H   0  0  0  0  0  0  0  0  0  0  0  0
   20.4509   18.8899   25.8669 C   0  0  2  0  0  0  0  0  0  0  0  0
   21.4513   19.1077   26.2537 H   0  0  0  0  0  0  0  0  0  0  0  0
   20.3708   17.3738   25.6164 C   0  0  0  0  0  0  0  0  0  0  0  0
   19.3626   17.0635   25.3180 H   0  0  0  0  0  0  0  0  0  0  0  0
   21.0714   17.0710   24.8283 H   0  0  0  0  0  0  0  0  0  0  0  0
   20.6351   16.8209   26.5262 H   0  0  0  0  0  0  0  0  0  0  0  0
   19.4876   19.3109   26.9422 N   0  3  0  0  0  0  0  0  0  0  0  0
   19.6583   18.8055   27.8163 H   0  0  0  0  0  0  0  0  0  0  0  0
   18.5199   19.1278   26.6653 H   0  0  0  0  0  0  0  0  0  0  0  0
   19.5666   20.3113   27.1462 H   0  0  0  0  0  0  0  0  0  0  0  0
  1  2  1  0  0  0  0
  1  3  1  0  0  0  0
  1  4  1  0  0  0  0
  1  5  1  0  0  0  0
  5  6  1  0  0  0  0
  5  7  1  0  0  0  0
  5  8  1  0  0  0  0
  8  9  1  0  0  0  0
  8 10  1  0  0  0  0
  8 11  1  0  0  0  0
 11 12  1  0  0  0  0
 11 13  1  0  0  0  0
 11 14  1  0  0  0  0
 14 15  1  0  0  0  0
 14 16  1  0  0  0  0
 14 17  1  0  0  0  0
 17 18  1  0  0  0  0
 17 19  1  0  0  0  0
 17 20  1  0  0  0  0
 20 21  1  0  0  0  0
 20 22  1  0  0  0  0
 22 23  1  0  0  0  0
 22 24  1  0  0  0  0
 22 25  1  0  0  0  0
 20 26  1  0  0  0  0
 26 27  1  0  0  0  0
 26 28  1  0  0  0  0
 26 29  1  0  0  0  0
M  END
> <VM2 Rank>
115

> <Conf_Id>
1261

> <Probability>
0.01

> <Sum Probability>
99.56

> <Delta G>
3.902

> <G>
37.604

> <E>
-0.305

> <-TS>
37.909

> <U+W>
-24.450

> <U>
27.947

> <W>
-52.397

> <W(PB)>
-54.843

> <W(SA)>
2.447

> <Valence>
6.732

> <Coulomb>
20.067

> <VdW>
1.149

> <VdW6>
-10.427

> <VdW12>
11.576

> <Bond>
0.324

> <Angle>
1.943

> <Pdih>
4.465

> <Idih>
0.000

> <Tether>
0.000

$$$$
VeraChem MOL file


 29 28  0  0  0  0  0  0  0  0999 V2000     
   19.0147   20.8005   20.3257 C   0  0  0  0  0  0  0  0  0  0  0  0
   18.3694   21.1599   19.5137 H   0  0  0  0  0  0  0  0  0  0  0  0
   18.5070   21.0229   21.2723 H   0  0  0  0  0  0  0  0  0  0  0  0
   19.9488   21.3761   20.2918 H   0  0  0  0  0  0  0  0  0  0  0  0
   19.2883   19.2874   20.1687 C   0  0  0  0  0  0  0  0  0  0  0  0
   19.6773   19.1017   19.1578 H   0  0  0  0  0  0  0  0  0  0  0  0
   18.3432   18.7313   20.2412 H   0  0  0  0  0  0  0  0  0  0  0  0
   20.3020   18.7340   21.1992 C   0  0  0  0  0  0  0  0  0  0  0  0
   20.5206   17.6879   20.9437 H   0  0  0  0  0  0  0  0  0  0  0  0
   21.2518   19.2791   21.1091 H   0  0  0  0  0  0  0  0  0  0  0  0
   19.7964   18.8041   22.6600 C   0  0  0  0  0  0  0  0  0  0  0  0
   18.8264   18.2935   22.7348 H   0  0  0  0  0  0  0  0  0  0  0  0
   19.6420   19.8542   22.9320 H   0  0  0  0  0  0  0  0  0  0  0  0
   20.8025   18.1605   23.6439 C   0  0  0  0  0  0  0  0  0  0  0  0
   21.0841   17.1687   23.2639 H   0  0  0  0  0  0  0  0  0  0  0  0
   21.7273   18.7537   23.6610 H   0  0  0  0  0  0  0  0  0  0  0  0
   20.2760   17.9829   25.0925 C   0  0  0  0  0  0  0  0  0  0  0  0
   21.0444   17.4290   25.6483 H   0  0  0  0  0  0  0  0  0  0  0  0
   19.3846   17.3419   25.0955 H   0  0  0  0  0  0  0  0  0  0  0  0
   19.9788   19.3030   25.8426 C   0  0  2  0  0  0  0  0  0  0  0  0
   20.7540   20.0303   25.5825 H   0  0  0  0  0  0  0  0  0  0  0  0
   20.0216   19.0767   27.3629 C   0  0  0  0  0  0  0  0  0  0  0  0
   19.2710   18.3399   27.6756 H   0  0  0  0  0  0  0  0  0  0  0  0
   21.0085   18.7141   27.6766 H   0  0  0  0  0  0  0  0  0  0  0  0
   19.8271   20.0128   27.9009 H   0  0  0  0  0  0  0  0  0  0  0  0
   18.6555   19.9068   25.4584 N   0  3  0  0  0  0  0  0  0  0  0  0
   17.8791   19.2900   25.7121 H   0  0  0  0  0  0  0  0  0  0  0  0
   18.5994   20.0744   24.4513 H   0  0  0  0  0  0  0  0  0  0  0  0
   18.5020   20.8022   25.9312 H   0  0  0  0  0  0  0  0  0  0  0  0
  1  2  1  0  0  0  0
  1  3  1  0  0  0  0
  1  4  1  0  0  0  0
  1  5  1  0  0  0  0
  5  6  1  0  0  0  0
  5  7  1  0  0  0  0
  5  8  1  0  0  0  0
  8  9  1  0  0  0  0
  8 10  1  0  0  0  0
  8 11  1  0  0  0  0
 11 12  1  0  0  0  0
 11 13  1  0  0  0  0
 11 14  1  0  0  0  0
 14 15  1  0  0  0  0
 14 16  1  0  0  0  0
 14 17  1  0  0  0  0
 17 18  1  0  0  0  0
 17 19  1  0  0  0  0
 17 20  1  0  0  0  0
 20 21  1  0  0  0  0
 20 22  1  0  0  0  0
 22 23  1  0  0  0  0
 22 24  1  0  0  0  0
 22 25  1  0  0  0  0
 20 26  1  0  0  0  0
 26 27  1  0  0  0  0
 26 28  1  0  0  0  0
 26 29  1  0  0  0  0
M  END
> <VM2 Rank>
116

> <Conf_Id>
1633

> <Probability>
0.01

> <Sum Probability>
99.57

> <Delta G>
3.943

> <G>
37.645

> <E>
0.132

> <-TS>
37.513

> <U+W>
-24.012

> <U>
27.949

> <W>
-51.962

> <W(PB)>
-54.443

> <W(SA)>
2.482

> <Valence>
5.463

> <Coulomb>
21.337

> <VdW>
1.149

> <VdW6>
-9.730

> <VdW12>
10.879

> <Bond>
0.280

> <Angle>
1.828

> <Pdih>
3.355

> <Idih>
0.000

> <Tether>
0.000

$$$$
VeraChem MOL file


 29 28  0  0  0  0  0  0  0  0999 V2000     
   18.6284   20.2711   19.9844 C   0  0  0  0  0  0  0  0  0  0  0  0
   17.5665   20.1829   19.7204 H   0  0  0  0  0  0  0  0  0  0  0  0
   18.7814   21.2576   20.4411 H   0  0  0  0  0  0  0  0  0  0  0  0
   19.2113   20.2303   19.0549 H   0  0  0  0  0  0  0  0  0  0  0  0
   19.0453   19.1425   20.9507 C   0  0  0  0  0  0  0  0  0  0  0  0
   18.8475   18.1702   20.4782 H   0  0  0  0  0  0  0  0  0  0  0  0
   18.4155   19.1855   21.8476 H   0  0  0  0  0  0  0  0  0  0  0  0
   20.5434   19.2388   21.3276 C   0  0  0  0  0  0  0  0  0  0  0  0
   21.1337   19.1432   20.4057 H   0  0  0  0  0  0  0  0  0  0  0  0
   20.7747   20.2335   21.7326 H   0  0  0  0  0  0  0  0  0  0  0  0
   20.9997   18.1380   22.3203 C   0  0  0  0  0  0  0  0  0  0  0  0
   22.0133   17.8216   22.0375 H   0  0  0  0  0  0  0  0  0  0  0  0
   20.3710   17.2433   22.2131 H   0  0  0  0  0  0  0  0  0  0  0  0
   21.0469   18.5800   23.8061 C   0  0  0  0  0  0  0  0  0  0  0  0
   21.4483   17.7417   24.3891 H   0  0  0  0  0  0  0  0  0  0  0  0
   21.7654   19.4036   23.9181 H   0  0  0  0  0  0  0  0  0  0  0  0
   19.6762   19.0126   24.3859 C   0  0  0  0  0  0  0  0  0  0  0  0
   18.9388   18.2128   24.2371 H   0  0  0  0  0  0  0  0  0  0  0  0
   19.3187   19.8836   23.8237 H   0  0  0  0  0  0  0  0  0  0  0  0
   19.7265   19.4037   25.8808 C   0  0  2  0  0  0  0  0  0  0  0  0
   20.5217   20.1433   26.0161 H   0  0  0  0  0  0  0  0  0  0  0  0
   20.0205   18.1968   26.7902 C   0  0  0  0  0  0  0  0  0  0  0  0
   19.2837   17.3979   26.6399 H   0  0  0  0  0  0  0  0  0  0  0  0
   21.0180   17.7850   26.6002 H   0  0  0  0  0  0  0  0  0  0  0  0
   19.9896   18.4928   27.8461 H   0  0  0  0  0  0  0  0  0  0  0  0
   18.4493   20.0725   26.3080 N   0  3  0  0  0  0  0  0  0  0  0  0
   18.4919   20.3682   27.2875 H   0  0  0  0  0  0  0  0  0  0  0  0
   17.6479   19.4427   26.2138 H   0  0  0  0  0  0  0  0  0  0  0  0
   18.2539   20.9064   25.7465 H   0  0  0  0  0  0  0  0  0  0  0  0
  1  2  1  0  0  0  0
  1  3  1  0  0  0  0
  1  4  1  0  0  0  0
  1  5  1  0  0  0  0
  5  6  1  0  0  0  0
  5  7  1  0  0  0  0
  5  8  1  0  0  0  0
  8  9  1  0  0  0  0
  8 10  1  0  0  0  0
  8 11  1  0  0  0  0
 11 12  1  0  0  0  0
 11 13  1  0  0  0  0
 11 14  1  0  0  0  0
 14 15  1  0  0  0  0
 14 16  1  0  0  0  0
 14 17  1  0  0  0  0
 17 18  1  0  0  0  0
 17 19  1  0  0  0  0
 17 20  1  0  0  0  0
 20 21  1  0  0  0  0
 20 22  1  0  0  0  0
 22 23  1  0  0  0  0
 22 24  1  0  0  0  0
 22 25  1  0  0  0  0
 20 26  1  0  0  0  0
 26 27  1  0  0  0  0
 26 28  1  0  0  0  0
 26 29  1  0  0  0  0
M  END
> <VM2 Rank>
117

> <Conf_Id>
1019

> <Probability>
0.01

> <Sum Probability>
99.59

> <Delta G>
3.964

> <G>
37.667

> <E>
-0.061

> <-TS>
37.727

> <U+W>
-24.205

> <U>
28.399

> <W>
-52.604

> <W(PB)>
-55.069

> <W(SA)>
2.464

> <Valence>
6.895

> <Coulomb>
20.214

> <VdW>
1.290

> <VdW6>
-9.762

> <VdW12>
11.052

> <Bond>
0.294

> <Angle>
1.988

> <Pdih>
4.614

> <Idih>
0.000

> <Tether>
0.000

$$$$
VeraChem MOL file


 29 28  0  0  0  0  0  0  0  0999 V2000     
   20.4602   18.8043   19.5726 C   0  0  0  0  0  0  0  0  0  0  0  0
   20.7256   19.8338   19.2996 H   0  0  0  0  0  0  0  0  0  0  0  0
   21.2611   18.3977   20.2025 H   0  0  0  0  0  0  0  0  0  0  0  0
   20.4314   18.2091   18.6507 H   0  0  0  0  0  0  0  0  0  0  0  0
   19.0926   18.7550   20.2909 C   0  0  0  0  0  0  0  0  0  0  0  0
   18.8645   17.7198   20.5807 H   0  0  0  0  0  0  0  0  0  0  0  0
   18.3091   19.0555   19.5813 H   0  0  0  0  0  0  0  0  0  0  0  0
   19.0166   19.6752   21.5331 C   0  0  0  0  0  0  0  0  0  0  0  0
   19.2225   20.7123   21.2344 H   0  0  0  0  0  0  0  0  0  0  0  0
   17.9860   19.6617   21.9137 H   0  0  0  0  0  0  0  0  0  0  0  0
   19.9804   19.2576   22.6695 C   0  0  0  0  0  0  0  0  0  0  0  0
   21.0189   19.3391   22.3231 H   0  0  0  0  0  0  0  0  0  0  0  0
   19.8121   18.2025   22.9143 H   0  0  0  0  0  0  0  0  0  0  0  0
   19.7983   20.1426   23.9270 C   0  0  0  0  0  0  0  0  0  0  0  0
   19.9947   21.1847   23.6392 H   0  0  0  0  0  0  0  0  0  0  0  0
   18.7537   20.1154   24.2629 H   0  0  0  0  0  0  0  0  0  0  0  0
   20.7579   19.7705   25.0919 C   0  0  0  0  0  0  0  0  0  0  0  0
   21.0490   20.6957   25.6066 H   0  0  0  0  0  0  0  0  0  0  0  0
   21.6925   19.3584   24.6892 H   0  0  0  0  0  0  0  0  0  0  0  0
   20.1892   18.8051   26.1613 C   0  0  2  0  0  0  0  0  0  0  0  0
   20.9823   18.6378   26.8966 H   0  0  0  0  0  0  0  0  0  0  0  0
   19.7984   17.4348   25.5847 C   0  0  0  0  0  0  0  0  0  0  0  0
   18.9209   17.5094   24.9315 H   0  0  0  0  0  0  0  0  0  0  0  0
   20.6267   17.0022   25.0101 H   0  0  0  0  0  0  0  0  0  0  0  0
   19.5535   16.7353   26.3933 H   0  0  0  0  0  0  0  0  0  0  0  0
   19.0424   19.4109   26.9231 N   0  3  0  0  0  0  0  0  0  0  0  0
   19.3083   20.2986   27.3589 H   0  0  0  0  0  0  0  0  0  0  0  0
   18.7190   18.7885   27.6692 H   0  0  0  0  0  0  0  0  0  0  0  0
   18.2448   19.5956   26.3099 H   0  0  0  0  0  0  0  0  0  0  0  0
  1  2  1  0  0  0  0
  1  3  1  0  0  0  0
  1  4  1  0  0  0  0
  1  5  1  0  0  0  0
  5  6  1  0  0  0  0
  5  7  1  0  0  0  0
  5  8  1  0  0  0  0
  8  9  1  0  0  0  0
  8 10  1  0  0  0  0
  8 11  1  0  0  0  0
 11 12  1  0  0  0  0
 11 13  1  0  0  0  0
 11 14  1  0  0  0  0
 14 15  1  0  0  0  0
 14 16  1  0  0  0  0
 14 17  1  0  0  0  0
 17 18  1  0  0  0  0
 17 19  1  0  0  0  0
 17 20  1  0  0  0  0
 20 21  1  0  0  0  0
 20 22  1  0  0  0  0
 22 23  1  0  0  0  0
 22 24  1  0  0  0  0
 22 25  1  0  0  0  0
 20 26  1  0  0  0  0
 26 27  1  0  0  0  0
 26 28  1  0  0  0  0
 26 29  1  0  0  0  0
M  END
> <VM2 Rank>
118

> <Conf_Id>
221

> <Probability>
0.01

> <Sum Probability>
99.60

> <Delta G>
3.966

> <G>
37.668

> <E>
-0.183

> <-TS>
37.851

> <U+W>
-24.327

> <U>
27.916

> <W>
-52.244

> <W(PB)>
-54.694

> <W(SA)>
2.450

> <Valence>
6.751

> <Coulomb>
19.932

> <VdW>
1.234

> <VdW6>
-10.165

> <VdW12>
11.398

> <Bond>
0.318

> <Angle>
2.048

> <Pdih>
4.385

> <Idih>
0.000

> <Tether>
0.000

$$$$
VeraChem MOL file


 29 28  0  0  0  0  0  0  0  0999 V2000     
   18.8215   20.2702   20.1142 C   0  0  0  0  0  0  0  0  0  0  0  0
   18.4380   20.7934   20.9988 H   0  0  0  0  0  0  0  0  0  0  0  0
   19.7164   20.7995   19.7619 H   0  0  0  0  0  0  0  0  0  0  0  0
   18.0571   20.3444   19.3299 H   0  0  0  0  0  0  0  0  0  0  0  0
   19.1376   18.7891   20.4226 C   0  0  0  0  0  0  0  0  0  0  0  0
   19.3992   18.2801   19.4844 H   0  0  0  0  0  0  0  0  0  0  0  0
   18.2350   18.2899   20.8016 H   0  0  0  0  0  0  0  0  0  0  0  0
   20.2997   18.6046   21.4280 C   0  0  0  0  0  0  0  0  0  0  0  0
   20.5241   17.5321   21.5089 H   0  0  0  0  0  0  0  0  0  0  0  0
   21.2065   19.0814   21.0309 H   0  0  0  0  0  0  0  0  0  0  0  0
   19.9895   19.1637   22.8369 C   0  0  0  0  0  0  0  0  0  0  0  0
   19.0492   18.7230   23.1888 H   0  0  0  0  0  0  0  0  0  0  0  0
   19.8464   20.2509   22.7820 H   0  0  0  0  0  0  0  0  0  0  0  0
   21.1258   18.8484   23.8384 C   0  0  0  0  0  0  0  0  0  0  0  0
   21.2048   17.7620   23.9783 H   0  0  0  0  0  0  0  0  0  0  0  0
   22.0809   19.1604   23.3937 H   0  0  0  0  0  0  0  0  0  0  0  0
   20.9920   19.5551   25.2169 C   0  0  0  0  0  0  0  0  0  0  0  0
   21.0417   20.6424   25.0731 H   0  0  0  0  0  0  0  0  0  0  0  0
   21.8800   19.2996   25.8100 H   0  0  0  0  0  0  0  0  0  0  0  0
   19.7454   19.2181   26.0742 C   0  0  2  0  0  0  0  0  0  0  0  0
   19.9309   19.6236   27.0736 H   0  0  0  0  0  0  0  0  0  0  0  0
   19.5290   17.7026   26.2276 C   0  0  0  0  0  0  0  0  0  0  0  0
   18.7313   17.4999   26.9526 H   0  0  0  0  0  0  0  0  0  0  0  0
   19.2449   17.2357   25.2770 H   0  0  0  0  0  0  0  0  0  0  0  0
   20.4418   17.2149   26.5916 H   0  0  0  0  0  0  0  0  0  0  0  0
   18.4956   19.9041   25.5953 N   0  3  0  0  0  0  0  0  0  0  0  0
   18.2398   19.5952   24.6552 H   0  0  0  0  0  0  0  0  0  0  0  0
   18.6152   20.9207   25.5650 H   0  0  0  0  0  0  0  0  0  0  0  0
   17.7024   19.7080   26.2126 H   0  0  0  0  0  0  0  0  0  0  0  0
  1  2  1  0  0  0  0
  1  3  1  0  0  0  0
  1  4  1  0  0  0  0
  1  5  1  0  0  0  0
  5  6  1  0  0  0  0
  5  7  1  0  0  0  0
  5  8  1  0  0  0  0
  8  9  1  0  0  0  0
  8 10  1  0  0  0  0
  8 11  1  0  0  0  0
 11 12  1  0  0  0  0
 11 13  1  0  0  0  0
 11 14  1  0  0  0  0
 14 15  1  0  0  0  0
 14 16  1  0  0  0  0
 14 17  1  0  0  0  0
 17 18  1  0  0  0  0
 17 19  1  0  0  0  0
 17 20  1  0  0  0  0
 20 21  1  0  0  0  0
 20 22  1  0  0  0  0
 22 23  1  0  0  0  0
 22 24  1  0  0  0  0
 22 25  1  0  0  0  0
 20 26  1  0  0  0  0
 26 27  1  0  0  0  0
 26 28  1  0  0  0  0
 26 29  1  0  0  0  0
M  END
> <VM2 Rank>
119

> <Conf_Id>
309

> <Probability>
0.01

> <Sum Probability>
99.61

> <Delta G>
3.987

> <G>
37.689

> <E>
-0.405

> <-TS>
38.094

> <U+W>
-24.549

> <U>
27.945

> <W>
-52.494

> <W(PB)>
-54.918

> <W(SA)>
2.424

> <Valence>
5.549

> <Coulomb>
21.393

> <VdW>
1.003

> <VdW6>
-10.751

> <VdW12>
11.754

> <Bond>
0.327

> <Angle>
2.388

> <Pdih>
2.834

> <Idih>
0.000

> <Tether>
0.000

$$$$
VeraChem MOL file


 29 28  0  0  0  0  0  0  0  0999 V2000     
   19.1433   19.3254   19.1362 C   0  0  0  0  0  0  0  0  0  0  0  0
   18.5620   20.2565   19.1563 H   0  0  0  0  0  0  0  0  0  0  0  0
   20.1401   19.5531   18.7366 H   0  0  0  0  0  0  0  0  0  0  0  0
   18.6503   18.6351   18.4394 H   0  0  0  0  0  0  0  0  0  0  0  0
   19.2397   18.7014   20.5445 C   0  0  0  0  0  0  0  0  0  0  0  0
   19.7970   17.7559   20.4869 H   0  0  0  0  0  0  0  0  0  0  0  0
   18.2308   18.4536   20.9030 H   0  0  0  0  0  0  0  0  0  0  0  0
   19.9304   19.6536   21.5457 C   0  0  0  0  0  0  0  0  0  0  0  0
   20.9369   19.9002   21.1803 H   0  0  0  0  0  0  0  0  0  0  0  0
   19.3711   20.5979   21.5987 H   0  0  0  0  0  0  0  0  0  0  0  0
   20.0296   19.0313   22.9567 C   0  0  0  0  0  0  0  0  0  0  0  0
   20.5976   18.0922   22.9036 H   0  0  0  0  0  0  0  0  0  0  0  0
   19.0189   18.7828   23.3017 H   0  0  0  0  0  0  0  0  0  0  0  0
   20.7072   19.9926   23.9607 C   0  0  0  0  0  0  0  0  0  0  0  0
   21.6455   20.3548   23.5183 H   0  0  0  0  0  0  0  0  0  0  0  0
   20.0816   20.8849   24.0970 H   0  0  0  0  0  0  0  0  0  0  0  0
   21.0499   19.3652   25.3419 C   0  0  0  0  0  0  0  0  0  0  0  0
   21.5715   20.1334   25.9277 H   0  0  0  0  0  0  0  0  0  0  0  0
   21.7832   18.5590   25.2081 H   0  0  0  0  0  0  0  0  0  0  0  0
   19.8691   18.8537   26.2073 C   0  0  2  0  0  0  0  0  0  0  0  0
   20.2086   18.8824   27.2473 H   0  0  0  0  0  0  0  0  0  0  0  0
   19.5069   17.3865   25.9113 C   0  0  0  0  0  0  0  0  0  0  0  0
   18.7577   17.0273   26.6275 H   0  0  0  0  0  0  0  0  0  0  0  0
   19.0967   17.2499   24.9065 H   0  0  0  0  0  0  0  0  0  0  0  0
   20.3890   16.7416   26.0087 H   0  0  0  0  0  0  0  0  0  0  0  0
   18.6599   19.7464   26.1498 N   0  3  0  0  0  0  0  0  0  0  0  0
   18.2791   19.7887   25.2012 H   0  0  0  0  0  0  0  0  0  0  0  0
   18.8892   20.7033   26.4334 H   0  0  0  0  0  0  0  0  0  0  0  0
   17.9166   19.4118   26.7696 H   0  0  0  0  0  0  0  0  0  0  0  0
  1  2  1  0  0  0  0
  1  3  1  0  0  0  0
  1  4  1  0  0  0  0
  1  5  1  0  0  0  0
  5  6  1  0  0  0  0
  5  7  1  0  0  0  0
  5  8  1  0  0  0  0
  8  9  1  0  0  0  0
  8 10  1  0  0  0  0
  8 11  1  0  0  0  0
 11 12  1  0  0  0  0
 11 13  1  0  0  0  0
 11 14  1  0  0  0  0
 14 15  1  0  0  0  0
 14 16  1  0  0  0  0
 14 17  1  0  0  0  0
 17 18  1  0  0  0  0
 17 19  1  0  0  0  0
 17 20  1  0  0  0  0
 20 21  1  0  0  0  0
 20 22  1  0  0  0  0
 22 23  1  0  0  0  0
 22 24  1  0  0  0  0
 22 25  1  0  0  0  0
 20 26  1  0  0  0  0
 26 27  1  0  0  0  0
 26 28  1  0  0  0  0
 26 29  1  0  0  0  0
M  END
> <VM2 Rank>
120

> <Conf_Id>
335

> <Probability>
0.01

> <Sum Probability>
99.63

> <Delta G>
4.003

> <G>
37.706

> <E>
-0.180

> <-TS>
37.886

> <U+W>
-24.325

> <U>
27.917

> <W>
-52.242

> <W(PB)>
-54.697

> <W(SA)>
2.455

> <Valence>
6.272

> <Coulomb>
20.553

> <VdW>
1.091

> <VdW6>
-9.902

> <VdW12>
10.993

> <Bond>
0.299

> <Angle>
2.362

> <Pdih>
3.611

> <Idih>
0.000

> <Tether>
0.000

$$$$
VeraChem MOL file


 29 28  0  0  0  0  0  0  0  0999 V2000     
   20.2973   18.3360   19.9083 C   0  0  0  0  0  0  0  0  0  0  0  0
   21.2949   18.5871   20.2879 H   0  0  0  0  0  0  0  0  0  0  0  0
   20.3374   17.3055   19.5323 H   0  0  0  0  0  0  0  0  0  0  0  0
   20.0789   18.9941   19.0574 H   0  0  0  0  0  0  0  0  0  0  0  0
   19.2159   18.4689   21.0051 C   0  0  0  0  0  0  0  0  0  0  0  0
   19.4578   17.8008   21.8400 H   0  0  0  0  0  0  0  0  0  0  0  0
   18.2608   18.1104   20.5964 H   0  0  0  0  0  0  0  0  0  0  0  0
   19.0223   19.9256   21.5004 C   0  0  0  0  0  0  0  0  0  0  0  0
   18.8549   20.5651   20.6227 H   0  0  0  0  0  0  0  0  0  0  0  0
   18.0989   19.9928   22.0918 H   0  0  0  0  0  0  0  0  0  0  0  0
   20.2059   20.5065   22.3215 C   0  0  0  0  0  0  0  0  0  0  0  0
   20.2783   21.5798   22.0982 H   0  0  0  0  0  0  0  0  0  0  0  0
   21.1601   20.0753   21.9944 H   0  0  0  0  0  0  0  0  0  0  0  0
   20.0610   20.3615   23.8583 C   0  0  0  0  0  0  0  0  0  0  0  0
   20.9077   20.8766   24.3332 H   0  0  0  0  0  0  0  0  0  0  0  0
   19.1560   20.8912   24.1845 H   0  0  0  0  0  0  0  0  0  0  0  0
   20.0219   18.8959   24.3566 C   0  0  0  0  0  0  0  0  0  0  0  0
   20.8564   18.3433   23.9049 H   0  0  0  0  0  0  0  0  0  0  0  0
   19.0963   18.4122   24.0205 H   0  0  0  0  0  0  0  0  0  0  0  0
   20.1226   18.7828   25.8928 C   0  0  2  0  0  0  0  0  0  0  0  0
   21.0406   19.2844   26.2142 H   0  0  0  0  0  0  0  0  0  0  0  0
   20.2048   17.3076   26.3158 C   0  0  0  0  0  0  0  0  0  0  0  0
   19.3028   16.7582   26.0181 H   0  0  0  0  0  0  0  0  0  0  0  0
   21.0712   16.8175   25.8544 H   0  0  0  0  0  0  0  0  0  0  0  0
   20.3141   17.2212   27.4039 H   0  0  0  0  0  0  0  0  0  0  0  0
   18.9844   19.4713   26.5952 N   0  3  0  0  0  0  0  0  0  0  0  0
   19.0789   19.4068   27.6128 H   0  0  0  0  0  0  0  0  0  0  0  0
   18.0842   19.0547   26.3435 H   0  0  0  0  0  0  0  0  0  0  0  0
   18.9434   20.4651   26.3535 H   0  0  0  0  0  0  0  0  0  0  0  0
  1  2  1  0  0  0  0
  1  3  1  0  0  0  0
  1  4  1  0  0  0  0
  1  5  1  0  0  0  0
  5  6  1  0  0  0  0
  5  7  1  0  0  0  0
  5  8  1  0  0  0  0
  8  9  1  0  0  0  0
  8 10  1  0  0  0  0
  8 11  1  0  0  0  0
 11 12  1  0  0  0  0
 11 13  1  0  0  0  0
 11 14  1  0  0  0  0
 14 15  1  0  0  0  0
 14 16  1  0  0  0  0
 14 17  1  0  0  0  0
 17 18  1  0  0  0  0
 17 19  1  0  0  0  0
 17 20  1  0  0  0  0
 20 21  1  0  0  0  0
 20 22  1  0  0  0  0
 22 23  1  0  0  0  0
 22 24  1  0  0  0  0
 22 25  1  0  0  0  0
 20 26  1  0  0  0  0
 26 27  1  0  0  0  0
 26 28  1  0  0  0  0
 26 29  1  0  0  0  0
M  END
> <VM2 Rank>
121

> <Conf_Id>
1353

> <Probability>
0.01

> <Sum Probability>
99.64

> <Delta G>
4.024

> <G>
37.727

> <E>
-0.067

> <-TS>
37.794

> <U+W>
-24.212

> <U>
28.201

> <W>
-52.413

> <W(PB)>
-54.887

> <W(SA)>
2.474

> <Valence>
6.862

> <Coulomb>
20.157

> <VdW>
1.182

> <VdW6>
-10.208

> <VdW12>
11.390

> <Bond>
0.322

> <Angle>
1.966

> <Pdih>
4.574

> <Idih>
0.000

> <Tether>
0.000

$$$$
VeraChem MOL file


 29 28  0  0  0  0  0  0  0  0999 V2000     
   18.6084   20.3571   20.8853 C   0  0  0  0  0  0  0  0  0  0  0  0
   17.7546   19.8068   21.3013 H   0  0  0  0  0  0  0  0  0  0  0  0
   19.0951   20.9143   21.6951 H   0  0  0  0  0  0  0  0  0  0  0  0
   18.2178   21.0928   20.1705 H   0  0  0  0  0  0  0  0  0  0  0  0
   19.6007   19.4016   20.1875 C   0  0  0  0  0  0  0  0  0  0  0  0
   20.4735   19.9726   19.8412 H   0  0  0  0  0  0  0  0  0  0  0  0
   19.1238   18.9972   19.2838 H   0  0  0  0  0  0  0  0  0  0  0  0
   20.0719   18.2153   21.0669 C   0  0  0  0  0  0  0  0  0  0  0  0
   19.2166   17.5785   21.3315 H   0  0  0  0  0  0  0  0  0  0  0  0
   20.7285   17.5871   20.4493 H   0  0  0  0  0  0  0  0  0  0  0  0
   20.8547   18.6239   22.3420 C   0  0  0  0  0  0  0  0  0  0  0  0
   21.3775   19.5753   22.1731 H   0  0  0  0  0  0  0  0  0  0  0  0
   21.6379   17.8749   22.5237 H   0  0  0  0  0  0  0  0  0  0  0  0
   19.9674   18.7105   23.6079 C   0  0  0  0  0  0  0  0  0  0  0  0
   19.1495   19.4207   23.4454 H   0  0  0  0  0  0  0  0  0  0  0  0
   19.5039   17.7308   23.7829 H   0  0  0  0  0  0  0  0  0  0  0  0
   20.7906   19.1342   24.8520 C   0  0  0  0  0  0  0  0  0  0  0  0
   21.2933   20.0878   24.6436 H   0  0  0  0  0  0  0  0  0  0  0  0
   21.5909   18.4024   25.0242 H   0  0  0  0  0  0  0  0  0  0  0  0
   19.9704   19.2895   26.1545 C   0  0  2  0  0  0  0  0  0  0  0  0
   20.6625   19.6143   26.9375 H   0  0  0  0  0  0  0  0  0  0  0  0
   19.3467   17.9582   26.6081 C   0  0  0  0  0  0  0  0  0  0  0  0
   18.8893   18.0672   27.5991 H   0  0  0  0  0  0  0  0  0  0  0  0
   18.5675   17.6183   25.9156 H   0  0  0  0  0  0  0  0  0  0  0  0
   20.1105   17.1739   26.6788 H   0  0  0  0  0  0  0  0  0  0  0  0
   18.9252   20.3658   26.0499 N   0  3  0  0  0  0  0  0  0  0  0  0
   19.3386   21.2663   25.7912 H   0  0  0  0  0  0  0  0  0  0  0  0
   18.4348   20.4981   26.9391 H   0  0  0  0  0  0  0  0  0  0  0  0
   18.2229   20.1336   25.3432 H   0  0  0  0  0  0  0  0  0  0  0  0
  1  2  1  0  0  0  0
  1  3  1  0  0  0  0
  1  4  1  0  0  0  0
  1  5  1  0  0  0  0
  5  6  1  0  0  0  0
  5  7  1  0  0  0  0
  5  8  1  0  0  0  0
  8  9  1  0  0  0  0
  8 10  1  0  0  0  0
  8 11  1  0  0  0  0
 11 12  1  0  0  0  0
 11 13  1  0  0  0  0
 11 14  1  0  0  0  0
 14 15  1  0  0  0  0
 14 16  1  0  0  0  0
 14 17  1  0  0  0  0
 17 18  1  0  0  0  0
 17 19  1  0  0  0  0
 17 20  1  0  0  0  0
 20 21  1  0  0  0  0
 20 22  1  0  0  0  0
 22 23  1  0  0  0  0
 22 24  1  0  0  0  0
 22 25  1  0  0  0  0
 20 26  1  0  0  0  0
 26 27  1  0  0  0  0
 26 28  1  0  0  0  0
 26 29  1  0  0  0  0
M  END
> <VM2 Rank>
122

> <Conf_Id>
602

> <Probability>
0.01

> <Sum Probability>
99.65

> <Delta G>
4.038

> <G>
37.740

> <E>
-0.154

> <-TS>
37.894

> <U+W>
-24.299

> <U>
28.237

> <W>
-52.536

> <W(PB)>
-54.983

> <W(SA)>
2.448

> <Valence>
6.639

> <Coulomb>
20.375

> <VdW>
1.223

> <VdW6>
-10.233

> <VdW12>
11.456

> <Bond>
0.310

> <Angle>
1.952

> <Pdih>
4.377

> <Idih>
0.000

> <Tether>
0.000

$$$$
VeraChem MOL file


 29 28  0  0  0  0  0  0  0  0999 V2000     
   20.1830   20.5554   19.8545 C   0  0  0  0  0  0  0  0  0  0  0  0
   19.5564   20.2500   19.0064 H   0  0  0  0  0  0  0  0  0  0  0  0
   19.7129   21.4254   20.3313 H   0  0  0  0  0  0  0  0  0  0  0  0
   21.1559   20.8731   19.4576 H   0  0  0  0  0  0  0  0  0  0  0  0
   20.3565   19.3985   20.8610 C   0  0  0  0  0  0  0  0  0  0  0  0
   21.0212   19.7231   21.6707 H   0  0  0  0  0  0  0  0  0  0  0  0
   20.8597   18.5581   20.3629 H   0  0  0  0  0  0  0  0  0  0  0  0
   18.9954   18.9252   21.4257 C   0  0  0  0  0  0  0  0  0  0  0  0
   18.4483   19.7695   21.8671 H   0  0  0  0  0  0  0  0  0  0  0  0
   18.3814   18.5735   20.5850 H   0  0  0  0  0  0  0  0  0  0  0  0
   19.1226   17.7734   22.4565 C   0  0  0  0  0  0  0  0  0  0  0  0
   20.0247   17.1791   22.2557 H   0  0  0  0  0  0  0  0  0  0  0  0
   18.2779   17.0866   22.3073 H   0  0  0  0  0  0  0  0  0  0  0  0
   19.1004   18.2238   23.9401 C   0  0  0  0  0  0  0  0  0  0  0  0
   18.1435   18.7207   24.1481 H   0  0  0  0  0  0  0  0  0  0  0  0
   19.1200   17.3206   24.5631 H   0  0  0  0  0  0  0  0  0  0  0  0
   20.2746   19.1577   24.3373 C   0  0  0  0  0  0  0  0  0  0  0  0
   20.1962   20.0954   23.7739 H   0  0  0  0  0  0  0  0  0  0  0  0
   21.2255   18.6964   24.0399 H   0  0  0  0  0  0  0  0  0  0  0  0
   20.3424   19.5160   25.8408 C   0  0  2  0  0  0  0  0  0  0  0  0
   21.1607   20.2318   25.9666 H   0  0  0  0  0  0  0  0  0  0  0  0
   20.6610   18.2917   26.7167 C   0  0  0  0  0  0  0  0  0  0  0  0
   20.8445   18.6002   27.7532 H   0  0  0  0  0  0  0  0  0  0  0  0
   19.8356   17.5703   26.7247 H   0  0  0  0  0  0  0  0  0  0  0  0
   21.5625   17.7795   26.3583 H   0  0  0  0  0  0  0  0  0  0  0  0
   19.1001   20.2143   26.3213 N   0  3  0  0  0  0  0  0  0  0  0  0
   18.9080   21.0579   25.7735 H   0  0  0  0  0  0  0  0  0  0  0  0
   19.1858   20.4980   27.3015 H   0  0  0  0  0  0  0  0  0  0  0  0
   18.2813   19.6053   26.2480 H   0  0  0  0  0  0  0  0  0  0  0  0
  1  2  1  0  0  0  0
  1  3  1  0  0  0  0
  1  4  1  0  0  0  0
  1  5  1  0  0  0  0
  5  6  1  0  0  0  0
  5  7  1  0  0  0  0
  5  8  1  0  0  0  0
  8  9  1  0  0  0  0
  8 10  1  0  0  0  0
  8 11  1  0  0  0  0
 11 12  1  0  0  0  0
 11 13  1  0  0  0  0
 11 14  1  0  0  0  0
 14 15  1  0  0  0  0
 14 16  1  0  0  0  0
 14 17  1  0  0  0  0
 17 18  1  0  0  0  0
 17 19  1  0  0  0  0
 17 20  1  0  0  0  0
 20 21  1  0  0  0  0
 20 22  1  0  0  0  0
 22 23  1  0  0  0  0
 22 24  1  0  0  0  0
 22 25  1  0  0  0  0
 20 26  1  0  0  0  0
 26 27  1  0  0  0  0
 26 28  1  0  0  0  0
 26 29  1  0  0  0  0
M  END
> <VM2 Rank>
123

> <Conf_Id>
600

> <Probability>
0.01

> <Sum Probability>
99.66

> <Delta G>
4.055

> <G>
37.757

> <E>
-0.141

> <-TS>
37.898

> <U+W>
-24.285

> <U>
28.217

> <W>
-52.503

> <W(PB)>
-54.946

> <W(SA)>
2.444

> <Valence>
6.821

> <Coulomb>
20.147

> <VdW>
1.249

> <VdW6>
-10.236

> <VdW12>
11.486

> <Bond>
0.316

> <Angle>
1.990

> <Pdih>
4.515

> <Idih>
0.000

> <Tether>
0.000

$$$$
VeraChem MOL file


 29 28  0  0  0  0  0  0  0  0999 V2000     
   18.7539   19.4825   19.3540 C   0  0  0  0  0  0  0  0  0  0  0  0
   19.3419   20.3388   18.9989 H   0  0  0  0  0  0  0  0  0  0  0  0
   18.5037   18.8615   18.4841 H   0  0  0  0  0  0  0  0  0  0  0  0
   17.8154   19.8638   19.7770 H   0  0  0  0  0  0  0  0  0  0  0  0
   19.5414   18.6643   20.3991 C   0  0  0  0  0  0  0  0  0  0  0  0
   20.4564   18.2678   19.9372 H   0  0  0  0  0  0  0  0  0  0  0  0
   18.9419   17.7973   20.7104 H   0  0  0  0  0  0  0  0  0  0  0  0
   19.9072   19.5158   21.6350 C   0  0  0  0  0  0  0  0  0  0  0  0
   20.5061   20.3804   21.3174 H   0  0  0  0  0  0  0  0  0  0  0  0
   18.9871   19.9149   22.0804 H   0  0  0  0  0  0  0  0  0  0  0  0
   20.6983   18.6956   22.6828 C   0  0  0  0  0  0  0  0  0  0  0  0
   21.5960   18.2840   22.2011 H   0  0  0  0  0  0  0  0  0  0  0  0
   20.1009   17.8334   23.0027 H   0  0  0  0  0  0  0  0  0  0  0  0
   21.1438   19.5348   23.9088 C   0  0  0  0  0  0  0  0  0  0  0  0
   21.9119   18.9856   24.4708 H   0  0  0  0  0  0  0  0  0  0  0  0
   21.6437   20.4421   23.5423 H   0  0  0  0  0  0  0  0  0  0  0  0
   19.9956   19.9471   24.8714 C   0  0  0  0  0  0  0  0  0  0  0  0
   19.0427   20.0266   24.3351 H   0  0  0  0  0  0  0  0  0  0  0  0
   20.2158   20.9583   25.2383 H   0  0  0  0  0  0  0  0  0  0  0  0
   19.8276   19.0308   26.1071 C   0  0  2  0  0  0  0  0  0  0  0  0
   20.7800   19.0067   26.6456 H   0  0  0  0  0  0  0  0  0  0  0  0
   19.4518   17.5877   25.7312 C   0  0  0  0  0  0  0  0  0  0  0  0
   20.2678   17.0980   25.1874 H   0  0  0  0  0  0  0  0  0  0  0  0
   19.2604   16.9905   26.6312 H   0  0  0  0  0  0  0  0  0  0  0  0
   18.5503   17.5614   25.1064 H   0  0  0  0  0  0  0  0  0  0  0  0
   18.8164   19.5975   27.0646 N   0  3  0  0  0  0  0  0  0  0  0  0
   19.0710   20.5424   27.3666 H   0  0  0  0  0  0  0  0  0  0  0  0
   18.7345   19.0205   27.9066 H   0  0  0  0  0  0  0  0  0  0  0  0
   17.8870   19.6502   26.6388 H   0  0  0  0  0  0  0  0  0  0  0  0
  1  2  1  0  0  0  0
  1  3  1  0  0  0  0
  1  4  1  0  0  0  0
  1  5  1  0  0  0  0
  5  6  1  0  0  0  0
  5  7  1  0  0  0  0
  5  8  1  0  0  0  0
  8  9  1  0  0  0  0
  8 10  1  0  0  0  0
  8 11  1  0  0  0  0
 11 12  1  0  0  0  0
 11 13  1  0  0  0  0
 11 14  1  0  0  0  0
 14 15  1  0  0  0  0
 14 16  1  0  0  0  0
 14 17  1  0  0  0  0
 17 18  1  0  0  0  0
 17 19  1  0  0  0  0
 17 20  1  0  0  0  0
 20 21  1  0  0  0  0
 20 22  1  0  0  0  0
 22 23  1  0  0  0  0
 22 24  1  0  0  0  0
 22 25  1  0  0  0  0
 20 26  1  0  0  0  0
 26 27  1  0  0  0  0
 26 28  1  0  0  0  0
 26 29  1  0  0  0  0
M  END
> <VM2 Rank>
124

> <Conf_Id>
274

> <Probability>
0.01

> <Sum Probability>
99.67

> <Delta G>
4.077

> <G>
37.780

> <E>
0.045

> <-TS>
37.735

> <U+W>
-24.100

> <U>
28.131

> <W>
-52.230

> <W(PB)>
-54.732

> <W(SA)>
2.502

> <Valence>
6.993

> <Coulomb>
19.895

> <VdW>
1.243

> <VdW6>
-9.657

> <VdW12>
10.900

> <Bond>
0.303

> <Angle>
1.907

> <Pdih>
4.782

> <Idih>
0.000

> <Tether>
0.000

$$$$
VeraChem MOL file


 29 28  0  0  0  0  0  0  0  0999 V2000     
   20.9809   19.8983   20.3562 C   0  0  0  0  0  0  0  0  0  0  0  0
   21.5756   20.4874   21.0665 H   0  0  0  0  0  0  0  0  0  0  0  0
   21.3157   18.8550   20.4094 H   0  0  0  0  0  0  0  0  0  0  0  0
   21.2041   20.2653   19.3461 H   0  0  0  0  0  0  0  0  0  0  0  0
   19.4702   20.0259   20.6563 C   0  0  0  0  0  0  0  0  0  0  0  0
   18.8991   19.4068   19.9503 H   0  0  0  0  0  0  0  0  0  0  0  0
   19.1598   21.0644   20.4750 H   0  0  0  0  0  0  0  0  0  0  0  0
   19.1000   19.6429   22.1092 C   0  0  0  0  0  0  0  0  0  0  0  0
   19.6595   20.2877   22.7954 H   0  0  0  0  0  0  0  0  0  0  0  0
   18.0365   19.8696   22.2653 H   0  0  0  0  0  0  0  0  0  0  0  0
   19.3510   18.1464   22.4288 C   0  0  0  0  0  0  0  0  0  0  0  0
   20.4191   17.9060   22.3480 H   0  0  0  0  0  0  0  0  0  0  0  0
   18.8458   17.5466   21.6592 H   0  0  0  0  0  0  0  0  0  0  0  0
   18.8183   17.6956   23.8144 C   0  0  0  0  0  0  0  0  0  0  0  0
   17.8709   18.2004   24.0451 H   0  0  0  0  0  0  0  0  0  0  0  0
   18.5673   16.6281   23.7444 H   0  0  0  0  0  0  0  0  0  0  0  0
   19.8273   17.8521   24.9843 C   0  0  0  0  0  0  0  0  0  0  0  0
   20.7270   17.2661   24.7539 H   0  0  0  0  0  0  0  0  0  0  0  0
   19.3932   17.3977   25.8848 H   0  0  0  0  0  0  0  0  0  0  0  0
   20.2437   19.3026   25.3079 C   0  0  2  0  0  0  0  0  0  0  0  0
   20.7120   19.7332   24.4191 H   0  0  0  0  0  0  0  0  0  0  0  0
   21.2789   19.3208   26.4436 C   0  0  0  0  0  0  0  0  0  0  0  0
   20.8623   18.9016   27.3681 H   0  0  0  0  0  0  0  0  0  0  0  0
   22.1656   18.7346   26.1718 H   0  0  0  0  0  0  0  0  0  0  0  0
   21.6087   20.3461   26.6516 H   0  0  0  0  0  0  0  0  0  0  0  0
   19.0655   20.1714   25.6534 N   0  3  0  0  0  0  0  0  0  0  0  0
   19.3521   21.1377   25.8349 H   0  0  0  0  0  0  0  0  0  0  0  0
   18.5862   19.8308   26.4911 H   0  0  0  0  0  0  0  0  0  0  0  0
   18.3823   20.1874   24.8914 H   0  0  0  0  0  0  0  0  0  0  0  0
  1  2  1  0  0  0  0
  1  3  1  0  0  0  0
  1  4  1  0  0  0  0
  1  5  1  0  0  0  0
  5  6  1  0  0  0  0
  5  7  1  0  0  0  0
  5  8  1  0  0  0  0
  8  9  1  0  0  0  0
  8 10  1  0  0  0  0
  8 11  1  0  0  0  0
 11 12  1  0  0  0  0
 11 13  1  0  0  0  0
 11 14  1  0  0  0  0
 14 15  1  0  0  0  0
 14 16  1  0  0  0  0
 14 17  1  0  0  0  0
 17 18  1  0  0  0  0
 17 19  1  0  0  0  0
 17 20  1  0  0  0  0
 20 21  1  0  0  0  0
 20 22  1  0  0  0  0
 22 23  1  0  0  0  0
 22 24  1  0  0  0  0
 22 25  1  0  0  0  0
 20 26  1  0  0  0  0
 26 27  1  0  0  0  0
 26 28  1  0  0  0  0
 26 29  1  0  0  0  0
M  END
> <VM2 Rank>
125

> <Conf_Id>
1016

> <Probability>
0.01

> <Sum Probability>
99.68

> <Delta G>
4.079

> <G>
37.782

> <E>
-0.158

> <-TS>
37.939

> <U+W>
-24.302

> <U>
28.166

> <W>
-52.468

> <W(PB)>
-54.891

> <W(SA)>
2.423

> <Valence>
6.294

> <Coulomb>
21.099

> <VdW>
0.772

> <VdW6>
-10.790

> <VdW12>
11.563

> <Bond>
0.315

> <Angle>
2.120

> <Pdih>
3.860

> <Idih>
0.000

> <Tether>
0.000

$$$$
VeraChem MOL file


 29 28  0  0  0  0  0  0  0  0999 V2000     
   18.4302   19.5509   20.2499 C   0  0  0  0  0  0  0  0  0  0  0  0
   18.5924   18.8316   19.4368 H   0  0  0  0  0  0  0  0  0  0  0  0
   17.9200   19.0277   21.0658 H   0  0  0  0  0  0  0  0  0  0  0  0
   17.7498   20.3272   19.8765 H   0  0  0  0  0  0  0  0  0  0  0  0
   19.7680   20.1786   20.7056 C   0  0  0  0  0  0  0  0  0  0  0  0
   19.5890   20.9458   21.4716 H   0  0  0  0  0  0  0  0  0  0  0  0
   20.2032   20.7067   19.8456 H   0  0  0  0  0  0  0  0  0  0  0  0
   20.7965   19.1365   21.2155 C   0  0  0  0  0  0  0  0  0  0  0  0
   20.6489   18.1748   20.7051 H   0  0  0  0  0  0  0  0  0  0  0  0
   21.7996   19.4757   20.9221 H   0  0  0  0  0  0  0  0  0  0  0  0
   20.8065   18.9298   22.7520 C   0  0  0  0  0  0  0  0  0  0  0  0
   21.0539   19.8823   23.2394 H   0  0  0  0  0  0  0  0  0  0  0  0
   21.6230   18.2375   22.9995 H   0  0  0  0  0  0  0  0  0  0  0  0
   19.4825   18.3706   23.3272 C   0  0  0  0  0  0  0  0  0  0  0  0
   18.6829   19.1131   23.2149 H   0  0  0  0  0  0  0  0  0  0  0  0
   19.1769   17.4929   22.7414 H   0  0  0  0  0  0  0  0  0  0  0  0
   19.5957   17.9549   24.8162 C   0  0  0  0  0  0  0  0  0  0  0  0
   20.3226   17.1360   24.8999 H   0  0  0  0  0  0  0  0  0  0  0  0
   18.6327   17.5448   25.1482 H   0  0  0  0  0  0  0  0  0  0  0  0
   20.0177   19.1014   25.7621 C   0  0  2  0  0  0  0  0  0  0  0  0
   20.9844   19.4876   25.4256 H   0  0  0  0  0  0  0  0  0  0  0  0
   20.1843   18.5772   27.1971 C   0  0  0  0  0  0  0  0  0  0  0  0
   20.5216   19.3783   27.8663 H   0  0  0  0  0  0  0  0  0  0  0  0
   19.2385   18.1810   27.5875 H   0  0  0  0  0  0  0  0  0  0  0  0
   20.9320   17.7752   27.2345 H   0  0  0  0  0  0  0  0  0  0  0  0
   19.0546   20.2561   25.7284 N   0  3  0  0  0  0  0  0  0  0  0  0
   19.3625   21.0187   26.3386 H   0  0  0  0  0  0  0  0  0  0  0  0
   18.1217   19.9718   26.0390 H   0  0  0  0  0  0  0  0  0  0  0  0
   18.9635   20.6354   24.7821 H   0  0  0  0  0  0  0  0  0  0  0  0
  1  2  1  0  0  0  0
  1  3  1  0  0  0  0
  1  4  1  0  0  0  0
  1  5  1  0  0  0  0
  5  6  1  0  0  0  0
  5  7  1  0  0  0  0
  5  8  1  0  0  0  0
  8  9  1  0  0  0  0
  8 10  1  0  0  0  0
  8 11  1  0  0  0  0
 11 12  1  0  0  0  0
 11 13  1  0  0  0  0
 11 14  1  0  0  0  0
 14 15  1  0  0  0  0
 14 16  1  0  0  0  0
 14 17  1  0  0  0  0
 17 18  1  0  0  0  0
 17 19  1  0  0  0  0
 17 20  1  0  0  0  0
 20 21  1  0  0  0  0
 20 22  1  0  0  0  0
 22 23  1  0  0  0  0
 22 24  1  0  0  0  0
 22 25  1  0  0  0  0
 20 26  1  0  0  0  0
 26 27  1  0  0  0  0
 26 28  1  0  0  0  0
 26 29  1  0  0  0  0
M  END
> <VM2 Rank>
126

> <Conf_Id>
696

> <Probability>
0.01

> <Sum Probability>
99.69

> <Delta G>
4.111

> <G>
37.814

> <E>
-0.106

> <-TS>
37.919

> <U+W>
-24.250

> <U>
28.133

> <W>
-52.383

> <W(PB)>
-54.837

> <W(SA)>
2.454

> <Valence>
6.427

> <Coulomb>
20.720

> <VdW>
0.986

> <VdW6>
-10.459

> <VdW12>
11.445

> <Bond>
0.299

> <Angle>
1.839

> <Pdih>
4.288

> <Idih>
0.000

> <Tether>
0.000

$$$$
VeraChem MOL file


 29 28  0  0  0  0  0  0  0  0999 V2000     
   20.2678   20.7624   20.6475 C   0  0  0  0  0  0  0  0  0  0  0  0
   19.3633   21.3435   20.4259 H   0  0  0  0  0  0  0  0  0  0  0  0
   20.5636   20.9671   21.6840 H   0  0  0  0  0  0  0  0  0  0  0  0
   21.0714   21.1297   19.9962 H   0  0  0  0  0  0  0  0  0  0  0  0
   20.0295   19.2534   20.4142 C   0  0  0  0  0  0  0  0  0  0  0  0
   20.9395   18.6918   20.6644 H   0  0  0  0  0  0  0  0  0  0  0  0
   19.8569   19.0845   19.3421 H   0  0  0  0  0  0  0  0  0  0  0  0
   18.8195   18.6911   21.2029 C   0  0  0  0  0  0  0  0  0  0  0  0
   17.9050   19.1914   20.8558 H   0  0  0  0  0  0  0  0  0  0  0  0
   18.6950   17.6291   20.9501 H   0  0  0  0  0  0  0  0  0  0  0  0
   18.9130   18.8353   22.7435 C   0  0  0  0  0  0  0  0  0  0  0  0
   18.0015   18.4105   23.1860 H   0  0  0  0  0  0  0  0  0  0  0  0
   18.9214   19.9005   23.0010 H   0  0  0  0  0  0  0  0  0  0  0  0
   20.1517   18.1288   23.3487 C   0  0  0  0  0  0  0  0  0  0  0  0
   20.2315   17.1242   22.9108 H   0  0  0  0  0  0  0  0  0  0  0  0
   21.0651   18.6638   23.0559 H   0  0  0  0  0  0  0  0  0  0  0  0
   20.1247   17.9767   24.8923 C   0  0  0  0  0  0  0  0  0  0  0  0
   20.9834   17.3505   25.1690 H   0  0  0  0  0  0  0  0  0  0  0  0
   19.2332   17.4162   25.2031 H   0  0  0  0  0  0  0  0  0  0  0  0
   20.2135   19.3073   25.6766 C   0  0  2  0  0  0  0  0  0  0  0  0
   20.9370   19.9566   25.1741 H   0  0  0  0  0  0  0  0  0  0  0  0
   20.7101   19.0515   27.1091 C   0  0  0  0  0  0  0  0  0  0  0  0
   21.7028   18.5843   27.1013 H   0  0  0  0  0  0  0  0  0  0  0  0
   20.7922   19.9930   27.6660 H   0  0  0  0  0  0  0  0  0  0  0  0
   20.0250   18.3900   27.6542 H   0  0  0  0  0  0  0  0  0  0  0  0
   18.9061   20.0496   25.7193 N   0  3  0  0  0  0  0  0  0  0  0  0
   19.0005   20.9449   26.2073 H   0  0  0  0  0  0  0  0  0  0  0  0
   18.1883   19.5084   26.2086 H   0  0  0  0  0  0  0  0  0  0  0  0
   18.5569   20.2453   24.7785 H   0  0  0  0  0  0  0  0  0  0  0  0
  1  2  1  0  0  0  0
  1  3  1  0  0  0  0
  1  4  1  0  0  0  0
  1  5  1  0  0  0  0
  5  6  1  0  0  0  0
  5  7  1  0  0  0  0
  5  8  1  0  0  0  0
  8  9  1  0  0  0  0
  8 10  1  0  0  0  0
  8 11  1  0  0  0  0
 11 12  1  0  0  0  0
 11 13  1  0  0  0  0
 11 14  1  0  0  0  0
 14 15  1  0  0  0  0
 14 16  1  0  0  0  0
 14 17  1  0  0  0  0
 17 18  1  0  0  0  0
 17 19  1  0  0  0  0
 17 20  1  0  0  0  0
 20 21  1  0  0  0  0
 20 22  1  0  0  0  0
 22 23  1  0  0  0  0
 22 24  1  0  0  0  0
 22 25  1  0  0  0  0
 20 26  1  0  0  0  0
 26 27  1  0  0  0  0
 26 28  1  0  0  0  0
 26 29  1  0  0  0  0
M  END
> <VM2 Rank>
127

> <Conf_Id>
664

> <Probability>
0.01

> <Sum Probability>
99.71

> <Delta G>
4.111

> <G>
37.814

> <E>
0.009

> <-TS>
37.805

> <U+W>
-24.135

> <U>
28.192

> <W>
-52.327

> <W(PB)>
-54.784

> <W(SA)>
2.456

> <Valence>
5.839

> <Coulomb>
21.295

> <VdW>
1.058

> <VdW6>
-10.711

> <VdW12>
11.769

> <Bond>
0.323

> <Angle>
2.126

> <Pdih>
3.390

> <Idih>
0.000

> <Tether>
0.000

$$$$
VeraChem MOL file


 29 28  0  0  0  0  0  0  0  0999 V2000     
   21.2271   20.0415   21.2355 C   0  0  0  0  0  0  0  0  0  0  0  0
   21.0605   20.3680   22.2672 H   0  0  0  0  0  0  0  0  0  0  0  0
   21.9946   19.2568   21.2460 H   0  0  0  0  0  0  0  0  0  0  0  0
   21.6341   20.8973   20.6817 H   0  0  0  0  0  0  0  0  0  0  0  0
   19.9278   19.5362   20.5662 C   0  0  0  0  0  0  0  0  0  0  0  0
   20.1594   19.3041   19.5172 H   0  0  0  0  0  0  0  0  0  0  0  0
   19.1765   20.3376   20.5388 H   0  0  0  0  0  0  0  0  0  0  0  0
   19.3356   18.2648   21.2280 C   0  0  0  0  0  0  0  0  0  0  0  0
   18.8646   17.6649   20.4370 H   0  0  0  0  0  0  0  0  0  0  0  0
   20.1372   17.6311   21.6290 H   0  0  0  0  0  0  0  0  0  0  0  0
   18.2489   18.5312   22.3050 C   0  0  0  0  0  0  0  0  0  0  0  0
   17.8343   17.5668   22.6292 H   0  0  0  0  0  0  0  0  0  0  0  0
   17.4141   19.0698   21.8359 H   0  0  0  0  0  0  0  0  0  0  0  0
   18.7035   19.3205   23.5577 C   0  0  0  0  0  0  0  0  0  0  0  0
   19.0408   20.3227   23.2651 H   0  0  0  0  0  0  0  0  0  0  0  0
   17.8227   19.4758   24.1944 H   0  0  0  0  0  0  0  0  0  0  0  0
   19.8047   18.5984   24.3761 C   0  0  0  0  0  0  0  0  0  0  0  0
   20.6754   18.4149   23.7352 H   0  0  0  0  0  0  0  0  0  0  0  0
   19.4412   17.6135   24.6978 H   0  0  0  0  0  0  0  0  0  0  0  0
   20.2674   19.4092   25.6057 C   0  0  2  0  0  0  0  0  0  0  0  0
   20.5909   20.3969   25.2631 H   0  0  0  0  0  0  0  0  0  0  0  0
   21.4619   18.7185   26.2826 C   0  0  0  0  0  0  0  0  0  0  0  0
   21.8182   19.3075   27.1367 H   0  0  0  0  0  0  0  0  0  0  0  0
   21.1891   17.7197   26.6459 H   0  0  0  0  0  0  0  0  0  0  0  0
   22.2986   18.6103   25.5812 H   0  0  0  0  0  0  0  0  0  0  0  0
   19.1591   19.6358   26.5973 N   0  3  0  0  0  0  0  0  0  0  0  0
   19.4793   20.1908   27.3960 H   0  0  0  0  0  0  0  0  0  0  0  0
   18.7998   18.7501   26.9633 H   0  0  0  0  0  0  0  0  0  0  0  0
   18.3735   20.1355   26.1720 H   0  0  0  0  0  0  0  0  0  0  0  0
  1  2  1  0  0  0  0
  1  3  1  0  0  0  0
  1  4  1  0  0  0  0
  1  5  1  0  0  0  0
  5  6  1  0  0  0  0
  5  7  1  0  0  0  0
  5  8  1  0  0  0  0
  8  9  1  0  0  0  0
  8 10  1  0  0  0  0
  8 11  1  0  0  0  0
 11 12  1  0  0  0  0
 11 13  1  0  0  0  0
 11 14  1  0  0  0  0
 14 15  1  0  0  0  0
 14 16  1  0  0  0  0
 14 17  1  0  0  0  0
 17 18  1  0  0  0  0
 17 19  1  0  0  0  0
 17 20  1  0  0  0  0
 20 21  1  0  0  0  0
 20 22  1  0  0  0  0
 22 23  1  0  0  0  0
 22 24  1  0  0  0  0
 22 25  1  0  0  0  0
 20 26  1  0  0  0  0
 26 27  1  0  0  0  0
 26 28  1  0  0  0  0
 26 29  1  0  0  0  0
M  END
> <VM2 Rank>
128

> <Conf_Id>
1548

> <Probability>
0.01

> <Sum Probability>
99.72

> <Delta G>
4.115

> <G>
37.818

> <E>
-0.405

> <-TS>
38.223

> <U+W>
-24.550

> <U>
27.919

> <W>
-52.468

> <W(PB)>
-54.879

> <W(SA)>
2.411

> <Valence>
6.769

> <Coulomb>
20.295

> <VdW>
0.855

> <VdW6>
-10.882

> <VdW12>
11.736

> <Bond>
0.328

> <Angle>
2.340

> <Pdih>
4.102

> <Idih>
0.000

> <Tether>
0.000

$$$$
VeraChem MOL file


 29 28  0  0  0  0  0  0  0  0999 V2000     
   19.0840   19.6707   19.2300 C   0  0  0  0  0  0  0  0  0  0  0  0
   18.0138   19.8243   19.4203 H   0  0  0  0  0  0  0  0  0  0  0  0
   19.4293   20.4796   18.5732 H   0  0  0  0  0  0  0  0  0  0  0  0
   19.2026   18.7232   18.6883 H   0  0  0  0  0  0  0  0  0  0  0  0
   19.8854   19.6602   20.5489 C   0  0  0  0  0  0  0  0  0  0  0  0
   19.7751   20.6362   21.0400 H   0  0  0  0  0  0  0  0  0  0  0  0
   20.9539   19.5342   20.3250 H   0  0  0  0  0  0  0  0  0  0  0  0
   19.4129   18.5302   21.4937 C   0  0  0  0  0  0  0  0  0  0  0  0
   18.3588   18.6877   21.7609 H   0  0  0  0  0  0  0  0  0  0  0  0
   19.4541   17.5738   20.9543 H   0  0  0  0  0  0  0  0  0  0  0  0
   20.2610   18.4025   22.7829 C   0  0  0  0  0  0  0  0  0  0  0  0
   21.3108   18.2228   22.5130 H   0  0  0  0  0  0  0  0  0  0  0  0
   19.9301   17.5074   23.3226 H   0  0  0  0  0  0  0  0  0  0  0  0
   20.1687   19.6430   23.7084 C   0  0  0  0  0  0  0  0  0  0  0  0
   20.6228   20.4978   23.1903 H   0  0  0  0  0  0  0  0  0  0  0  0
   19.1183   19.9135   23.8757 H   0  0  0  0  0  0  0  0  0  0  0  0
   20.9094   19.4574   25.0623 C   0  0  0  0  0  0  0  0  0  0  0  0
   21.3738   20.4141   25.3354 H   0  0  0  0  0  0  0  0  0  0  0  0
   21.7450   18.7561   24.9382 H   0  0  0  0  0  0  0  0  0  0  0  0
   20.0341   19.0086   26.2588 C   0  0  2  0  0  0  0  0  0  0  0  0
   20.6965   18.9157   27.1250 H   0  0  0  0  0  0  0  0  0  0  0  0
   19.3716   17.6397   26.0353 C   0  0  0  0  0  0  0  0  0  0  0  0
   18.8803   17.2972   26.9542 H   0  0  0  0  0  0  0  0  0  0  0  0
   18.6109   17.6853   25.2468 H   0  0  0  0  0  0  0  0  0  0  0  0
   20.1184   16.8858   25.7571 H   0  0  0  0  0  0  0  0  0  0  0  0
   19.0089   20.0436   26.6337 N   0  3  0  0  0  0  0  0  0  0  0  0
   18.4811   19.7629   27.4651 H   0  0  0  0  0  0  0  0  0  0  0  0
   18.3357   20.1912   25.8778 H   0  0  0  0  0  0  0  0  0  0  0  0
   19.4452   20.9471   26.8388 H   0  0  0  0  0  0  0  0  0  0  0  0
  1  2  1  0  0  0  0
  1  3  1  0  0  0  0
  1  4  1  0  0  0  0
  1  5  1  0  0  0  0
  5  6  1  0  0  0  0
  5  7  1  0  0  0  0
  5  8  1  0  0  0  0
  8  9  1  0  0  0  0
  8 10  1  0  0  0  0
  8 11  1  0  0  0  0
 11 12  1  0  0  0  0
 11 13  1  0  0  0  0
 11 14  1  0  0  0  0
 14 15  1  0  0  0  0
 14 16  1  0  0  0  0
 14 17  1  0  0  0  0
 17 18  1  0  0  0  0
 17 19  1  0  0  0  0
 17 20  1  0  0  0  0
 20 21  1  0  0  0  0
 20 22  1  0  0  0  0
 22 23  1  0  0  0  0
 22 24  1  0  0  0  0
 22 25  1  0  0  0  0
 20 26  1  0  0  0  0
 26 27  1  0  0  0  0
 26 28  1  0  0  0  0
 26 29  1  0  0  0  0
M  END
> <VM2 Rank>
129

> <Conf_Id>
1332

> <Probability>
0.01

> <Sum Probability>
99.73

> <Delta G>
4.116

> <G>
37.819

> <E>
-0.062

> <-TS>
37.881

> <U+W>
-24.207

> <U>
28.146

> <W>
-52.353

> <W(PB)>
-54.817

> <W(SA)>
2.464

> <Valence>
6.843

> <Coulomb>
20.058

> <VdW>
1.246

> <VdW6>
-10.183

> <VdW12>
11.428

> <Bond>
0.324

> <Angle>
2.004

> <Pdih>
4.515

> <Idih>
0.000

> <Tether>
0.000

$$$$
VeraChem MOL file


 29 28  0  0  0  0  0  0  0  0999 V2000     
   18.9234   18.4556   19.9347 C   0  0  0  0  0  0  0  0  0  0  0  0
   18.0196   18.8629   20.4036 H   0  0  0  0  0  0  0  0  0  0  0  0
   19.1662   19.0773   19.0632 H   0  0  0  0  0  0  0  0  0  0  0  0
   18.6813   17.4489   19.5702 H   0  0  0  0  0  0  0  0  0  0  0  0
   20.1089   18.4011   20.9254 C   0  0  0  0  0  0  0  0  0  0  0  0
   20.9545   17.9049   20.4292 H   0  0  0  0  0  0  0  0  0  0  0  0
   19.8424   17.7671   21.7798 H   0  0  0  0  0  0  0  0  0  0  0  0
   20.5700   19.8027   21.4020 C   0  0  0  0  0  0  0  0  0  0  0  0
   21.5523   19.7220   21.8873 H   0  0  0  0  0  0  0  0  0  0  0  0
   20.7329   20.4303   20.5150 H   0  0  0  0  0  0  0  0  0  0  0  0
   19.5793   20.5278   22.3533 C   0  0  0  0  0  0  0  0  0  0  0  0
   18.5466   20.2143   22.1565 H   0  0  0  0  0  0  0  0  0  0  0  0
   19.6092   21.6013   22.1210 H   0  0  0  0  0  0  0  0  0  0  0  0
   19.8965   20.3693   23.8628 C   0  0  0  0  0  0  0  0  0  0  0  0
   20.8909   20.7873   24.0724 H   0  0  0  0  0  0  0  0  0  0  0  0
   19.1811   20.9858   24.4223 H   0  0  0  0  0  0  0  0  0  0  0  0
   19.8351   18.9082   24.3740 C   0  0  0  0  0  0  0  0  0  0  0  0
   20.6097   18.3209   23.8658 H   0  0  0  0  0  0  0  0  0  0  0  0
   18.8680   18.4604   24.1094 H   0  0  0  0  0  0  0  0  0  0  0  0
   20.0632   18.7910   25.8967 C   0  0  2  0  0  0  0  0  0  0  0  0
   21.0105   19.2815   26.1407 H   0  0  0  0  0  0  0  0  0  0  0  0
   20.1642   17.3136   26.3088 C   0  0  0  0  0  0  0  0  0  0  0  0
   20.3604   17.2230   27.3843 H   0  0  0  0  0  0  0  0  0  0  0  0
   19.2355   16.7744   26.0840 H   0  0  0  0  0  0  0  0  0  0  0  0
   20.9854   16.8158   25.7782 H   0  0  0  0  0  0  0  0  0  0  0  0
   18.9954   19.4867   26.6962 N   0  3  0  0  0  0  0  0  0  0  0  0
   19.1731   19.4122   27.7019 H   0  0  0  0  0  0  0  0  0  0  0  0
   18.0725   19.0823   26.5170 H   0  0  0  0  0  0  0  0  0  0  0  0
   18.9457   20.4830   26.4671 H   0  0  0  0  0  0  0  0  0  0  0  0
  1  2  1  0  0  0  0
  1  3  1  0  0  0  0
  1  4  1  0  0  0  0
  1  5  1  0  0  0  0
  5  6  1  0  0  0  0
  5  7  1  0  0  0  0
  5  8  1  0  0  0  0
  8  9  1  0  0  0  0
  8 10  1  0  0  0  0
  8 11  1  0  0  0  0
 11 12  1  0  0  0  0
 11 13  1  0  0  0  0
 11 14  1  0  0  0  0
 14 15  1  0  0  0  0
 14 16  1  0  0  0  0
 14 17  1  0  0  0  0
 17 18  1  0  0  0  0
 17 19  1  0  0  0  0
 17 20  1  0  0  0  0
 20 21  1  0  0  0  0
 20 22  1  0  0  0  0
 22 23  1  0  0  0  0
 22 24  1  0  0  0  0
 22 25  1  0  0  0  0
 20 26  1  0  0  0  0
 26 27  1  0  0  0  0
 26 28  1  0  0  0  0
 26 29  1  0  0  0  0
M  END
> <VM2 Rank>
130

> <Conf_Id>
1202

> <Probability>
0.01

> <Sum Probability>
99.74

> <Delta G>
4.153

> <G>
37.856

> <E>
0.040

> <-TS>
37.816

> <U+W>
-24.104

> <U>
28.258

> <W>
-52.363

> <W(PB)>
-54.796

> <W(SA)>
2.433

> <Valence>
6.944

> <Coulomb>
20.034

> <VdW>
1.280

> <VdW6>
-10.157

> <VdW12>
11.436

> <Bond>
0.326

> <Angle>
1.949

> <Pdih>
4.669

> <Idih>
0.000

> <Tether>
0.000

$$$$
VeraChem MOL file


 29 28  0  0  0  0  0  0  0  0999 V2000     
   21.3192   19.1472   20.8182 C   0  0  0  0  0  0  0  0  0  0  0  0
   21.6144   19.3259   21.8586 H   0  0  0  0  0  0  0  0  0  0  0  0
   21.2258   18.0650   20.6602 H   0  0  0  0  0  0  0  0  0  0  0  0
   22.1349   19.5112   20.1803 H   0  0  0  0  0  0  0  0  0  0  0  0
   20.0020   19.8767   20.4772 C   0  0  0  0  0  0  0  0  0  0  0  0
   19.8478   19.8316   19.3900 H   0  0  0  0  0  0  0  0  0  0  0  0
   20.0997   20.9426   20.7262 H   0  0  0  0  0  0  0  0  0  0  0  0
   18.7469   19.2916   21.1735 C   0  0  0  0  0  0  0  0  0  0  0  0
   17.8758   19.8488   20.8020 H   0  0  0  0  0  0  0  0  0  0  0  0
   18.5892   18.2519   20.8554 H   0  0  0  0  0  0  0  0  0  0  0  0
   18.7534   19.3879   22.7216 C   0  0  0  0  0  0  0  0  0  0  0  0
   17.7206   19.5493   23.0600 H   0  0  0  0  0  0  0  0  0  0  0  0
   19.3192   20.2753   23.0348 H   0  0  0  0  0  0  0  0  0  0  0  0
   19.2942   18.1130   23.4190 C   0  0  0  0  0  0  0  0  0  0  0  0
   18.7313   17.2420   23.0566 H   0  0  0  0  0  0  0  0  0  0  0  0
   20.3374   17.9294   23.1394 H   0  0  0  0  0  0  0  0  0  0  0  0
   19.1650   18.1645   24.9633 C   0  0  0  0  0  0  0  0  0  0  0  0
   19.5435   17.2240   25.3853 H   0  0  0  0  0  0  0  0  0  0  0  0
   18.0983   18.2051   25.2202 H   0  0  0  0  0  0  0  0  0  0  0  0
   19.8834   19.3543   25.6423 C   0  0  2  0  0  0  0  0  0  0  0  0
   19.5003   20.2827   25.2088 H   0  0  0  0  0  0  0  0  0  0  0  0
   21.4066   19.3084   25.4285 C   0  0  0  0  0  0  0  0  0  0  0  0
   21.8311   18.3672   25.7996 H   0  0  0  0  0  0  0  0  0  0  0  0
   21.6618   19.4059   24.3675 H   0  0  0  0  0  0  0  0  0  0  0  0
   21.8964   20.1350   25.9577 H   0  0  0  0  0  0  0  0  0  0  0  0
   19.5653   19.4124   27.1104 N   0  3  0  0  0  0  0  0  0  0  0  0
   19.8963   18.5754   27.5980 H   0  0  0  0  0  0  0  0  0  0  0  0
   18.5572   19.4861   27.2753 H   0  0  0  0  0  0  0  0  0  0  0  0
   20.0071   20.2209   27.5573 H   0  0  0  0  0  0  0  0  0  0  0  0
  1  2  1  0  0  0  0
  1  3  1  0  0  0  0
  1  4  1  0  0  0  0
  1  5  1  0  0  0  0
  5  6  1  0  0  0  0
  5  7  1  0  0  0  0
  5  8  1  0  0  0  0
  8  9  1  0  0  0  0
  8 10  1  0  0  0  0
  8 11  1  0  0  0  0
 11 12  1  0  0  0  0
 11 13  1  0  0  0  0
 11 14  1  0  0  0  0
 14 15  1  0  0  0  0
 14 16  1  0  0  0  0
 14 17  1  0  0  0  0
 17 18  1  0  0  0  0
 17 19  1  0  0  0  0
 17 20  1  0  0  0  0
 20 21  1  0  0  0  0
 20 22  1  0  0  0  0
 22 23  1  0  0  0  0
 22 24  1  0  0  0  0
 22 25  1  0  0  0  0
 20 26  1  0  0  0  0
 26 27  1  0  0  0  0
 26 28  1  0  0  0  0
 26 29  1  0  0  0  0
M  END
> <VM2 Rank>
131

> <Conf_Id>
1228

> <Probability>
0.01

> <Sum Probability>
99.75

> <Delta G>
4.157

> <G>
37.859

> <E>
-0.264

> <-TS>
38.123

> <U+W>
-24.408

> <U>
28.098

> <W>
-52.506

> <W(PB)>
-54.915

> <W(SA)>
2.409

> <Valence>
6.979

> <Coulomb>
20.251

> <VdW>
0.868

> <VdW6>
-10.914

> <VdW12>
11.782

> <Bond>
0.321

> <Angle>
2.264

> <Pdih>
4.394

> <Idih>
0.000

> <Tether>
0.000

$$$$
VeraChem MOL file


 29 28  0  0  0  0  0  0  0  0999 V2000     
   18.5033   19.3370   20.0503 C   0  0  0  0  0  0  0  0  0  0  0  0
   17.9305   19.0104   20.9252 H   0  0  0  0  0  0  0  0  0  0  0  0
   18.2285   20.3781   19.8367 H   0  0  0  0  0  0  0  0  0  0  0  0
   18.1834   18.7264   19.1961 H   0  0  0  0  0  0  0  0  0  0  0  0
   20.0283   19.2035   20.2696 C   0  0  0  0  0  0  0  0  0  0  0  0
   20.5324   19.5306   19.3493 H   0  0  0  0  0  0  0  0  0  0  0  0
   20.3042   18.1486   20.4063 H   0  0  0  0  0  0  0  0  0  0  0  0
   20.5556   20.0567   21.4519 C   0  0  0  0  0  0  0  0  0  0  0  0
   21.5472   20.4431   21.1783 H   0  0  0  0  0  0  0  0  0  0  0  0
   19.9222   20.9432   21.5930 H   0  0  0  0  0  0  0  0  0  0  0  0
   20.7078   19.2916   22.7919 C   0  0  0  0  0  0  0  0  0  0  0  0
   21.1553   19.9797   23.5206 H   0  0  0  0  0  0  0  0  0  0  0  0
   21.4279   18.4719   22.6630 H   0  0  0  0  0  0  0  0  0  0  0  0
   19.3814   18.7253   23.3558 C   0  0  0  0  0  0  0  0  0  0  0  0
   18.6272   19.5215   23.4087 H   0  0  0  0  0  0  0  0  0  0  0  0
   18.9883   17.9721   22.6612 H   0  0  0  0  0  0  0  0  0  0  0  0
   19.5430   18.0509   24.7427 C   0  0  0  0  0  0  0  0  0  0  0  0
   20.2391   17.2071   24.6461 H   0  0  0  0  0  0  0  0  0  0  0  0
   18.5789   17.6195   25.0431 H   0  0  0  0  0  0  0  0  0  0  0  0
   20.0470   18.9945   25.8579 C   0  0  2  0  0  0  0  0  0  0  0  0
   21.0216   19.3921   25.5605 H   0  0  0  0  0  0  0  0  0  0  0  0
   20.2287   18.2191   27.1723 C   0  0  0  0  0  0  0  0  0  0  0  0
   20.6245   18.8744   27.9580 H   0  0  0  0  0  0  0  0  0  0  0  0
   19.2762   17.8022   27.5226 H   0  0  0  0  0  0  0  0  0  0  0  0
   20.9366   17.3912   27.0413 H   0  0  0  0  0  0  0  0  0  0  0  0
   19.1408   20.1774   26.0616 N   0  3  0  0  0  0  0  0  0  0  0  0
   19.5012   20.8054   26.7857 H   0  0  0  0  0  0  0  0  0  0  0  0
   18.2034   19.8834   26.3484 H   0  0  0  0  0  0  0  0  0  0  0  0
   19.0443   20.7226   25.2006 H   0  0  0  0  0  0  0  0  0  0  0  0
  1  2  1  0  0  0  0
  1  3  1  0  0  0  0
  1  4  1  0  0  0  0
  1  5  1  0  0  0  0
  5  6  1  0  0  0  0
  5  7  1  0  0  0  0
  5  8  1  0  0  0  0
  8  9  1  0  0  0  0
  8 10  1  0  0  0  0
  8 11  1  0  0  0  0
 11 12  1  0  0  0  0
 11 13  1  0  0  0  0
 11 14  1  0  0  0  0
 14 15  1  0  0  0  0
 14 16  1  0  0  0  0
 14 17  1  0  0  0  0
 17 18  1  0  0  0  0
 17 19  1  0  0  0  0
 17 20  1  0  0  0  0
 20 21  1  0  0  0  0
 20 22  1  0  0  0  0
 22 23  1  0  0  0  0
 22 24  1  0  0  0  0
 22 25  1  0  0  0  0
 20 26  1  0  0  0  0
 26 27  1  0  0  0  0
 26 28  1  0  0  0  0
 26 29  1  0  0  0  0
M  END
> <VM2 Rank>
132

> <Conf_Id>
981

> <Probability>
0.01

> <Sum Probability>
99.76

> <Delta G>
4.168

> <G>
37.870

> <E>
-0.037

> <-TS>
37.907

> <U+W>
-24.181

> <U>
28.057

> <W>
-52.238

> <W(PB)>
-54.698

> <W(SA)>
2.460

> <Valence>
6.543

> <Coulomb>
20.387

> <VdW>
1.127

> <VdW6>
-10.342

> <VdW12>
11.469

> <Bond>
0.308

> <Angle>
1.938

> <Pdih>
4.297

> <Idih>
0.000

> <Tether>
0.000

$$$$
VeraChem MOL file


 29 28  0  0  0  0  0  0  0  0999 V2000     
   19.5600   19.2336   19.1272 C   0  0  0  0  0  0  0  0  0  0  0  0
   19.5786   18.1456   18.9820 H   0  0  0  0  0  0  0  0  0  0  0  0
   18.5475   19.5918   18.8997 H   0  0  0  0  0  0  0  0  0  0  0  0
   20.2476   19.6828   18.3989 H   0  0  0  0  0  0  0  0  0  0  0  0
   19.9710   19.6076   20.5671 C   0  0  0  0  0  0  0  0  0  0  0  0
   19.9708   20.7014   20.6729 H   0  0  0  0  0  0  0  0  0  0  0  0
   21.0013   19.2709   20.7404 H   0  0  0  0  0  0  0  0  0  0  0  0
   19.0170   18.9814   21.6120 C   0  0  0  0  0  0  0  0  0  0  0  0
   17.9854   19.2669   21.3638 H   0  0  0  0  0  0  0  0  0  0  0  0
   19.0577   17.8856   21.5435 H   0  0  0  0  0  0  0  0  0  0  0  0
   19.3084   19.4234   23.0674 C   0  0  0  0  0  0  0  0  0  0  0  0
   18.4814   19.0648   23.6911 H   0  0  0  0  0  0  0  0  0  0  0  0
   19.3007   20.5205   23.1265 H   0  0  0  0  0  0  0  0  0  0  0  0
   20.6451   18.8726   23.6253 C   0  0  0  0  0  0  0  0  0  0  0  0
   20.6206   17.7747   23.6248 H   0  0  0  0  0  0  0  0  0  0  0  0
   21.4615   19.1509   22.9475 H   0  0  0  0  0  0  0  0  0  0  0  0
   21.0238   19.3968   25.0395 C   0  0  0  0  0  0  0  0  0  0  0  0
   21.1630   20.4850   24.9972 H   0  0  0  0  0  0  0  0  0  0  0  0
   22.0110   18.9877   25.2916 H   0  0  0  0  0  0  0  0  0  0  0  0
   20.0677   19.0573   26.2115 C   0  0  2  0  0  0  0  0  0  0  0  0
   20.6054   19.2945   27.1347 H   0  0  0  0  0  0  0  0  0  0  0  0
   19.7065   17.5626   26.2637 C   0  0  0  0  0  0  0  0  0  0  0  0
   20.6125   16.9439   26.2592 H   0  0  0  0  0  0  0  0  0  0  0  0
   19.1513   17.3334   27.1814 H   0  0  0  0  0  0  0  0  0  0  0  0
   19.0831   17.2665   25.4116 H   0  0  0  0  0  0  0  0  0  0  0  0
   18.8365   19.9207   26.2403 N   0  3  0  0  0  0  0  0  0  0  0  0
   18.2556   19.7150   27.0582 H   0  0  0  0  0  0  0  0  0  0  0  0
   18.2608   19.7757   25.4085 H   0  0  0  0  0  0  0  0  0  0  0  0
   19.0779   20.9151   26.2794 H   0  0  0  0  0  0  0  0  0  0  0  0
  1  2  1  0  0  0  0
  1  3  1  0  0  0  0
  1  4  1  0  0  0  0
  1  5  1  0  0  0  0
  5  6  1  0  0  0  0
  5  7  1  0  0  0  0
  5  8  1  0  0  0  0
  8  9  1  0  0  0  0
  8 10  1  0  0  0  0
  8 11  1  0  0  0  0
 11 12  1  0  0  0  0
 11 13  1  0  0  0  0
 11 14  1  0  0  0  0
 14 15  1  0  0  0  0
 14 16  1  0  0  0  0
 14 17  1  0  0  0  0
 17 18  1  0  0  0  0
 17 19  1  0  0  0  0
 17 20  1  0  0  0  0
 20 21  1  0  0  0  0
 20 22  1  0  0  0  0
 22 23  1  0  0  0  0
 22 24  1  0  0  0  0
 22 25  1  0  0  0  0
 20 26  1  0  0  0  0
 26 27  1  0  0  0  0
 26 28  1  0  0  0  0
 26 29  1  0  0  0  0
M  END
> <VM2 Rank>
133

> <Conf_Id>
1023

> <Probability>
0.01

> <Sum Probability>
99.76

> <Delta G>
4.176

> <G>
37.878

> <E>
-0.108

> <-TS>
37.987

> <U+W>
-24.253

> <U>
28.089

> <W>
-52.342

> <W(PB)>
-54.818

> <W(SA)>
2.476

> <Valence>
5.754

> <Coulomb>
21.248

> <VdW>
1.087

> <VdW6>
-10.617

> <VdW12>
11.704

> <Bond>
0.344

> <Angle>
2.548

> <Pdih>
2.862

> <Idih>
0.000

> <Tether>
0.000

$$$$
VeraChem MOL file


 29 28  0  0  0  0  0  0  0  0999 V2000     
   18.1252   19.2764   20.4433 C   0  0  0  0  0  0  0  0  0  0  0  0
   17.6909   19.6634   21.3732 H   0  0  0  0  0  0  0  0  0  0  0  0
   17.5637   19.7173   19.6094 H   0  0  0  0  0  0  0  0  0  0  0  0
   17.9692   18.1901   20.4156 H   0  0  0  0  0  0  0  0  0  0  0  0
   19.6264   19.6254   20.3280 C   0  0  0  0  0  0  0  0  0  0  0  0
   19.7590   20.7143   20.3939 H   0  0  0  0  0  0  0  0  0  0  0  0
   19.9818   19.3324   19.3302 H   0  0  0  0  0  0  0  0  0  0  0  0
   20.5055   18.9254   21.3923 C   0  0  0  0  0  0  0  0  0  0  0  0
   20.3849   17.8364   21.3094 H   0  0  0  0  0  0  0  0  0  0  0  0
   21.5596   19.1378   21.1667 H   0  0  0  0  0  0  0  0  0  0  0  0
   20.1963   19.3760   22.8399 C   0  0  0  0  0  0  0  0  0  0  0  0
   19.1630   19.1063   23.0838 H   0  0  0  0  0  0  0  0  0  0  0  0
   20.2789   20.4695   22.9074 H   0  0  0  0  0  0  0  0  0  0  0  0
   21.1550   18.7173   23.8602 C   0  0  0  0  0  0  0  0  0  0  0  0
   21.0034   17.6296   23.8603 H   0  0  0  0  0  0  0  0  0  0  0  0
   22.1888   18.8724   23.5219 H   0  0  0  0  0  0  0  0  0  0  0  0
   21.0438   19.2715   25.3087 C   0  0  0  0  0  0  0  0  0  0  0  0
   21.3228   20.3333   25.3128 H   0  0  0  0  0  0  0  0  0  0  0  0
   21.8067   18.7683   25.9173 H   0  0  0  0  0  0  0  0  0  0  0  0
   19.6843   19.1063   26.0348 C   0  0  2  0  0  0  0  0  0  0  0  0
   19.8595   19.3410   27.0893 H   0  0  0  0  0  0  0  0  0  0  0  0
   19.1532   17.6638   25.9689 C   0  0  0  0  0  0  0  0  0  0  0  0
   18.8652   17.3842   24.9485 H   0  0  0  0  0  0  0  0  0  0  0  0
   19.9128   16.9539   26.3191 H   0  0  0  0  0  0  0  0  0  0  0  0
   18.2704   17.5499   26.6098 H   0  0  0  0  0  0  0  0  0  0  0  0
   18.6463   20.0940   25.5778 N   0  3  0  0  0  0  0  0  0  0  0  0
   17.7785   19.9978   26.1130 H   0  0  0  0  0  0  0  0  0  0  0  0
   18.4176   19.9619   24.5905 H   0  0  0  0  0  0  0  0  0  0  0  0
   18.9714   21.0582   25.6935 H   0  0  0  0  0  0  0  0  0  0  0  0
  1  2  1  0  0  0  0
  1  3  1  0  0  0  0
  1  4  1  0  0  0  0
  1  5  1  0  0  0  0
  5  6  1  0  0  0  0
  5  7  1  0  0  0  0
  5  8  1  0  0  0  0
  8  9  1  0  0  0  0
  8 10  1  0  0  0  0
  8 11  1  0  0  0  0
 11 12  1  0  0  0  0
 11 13  1  0  0  0  0
 11 14  1  0  0  0  0
 14 15  1  0  0  0  0
 14 16  1  0  0  0  0
 14 17  1  0  0  0  0
 17 18  1  0  0  0  0
 17 19  1  0  0  0  0
 17 20  1  0  0  0  0
 20 21  1  0  0  0  0
 20 22  1  0  0  0  0
 22 23  1  0  0  0  0
 22 24  1  0  0  0  0
 22 25  1  0  0  0  0
 20 26  1  0  0  0  0
 26 27  1  0  0  0  0
 26 28  1  0  0  0  0
 26 29  1  0  0  0  0
M  END
> <VM2 Rank>
134

> <Conf_Id>
1015

> <Probability>
0.01

> <Sum Probability>
99.77

> <Delta G>
4.208

> <G>
37.911

> <E>
-0.173

> <-TS>
38.083

> <U+W>
-24.317

> <U>
28.045

> <W>
-52.362

> <W(PB)>
-54.808

> <W(SA)>
2.446

> <Valence>
5.555

> <Coulomb>
21.509

> <VdW>
0.981

> <VdW6>
-10.796

> <VdW12>
11.777

> <Bond>
0.331

> <Angle>
2.400

> <Pdih>
2.824

> <Idih>
0.000

> <Tether>
0.000

$$$$
VeraChem MOL file


 29 28  0  0  0  0  0  0  0  0999 V2000     
   20.2261   21.0447   20.9130 C   0  0  0  0  0  0  0  0  0  0  0  0
   20.6933   20.7528   19.9634 H   0  0  0  0  0  0  0  0  0  0  0  0
   19.5856   21.9150   20.7198 H   0  0  0  0  0  0  0  0  0  0  0  0
   21.0204   21.3573   21.6032 H   0  0  0  0  0  0  0  0  0  0  0  0
   19.4019   19.8829   21.5060 C   0  0  0  0  0  0  0  0  0  0  0  0
   18.5958   19.6140   20.8092 H   0  0  0  0  0  0  0  0  0  0  0  0
   18.9189   20.2245   22.4293 H   0  0  0  0  0  0  0  0  0  0  0  0
   20.2839   18.6426   21.7824 C   0  0  0  0  0  0  0  0  0  0  0  0
   20.7577   18.3328   20.8407 H   0  0  0  0  0  0  0  0  0  0  0  0
   21.1102   18.9021   22.4558 H   0  0  0  0  0  0  0  0  0  0  0  0
   19.4956   17.4348   22.3478 C   0  0  0  0  0  0  0  0  0  0  0  0
   20.1811   16.5806   22.4357 H   0  0  0  0  0  0  0  0  0  0  0  0
   18.7393   17.1326   21.6104 H   0  0  0  0  0  0  0  0  0  0  0  0
   18.7933   17.6525   23.7156 C   0  0  0  0  0  0  0  0  0  0  0  0
   18.0067   18.4119   23.6285 H   0  0  0  0  0  0  0  0  0  0  0  0
   18.2658   16.7203   23.9604 H   0  0  0  0  0  0  0  0  0  0  0  0
   19.7533   17.9748   24.8932 C   0  0  0  0  0  0  0  0  0  0  0  0
   20.6793   17.3978   24.7688 H   0  0  0  0  0  0  0  0  0  0  0  0
   19.3007   17.6171   25.8276 H   0  0  0  0  0  0  0  0  0  0  0  0
   20.0876   19.4749   25.0590 C   0  0  2  0  0  0  0  0  0  0  0  0
   20.4365   19.8681   24.1014 H   0  0  0  0  0  0  0  0  0  0  0  0
   21.2118   19.6607   26.0900 C   0  0  0  0  0  0  0  0  0  0  0  0
   21.4727   20.7212   26.1934 H   0  0  0  0  0  0  0  0  0  0  0  0
   20.9126   19.2842   27.0762 H   0  0  0  0  0  0  0  0  0  0  0  0
   22.1173   19.1244   25.7798 H   0  0  0  0  0  0  0  0  0  0  0  0
   18.8824   20.2881   25.4469 N   0  3  0  0  0  0  0  0  0  0  0  0
   19.1116   21.2832   25.5241 H   0  0  0  0  0  0  0  0  0  0  0  0
   18.5092   19.9895   26.3520 H   0  0  0  0  0  0  0  0  0  0  0  0
   18.1306   20.1967   24.7590 H   0  0  0  0  0  0  0  0  0  0  0  0
  1  2  1  0  0  0  0
  1  3  1  0  0  0  0
  1  4  1  0  0  0  0
  1  5  1  0  0  0  0
  5  6  1  0  0  0  0
  5  7  1  0  0  0  0
  5  8  1  0  0  0  0
  8  9  1  0  0  0  0
  8 10  1  0  0  0  0
  8 11  1  0  0  0  0
 11 12  1  0  0  0  0
 11 13  1  0  0  0  0
 11 14  1  0  0  0  0
 14 15  1  0  0  0  0
 14 16  1  0  0  0  0
 14 17  1  0  0  0  0
 17 18  1  0  0  0  0
 17 19  1  0  0  0  0
 17 20  1  0  0  0  0
 20 21  1  0  0  0  0
 20 22  1  0  0  0  0
 22 23  1  0  0  0  0
 22 24  1  0  0  0  0
 22 25  1  0  0  0  0
 20 26  1  0  0  0  0
 26 27  1  0  0  0  0
 26 28  1  0  0  0  0
 26 29  1  0  0  0  0
M  END
> <VM2 Rank>
135

> <Conf_Id>
1665

> <Probability>
0.01

> <Sum Probability>
99.78

> <Delta G>
4.227

> <G>
37.929

> <E>
-0.490

> <-TS>
38.419

> <U+W>
-24.634

> <U>
28.071

> <W>
-52.705

> <W(PB)>
-55.097

> <W(SA)>
2.392

> <Valence>
6.292

> <Coulomb>
21.484

> <VdW>
0.295

> <VdW6>
-11.563

> <VdW12>
11.858

> <Bond>
0.313

> <Angle>
2.278

> <Pdih>
3.700

> <Idih>
0.000

> <Tether>
0.000

$$$$
VeraChem MOL file


 29 28  0  0  0  0  0  0  0  0999 V2000     
   19.2165   17.8339   20.8002 C   0  0  0  0  0  0  0  0  0  0  0  0
   19.7408   17.8023   19.8364 H   0  0  0  0  0  0  0  0  0  0  0  0
   19.8799   17.4087   21.5627 H   0  0  0  0  0  0  0  0  0  0  0  0
   18.3364   17.1823   20.7250 H   0  0  0  0  0  0  0  0  0  0  0  0
   18.7926   19.2783   21.1512 C   0  0  0  0  0  0  0  0  0  0  0  0
   18.2519   19.2964   22.1057 H   0  0  0  0  0  0  0  0  0  0  0  0
   18.0722   19.6238   20.3967 H   0  0  0  0  0  0  0  0  0  0  0  0
   19.9777   20.2738   21.1879 C   0  0  0  0  0  0  0  0  0  0  0  0
   20.4384   20.3042   20.1909 H   0  0  0  0  0  0  0  0  0  0  0  0
   19.5842   21.2844   21.3635 H   0  0  0  0  0  0  0  0  0  0  0  0
   21.0867   19.9785   22.2337 C   0  0  0  0  0  0  0  0  0  0  0  0
   21.8795   20.7240   22.0821 H   0  0  0  0  0  0  0  0  0  0  0  0
   21.5614   19.0089   22.0338 H   0  0  0  0  0  0  0  0  0  0  0  0
   20.6297   20.0698   23.7136 C   0  0  0  0  0  0  0  0  0  0  0  0
   21.4675   20.4613   24.3074 H   0  0  0  0  0  0  0  0  0  0  0  0
   19.8210   20.8066   23.8059 H   0  0  0  0  0  0  0  0  0  0  0  0
   20.2086   18.7071   24.3225 C   0  0  0  0  0  0  0  0  0  0  0  0
   21.0284   17.9900   24.1837 H   0  0  0  0  0  0  0  0  0  0  0  0
   19.3434   18.2956   23.7920 H   0  0  0  0  0  0  0  0  0  0  0  0
   19.8831   18.8001   25.8287 C   0  0  2  0  0  0  0  0  0  0  0  0
   20.7510   19.2258   26.3417 H   0  0  0  0  0  0  0  0  0  0  0  0
   19.6192   17.4004   26.4060 C   0  0  0  0  0  0  0  0  0  0  0  0
   19.4226   17.4557   27.4839 H   0  0  0  0  0  0  0  0  0  0  0  0
   18.7534   16.9289   25.9243 H   0  0  0  0  0  0  0  0  0  0  0  0
   20.4889   16.7479   26.2596 H   0  0  0  0  0  0  0  0  0  0  0  0
   18.7219   19.7140   26.1102 N   0  3  0  0  0  0  0  0  0  0  0  0
   18.9012   20.6616   25.7672 H   0  0  0  0  0  0  0  0  0  0  0  0
   18.5346   19.7818   27.1146 H   0  0  0  0  0  0  0  0  0  0  0  0
   17.8661   19.3789   25.6602 H   0  0  0  0  0  0  0  0  0  0  0  0
  1  2  1  0  0  0  0
  1  3  1  0  0  0  0
  1  4  1  0  0  0  0
  1  5  1  0  0  0  0
  5  6  1  0  0  0  0
  5  7  1  0  0  0  0
  5  8  1  0  0  0  0
  8  9  1  0  0  0  0
  8 10  1  0  0  0  0
  8 11  1  0  0  0  0
 11 12  1  0  0  0  0
 11 13  1  0  0  0  0
 11 14  1  0  0  0  0
 14 15  1  0  0  0  0
 14 16  1  0  0  0  0
 14 17  1  0  0  0  0
 17 18  1  0  0  0  0
 17 19  1  0  0  0  0
 17 20  1  0  0  0  0
 20 21  1  0  0  0  0
 20 22  1  0  0  0  0
 22 23  1  0  0  0  0
 22 24  1  0  0  0  0
 22 25  1  0  0  0  0
 20 26  1  0  0  0  0
 26 27  1  0  0  0  0
 26 28  1  0  0  0  0
 26 29  1  0  0  0  0
M  END
> <VM2 Rank>
136

> <Conf_Id>
1288

> <Probability>
0.01

> <Sum Probability>
99.79

> <Delta G>
4.227

> <G>
37.929

> <E>
-0.274

> <-TS>
38.204

> <U+W>
-24.419

> <U>
28.182

> <W>
-52.601

> <W(PB)>
-55.016

> <W(SA)>
2.416

> <Valence>
6.746

> <Coulomb>
20.582

> <VdW>
0.854

> <VdW6>
-10.781

> <VdW12>
11.635

> <Bond>
0.324

> <Angle>
2.262

> <Pdih>
4.160

> <Idih>
0.000

> <Tether>
0.000

$$$$
VeraChem MOL file


 29 28  0  0  0  0  0  0  0  0999 V2000     
   19.3790   20.7002   20.0007 C   0  0  0  0  0  0  0  0  0  0  0  0
   19.6734   21.7571   20.0392 H   0  0  0  0  0  0  0  0  0  0  0  0
   19.8028   20.2657   19.0859 H   0  0  0  0  0  0  0  0  0  0  0  0
   18.2847   20.6575   19.9246 H   0  0  0  0  0  0  0  0  0  0  0  0
   19.8771   19.9501   21.2541 C   0  0  0  0  0  0  0  0  0  0  0  0
   19.4619   20.4373   22.1459 H   0  0  0  0  0  0  0  0  0  0  0  0
   20.9710   20.0328   21.3175 H   0  0  0  0  0  0  0  0  0  0  0  0
   19.4654   18.4605   21.2280 C   0  0  0  0  0  0  0  0  0  0  0  0
   18.3694   18.3848   21.2425 H   0  0  0  0  0  0  0  0  0  0  0  0
   19.7891   18.0179   20.2758 H   0  0  0  0  0  0  0  0  0  0  0  0
   20.0553   17.6117   22.3838 C   0  0  0  0  0  0  0  0  0  0  0  0
   21.1518   17.5927   22.3175 H   0  0  0  0  0  0  0  0  0  0  0  0
   19.7321   16.5730   22.2284 H   0  0  0  0  0  0  0  0  0  0  0  0
   19.6078   18.0499   23.8027 C   0  0  0  0  0  0  0  0  0  0  0  0
   18.6202   18.5262   23.7489 H   0  0  0  0  0  0  0  0  0  0  0  0
   19.4774   17.1455   24.4114 H   0  0  0  0  0  0  0  0  0  0  0  0
   20.6357   18.9773   24.5082 C   0  0  0  0  0  0  0  0  0  0  0  0
   20.8761   19.8320   23.8664 H   0  0  0  0  0  0  0  0  0  0  0  0
   21.5794   18.4315   24.6389 H   0  0  0  0  0  0  0  0  0  0  0  0
   20.1837   19.5186   25.8849 C   0  0  2  0  0  0  0  0  0  0  0  0
   20.9878   20.1573   26.2633 H   0  0  0  0  0  0  0  0  0  0  0  0
   19.9649   18.3907   26.9083 C   0  0  0  0  0  0  0  0  0  0  0  0
   19.1056   17.7634   26.6428 H   0  0  0  0  0  0  0  0  0  0  0  0
   20.8520   17.7489   26.9766 H   0  0  0  0  0  0  0  0  0  0  0  0
   19.7791   18.8085   27.9053 H   0  0  0  0  0  0  0  0  0  0  0  0
   18.9671   20.3970   25.7834 N   0  3  0  0  0  0  0  0  0  0  0  0
   18.1581   19.8720   25.4423 H   0  0  0  0  0  0  0  0  0  0  0  0
   19.1215   21.1798   25.1416 H   0  0  0  0  0  0  0  0  0  0  0  0
   18.7153   20.7925   26.6938 H   0  0  0  0  0  0  0  0  0  0  0  0
  1  2  1  0  0  0  0
  1  3  1  0  0  0  0
  1  4  1  0  0  0  0
  1  5  1  0  0  0  0
  5  6  1  0  0  0  0
  5  7  1  0  0  0  0
  5  8  1  0  0  0  0
  8  9  1  0  0  0  0
  8 10  1  0  0  0  0
  8 11  1  0  0  0  0
 11 12  1  0  0  0  0
 11 13  1  0  0  0  0
 11 14  1  0  0  0  0
 14 15  1  0  0  0  0
 14 16  1  0  0  0  0
 14 17  1  0  0  0  0
 17 18  1  0  0  0  0
 17 19  1  0  0  0  0
 17 20  1  0  0  0  0
 20 21  1  0  0  0  0
 20 22  1  0  0  0  0
 22 23  1  0  0  0  0
 22 24  1  0  0  0  0
 22 25  1  0  0  0  0
 20 26  1  0  0  0  0
 26 27  1  0  0  0  0
 26 28  1  0  0  0  0
 26 29  1  0  0  0  0
M  END
> <VM2 Rank>
137

> <Conf_Id>
1361

> <Probability>
0.01

> <Sum Probability>
99.80

> <Delta G>
4.233

> <G>
37.935

> <E>
-0.009

> <-TS>
37.945

> <U+W>
-24.154

> <U>
28.636

> <W>
-52.790

> <W(PB)>
-55.216

> <W(SA)>
2.426

> <Valence>
6.737

> <Coulomb>
20.766

> <VdW>
1.133

> <VdW6>
-10.382

> <VdW12>
11.515

> <Bond>
0.321

> <Angle>
1.947

> <Pdih>
4.469

> <Idih>
0.000

> <Tether>
0.000

$$$$
VeraChem MOL file


 29 28  0  0  0  0  0  0  0  0999 V2000     
   19.0183   20.3444   19.9263 C   0  0  0  0  0  0  0  0  0  0  0  0
   19.8733   20.9190   19.5467 H   0  0  0  0  0  0  0  0  0  0  0  0
   18.8148   19.5278   19.2213 H   0  0  0  0  0  0  0  0  0  0  0  0
   18.1441   21.0083   19.9350 H   0  0  0  0  0  0  0  0  0  0  0  0
   19.3009   19.7972   21.3415 C   0  0  0  0  0  0  0  0  0  0  0  0
   18.4083   19.2659   21.6946 H   0  0  0  0  0  0  0  0  0  0  0  0
   19.4776   20.6359   22.0290 H   0  0  0  0  0  0  0  0  0  0  0  0
   20.5159   18.8425   21.3513 C   0  0  0  0  0  0  0  0  0  0  0  0
   20.2716   17.9354   20.7816 H   0  0  0  0  0  0  0  0  0  0  0  0
   21.3475   19.3221   20.8168 H   0  0  0  0  0  0  0  0  0  0  0  0
   21.0198   18.4483   22.7638 C   0  0  0  0  0  0  0  0  0  0  0  0
   21.3722   19.3395   23.2973 H   0  0  0  0  0  0  0  0  0  0  0  0
   21.9139   17.8252   22.6242 H   0  0  0  0  0  0  0  0  0  0  0  0
   20.0127   17.6389   23.6272 C   0  0  0  0  0  0  0  0  0  0  0  0
   19.4150   16.9862   22.9764 H   0  0  0  0  0  0  0  0  0  0  0  0
   20.5805   16.9549   24.2718 H   0  0  0  0  0  0  0  0  0  0  0  0
   19.0630   18.4816   24.5248 C   0  0  0  0  0  0  0  0  0  0  0  0
   18.4359   17.7940   25.1077 H   0  0  0  0  0  0  0  0  0  0  0  0
   18.3693   19.0483   23.8958 H   0  0  0  0  0  0  0  0  0  0  0  0
   19.7609   19.4647   25.4949 C   0  0  2  0  0  0  0  0  0  0  0  0
   20.3596   20.1663   24.9072 H   0  0  0  0  0  0  0  0  0  0  0  0
   20.6910   18.7420   26.4853 C   0  0  0  0  0  0  0  0  0  0  0  0
   20.1457   17.9830   27.0600 H   0  0  0  0  0  0  0  0  0  0  0  0
   21.5203   18.2495   25.9642 H   0  0  0  0  0  0  0  0  0  0  0  0
   21.1306   19.4550   27.1936 H   0  0  0  0  0  0  0  0  0  0  0  0
   18.7535   20.2964   26.2390 N   0  3  0  0  0  0  0  0  0  0  0  0
   18.1502   20.8209   25.5990 H   0  0  0  0  0  0  0  0  0  0  0  0
   19.2107   20.9764   26.8532 H   0  0  0  0  0  0  0  0  0  0  0  0
   18.1486   19.7146   26.8250 H   0  0  0  0  0  0  0  0  0  0  0  0
  1  2  1  0  0  0  0
  1  3  1  0  0  0  0
  1  4  1  0  0  0  0
  1  5  1  0  0  0  0
  5  6  1  0  0  0  0
  5  7  1  0  0  0  0
  5  8  1  0  0  0  0
  8  9  1  0  0  0  0
  8 10  1  0  0  0  0
  8 11  1  0  0  0  0
 11 12  1  0  0  0  0
 11 13  1  0  0  0  0
 11 14  1  0  0  0  0
 14 15  1  0  0  0  0
 14 16  1  0  0  0  0
 14 17  1  0  0  0  0
 17 18  1  0  0  0  0
 17 19  1  0  0  0  0
 17 20  1  0  0  0  0
 20 21  1  0  0  0  0
 20 22  1  0  0  0  0
 22 23  1  0  0  0  0
 22 24  1  0  0  0  0
 22 25  1  0  0  0  0
 20 26  1  0  0  0  0
 26 27  1  0  0  0  0
 26 28  1  0  0  0  0
 26 29  1  0  0  0  0
M  END
> <VM2 Rank>
138

> <Conf_Id>
200

> <Probability>
0.01

> <Sum Probability>
99.81

> <Delta G>
4.243

> <G>
37.946

> <E>
0.346

> <-TS>
37.600

> <U+W>
-23.799

> <U>
29.050

> <W>
-52.849

> <W(PB)>
-55.267

> <W(SA)>
2.418

> <Valence>
7.198

> <Coulomb>
20.800

> <VdW>
1.053

> <VdW6>
-10.793

> <VdW12>
11.845

> <Bond>
0.359

> <Angle>
2.715

> <Pdih>
4.125

> <Idih>
0.000

> <Tether>
0.000

$$$$
VeraChem MOL file


 29 28  0  0  0  0  0  0  0  0999 V2000     
   18.6688   19.2220   20.1140 C   0  0  0  0  0  0  0  0  0  0  0  0
   18.0970   19.6478   20.9478 H   0  0  0  0  0  0  0  0  0  0  0  0
   18.2104   19.5823   19.1840 H   0  0  0  0  0  0  0  0  0  0  0  0
   18.5640   18.1297   20.1391 H   0  0  0  0  0  0  0  0  0  0  0  0
   20.1537   19.6406   20.1810 C   0  0  0  0  0  0  0  0  0  0  0  0
   20.2219   20.7371   20.2102 H   0  0  0  0  0  0  0  0  0  0  0  0
   20.6497   19.3296   19.2510 H   0  0  0  0  0  0  0  0  0  0  0  0
   20.9328   19.0400   21.3788 C   0  0  0  0  0  0  0  0  0  0  0  0
   20.9558   17.9442   21.3035 H   0  0  0  0  0  0  0  0  0  0  0  0
   21.9786   19.3648   21.2886 H   0  0  0  0  0  0  0  0  0  0  0  0
   20.4106   19.4736   22.7732 C   0  0  0  0  0  0  0  0  0  0  0  0
   19.9396   20.4639   22.7069 H   0  0  0  0  0  0  0  0  0  0  0  0
   21.2755   19.5910   23.4397 H   0  0  0  0  0  0  0  0  0  0  0  0
   19.4331   18.4508   23.4071 C   0  0  0  0  0  0  0  0  0  0  0  0
   18.6116   18.2378   22.7130 H   0  0  0  0  0  0  0  0  0  0  0  0
   19.9479   17.4929   23.5581 H   0  0  0  0  0  0  0  0  0  0  0  0
   18.8224   18.9413   24.7452 C   0  0  0  0  0  0  0  0  0  0  0  0
   18.1357   18.1742   25.1271 H   0  0  0  0  0  0  0  0  0  0  0  0
   18.2060   19.8263   24.5396 H   0  0  0  0  0  0  0  0  0  0  0  0
   19.8508   19.2983   25.8443 C   0  0  2  0  0  0  0  0  0  0  0  0
   20.5267   20.0627   25.4499 H   0  0  0  0  0  0  0  0  0  0  0  0
   20.6885   18.0795   26.2702 C   0  0  0  0  0  0  0  0  0  0  0  0
   21.3768   18.3479   27.0811 H   0  0  0  0  0  0  0  0  0  0  0  0
   20.0480   17.2620   26.6237 H   0  0  0  0  0  0  0  0  0  0  0  0
   21.2968   17.7048   25.4388 H   0  0  0  0  0  0  0  0  0  0  0  0
   19.1753   19.9098   27.0400 N   0  3  0  0  0  0  0  0  0  0  0  0
   19.8557   20.1839   27.7545 H   0  0  0  0  0  0  0  0  0  0  0  0
   18.5219   19.2538   27.4764 H   0  0  0  0  0  0  0  0  0  0  0  0
   18.6456   20.7487   26.7859 H   0  0  0  0  0  0  0  0  0  0  0  0
  1  2  1  0  0  0  0
  1  3  1  0  0  0  0
  1  4  1  0  0  0  0
  1  5  1  0  0  0  0
  5  6  1  0  0  0  0
  5  7  1  0  0  0  0
  5  8  1  0  0  0  0
  8  9  1  0  0  0  0
  8 10  1  0  0  0  0
  8 11  1  0  0  0  0
 11 12  1  0  0  0  0
 11 13  1  0  0  0  0
 11 14  1  0  0  0  0
 14 15  1  0  0  0  0
 14 16  1  0  0  0  0
 14 17  1  0  0  0  0
 17 18  1  0  0  0  0
 17 19  1  0  0  0  0
 17 20  1  0  0  0  0
 20 21  1  0  0  0  0
 20 22  1  0  0  0  0
 22 23  1  0  0  0  0
 22 24  1  0  0  0  0
 22 25  1  0  0  0  0
 20 26  1  0  0  0  0
 26 27  1  0  0  0  0
 26 28  1  0  0  0  0
 26 29  1  0  0  0  0
M  END
> <VM2 Rank>
139

> <Conf_Id>
1330

> <Probability>
0.01

> <Sum Probability>
99.82

> <Delta G>
4.257

> <G>
37.959

> <E>
-0.102

> <-TS>
38.061

> <U+W>
-24.247

> <U>
28.141

> <W>
-52.387

> <W(PB)>
-54.809

> <W(SA)>
2.422

> <Valence>
6.970

> <Coulomb>
20.046

> <VdW>
1.125

> <VdW6>
-10.615

> <VdW12>
11.740

> <Bond>
0.316

> <Angle>
2.134

> <Pdih>
4.520

> <Idih>
0.000

> <Tether>
0.000

$$$$
VeraChem MOL file


 29 28  0  0  0  0  0  0  0  0999 V2000     
   19.6822   18.4717   19.7593 C   0  0  0  0  0  0  0  0  0  0  0  0
   20.3091   18.2343   18.8901 H   0  0  0  0  0  0  0  0  0  0  0  0
   19.7981   17.6554   20.4831 H   0  0  0  0  0  0  0  0  0  0  0  0
   18.6368   18.4899   19.4251 H   0  0  0  0  0  0  0  0  0  0  0  0
   20.0939   19.8309   20.3686 C   0  0  0  0  0  0  0  0  0  0  0  0
   20.0750   20.5930   19.5771 H   0  0  0  0  0  0  0  0  0  0  0  0
   21.1355   19.7827   20.7133 H   0  0  0  0  0  0  0  0  0  0  0  0
   19.1680   20.2954   21.5216 C   0  0  0  0  0  0  0  0  0  0  0  0
   19.5081   21.2790   21.8734 H   0  0  0  0  0  0  0  0  0  0  0  0
   18.1568   20.4528   21.1217 H   0  0  0  0  0  0  0  0  0  0  0  0
   19.0785   19.3306   22.7322 C   0  0  0  0  0  0  0  0  0  0  0  0
   18.6392   18.3757   22.4144 H   0  0  0  0  0  0  0  0  0  0  0  0
   18.3700   19.7570   23.4507 H   0  0  0  0  0  0  0  0  0  0  0  0
   20.4458   19.0711   23.4161 C   0  0  0  0  0  0  0  0  0  0  0  0
   21.0974   18.5514   22.7013 H   0  0  0  0  0  0  0  0  0  0  0  0
   20.9456   20.0215   23.6488 H   0  0  0  0  0  0  0  0  0  0  0  0
   20.3488   18.1959   24.6934 C   0  0  0  0  0  0  0  0  0  0  0  0
   21.2816   17.6223   24.7777 H   0  0  0  0  0  0  0  0  0  0  0  0
   19.5472   17.4530   24.5871 H   0  0  0  0  0  0  0  0  0  0  0  0
   20.1717   18.9986   26.0035 C   0  0  2  0  0  0  0  0  0  0  0  0
   20.9968   19.7136   26.0772 H   0  0  0  0  0  0  0  0  0  0  0  0
   20.2431   18.0577   27.2169 C   0  0  0  0  0  0  0  0  0  0  0  0
   20.1615   18.6239   28.1529 H   0  0  0  0  0  0  0  0  0  0  0  0
   19.4332   17.3177   27.1933 H   0  0  0  0  0  0  0  0  0  0  0  0
   21.1983   17.5183   27.2371 H   0  0  0  0  0  0  0  0  0  0  0  0
   18.9041   19.8041   26.0426 N   0  3  0  0  0  0  0  0  0  0  0  0
   18.8280   20.3401   26.9118 H   0  0  0  0  0  0  0  0  0  0  0  0
   18.0788   19.2023   25.9780 H   0  0  0  0  0  0  0  0  0  0  0  0
   18.8672   20.4695   25.2656 H   0  0  0  0  0  0  0  0  0  0  0  0
  1  2  1  0  0  0  0
  1  3  1  0  0  0  0
  1  4  1  0  0  0  0
  1  5  1  0  0  0  0
  5  6  1  0  0  0  0
  5  7  1  0  0  0  0
  5  8  1  0  0  0  0
  8  9  1  0  0  0  0
  8 10  1  0  0  0  0
  8 11  1  0  0  0  0
 11 12  1  0  0  0  0
 11 13  1  0  0  0  0
 11 14  1  0  0  0  0
 14 15  1  0  0  0  0
 14 16  1  0  0  0  0
 14 17  1  0  0  0  0
 17 18  1  0  0  0  0
 17 19  1  0  0  0  0
 17 20  1  0  0  0  0
 20 21  1  0  0  0  0
 20 22  1  0  0  0  0
 22 23  1  0  0  0  0
 22 24  1  0  0  0  0
 22 25  1  0  0  0  0
 20 26  1  0  0  0  0
 26 27  1  0  0  0  0
 26 28  1  0  0  0  0
 26 29  1  0  0  0  0
M  END
> <VM2 Rank>
140

> <Conf_Id>
1042

> <Probability>
0.01

> <Sum Probability>
99.82

> <Delta G>
4.271

> <G>
37.974

> <E>
0.148

> <-TS>
37.826

> <U+W>
-23.997

> <U>
28.159

> <W>
-52.156

> <W(PB)>
-54.606

> <W(SA)>
2.450

> <Valence>
6.261

> <Coulomb>
20.687

> <VdW>
1.211

> <VdW6>
-10.379

> <VdW12>
11.589

> <Bond>
0.336

> <Angle>
1.994

> <Pdih>
3.931

> <Idih>
0.000

> <Tether>
0.000

$$$$
VeraChem MOL file


 29 28  0  0  0  0  0  0  0  0999 V2000     
   18.6518   20.3791   20.8247 C   0  0  0  0  0  0  0  0  0  0  0  0
   17.9138   20.1247   21.5964 H   0  0  0  0  0  0  0  0  0  0  0  0
   19.3773   21.0826   21.2509 H   0  0  0  0  0  0  0  0  0  0  0  0
   18.1258   20.9021   20.0156 H   0  0  0  0  0  0  0  0  0  0  0  0
   19.3510   19.1133   20.2832 C   0  0  0  0  0  0  0  0  0  0  0  0
   20.1347   19.4059   19.5706 H   0  0  0  0  0  0  0  0  0  0  0  0
   18.6206   18.5274   19.7081 H   0  0  0  0  0  0  0  0  0  0  0  0
   19.9575   18.2006   21.3793 C   0  0  0  0  0  0  0  0  0  0  0  0
   19.1600   17.8220   22.0301 H   0  0  0  0  0  0  0  0  0  0  0  0
   20.3706   17.3151   20.8769 H   0  0  0  0  0  0  0  0  0  0  0  0
   21.0953   18.8530   22.2115 C   0  0  0  0  0  0  0  0  0  0  0  0
   21.6254   19.5875   21.5897 H   0  0  0  0  0  0  0  0  0  0  0  0
   21.8410   18.0837   22.4549 H   0  0  0  0  0  0  0  0  0  0  0  0
   20.6419   19.5262   23.5334 C   0  0  0  0  0  0  0  0  0  0  0  0
   21.4877   20.1024   23.9337 H   0  0  0  0  0  0  0  0  0  0  0  0
   19.8452   20.2509   23.3337 H   0  0  0  0  0  0  0  0  0  0  0  0
   20.1804   18.5116   24.6114 C   0  0  0  0  0  0  0  0  0  0  0  0
   20.9647   17.7548   24.7456 H   0  0  0  0  0  0  0  0  0  0  0  0
   19.2835   17.9771   24.2755 H   0  0  0  0  0  0  0  0  0  0  0  0
   19.8942   19.1769   25.9749 C   0  0  2  0  0  0  0  0  0  0  0  0
   20.7915   19.7201   26.2867 H   0  0  0  0  0  0  0  0  0  0  0  0
   19.5829   18.1095   27.0361 C   0  0  0  0  0  0  0  0  0  0  0  0
   19.4144   18.5735   28.0157 H   0  0  0  0  0  0  0  0  0  0  0  0
   18.6861   17.5355   26.7708 H   0  0  0  0  0  0  0  0  0  0  0  0
   20.4196   17.4074   27.1400 H   0  0  0  0  0  0  0  0  0  0  0  0
   18.7810   20.1858   25.8995 N   0  3  0  0  0  0  0  0  0  0  0  0
   18.6186   20.6318   26.8070 H   0  0  0  0  0  0  0  0  0  0  0  0
   17.9015   19.7494   25.6103 H   0  0  0  0  0  0  0  0  0  0  0  0
   18.9942   20.9274   25.2271 H   0  0  0  0  0  0  0  0  0  0  0  0
  1  2  1  0  0  0  0
  1  3  1  0  0  0  0
  1  4  1  0  0  0  0
  1  5  1  0  0  0  0
  5  6  1  0  0  0  0
  5  7  1  0  0  0  0
  5  8  1  0  0  0  0
  8  9  1  0  0  0  0
  8 10  1  0  0  0  0
  8 11  1  0  0  0  0
 11 12  1  0  0  0  0
 11 13  1  0  0  0  0
 11 14  1  0  0  0  0
 14 15  1  0  0  0  0
 14 16  1  0  0  0  0
 14 17  1  0  0  0  0
 17 18  1  0  0  0  0
 17 19  1  0  0  0  0
 17 20  1  0  0  0  0
 20 21  1  0  0  0  0
 20 22  1  0  0  0  0
 22 23  1  0  0  0  0
 22 24  1  0  0  0  0
 22 25  1  0  0  0  0
 20 26  1  0  0  0  0
 26 27  1  0  0  0  0
 26 28  1  0  0  0  0
 26 29  1  0  0  0  0
M  END
> <VM2 Rank>
141

> <Conf_Id>
1201

> <Probability>
0.01

> <Sum Probability>
99.83

> <Delta G>
4.274

> <G>
37.976

> <E>
0.244

> <-TS>
37.732

> <U+W>
-23.900

> <U>
28.594

> <W>
-52.495

> <W(PB)>
-54.943

> <W(SA)>
2.449

> <Valence>
6.844

> <Coulomb>
20.557

> <VdW>
1.194

> <VdW6>
-10.197

> <VdW12>
11.392

> <Bond>
0.333

> <Angle>
1.970

> <Pdih>
4.541

> <Idih>
0.000

> <Tether>
0.000

$$$$
VeraChem MOL file


 29 28  0  0  0  0  0  0  0  0999 V2000     
   19.8083   19.5877   19.5750 C   0  0  0  0  0  0  0  0  0  0  0  0
   19.7320   18.4935   19.5563 H   0  0  0  0  0  0  0  0  0  0  0  0
   18.8002   20.0057   19.4567 H   0  0  0  0  0  0  0  0  0  0  0  0
   20.4018   19.8911   18.7029 H   0  0  0  0  0  0  0  0  0  0  0  0
   20.4687   20.0896   20.8791 C   0  0  0  0  0  0  0  0  0  0  0  0
   20.6396   21.1719   20.7938 H   0  0  0  0  0  0  0  0  0  0  0  0
   21.4606   19.6301   20.9918 H   0  0  0  0  0  0  0  0  0  0  0  0
   19.6204   19.8204   22.1454 C   0  0  0  0  0  0  0  0  0  0  0  0
   20.1057   20.3248   22.9874 H   0  0  0  0  0  0  0  0  0  0  0  0
   18.6349   20.2922   22.0296 H   0  0  0  0  0  0  0  0  0  0  0  0
   19.4422   18.3119   22.4563 C   0  0  0  0  0  0  0  0  0  0  0  0
   20.4204   17.8142   22.5045 H   0  0  0  0  0  0  0  0  0  0  0  0
   18.9061   17.8465   21.6190 H   0  0  0  0  0  0  0  0  0  0  0  0
   18.6346   18.0246   23.7492 C   0  0  0  0  0  0  0  0  0  0  0  0
   17.8466   18.7771   23.8853 H   0  0  0  0  0  0  0  0  0  0  0  0
   18.1046   17.0724   23.6081 H   0  0  0  0  0  0  0  0  0  0  0  0
   19.4941   17.8830   25.0346 C   0  0  0  0  0  0  0  0  0  0  0  0
   20.2228   17.0755   24.8831 H   0  0  0  0  0  0  0  0  0  0  0  0
   18.8453   17.5538   25.8572 H   0  0  0  0  0  0  0  0  0  0  0  0
   20.2431   19.1603   25.4699 C   0  0  2  0  0  0  0  0  0  0  0  0
   20.9000   19.4704   24.6528 H   0  0  0  0  0  0  0  0  0  0  0  0
   21.1187   18.8739   26.6999 C   0  0  0  0  0  0  0  0  0  0  0  0
   21.6825   19.7685   26.9918 H   0  0  0  0  0  0  0  0  0  0  0  0
   20.5099   18.5589   27.5567 H   0  0  0  0  0  0  0  0  0  0  0  0
   21.8438   18.0790   26.4853 H   0  0  0  0  0  0  0  0  0  0  0  0
   19.3060   20.3046   25.7447 N   0  3  0  0  0  0  0  0  0  0  0  0
   19.8166   21.1547   26.0001 H   0  0  0  0  0  0  0  0  0  0  0  0
   18.6696   20.0858   26.5159 H   0  0  0  0  0  0  0  0  0  0  0  0
   18.7337   20.5201   24.9240 H   0  0  0  0  0  0  0  0  0  0  0  0
  1  2  1  0  0  0  0
  1  3  1  0  0  0  0
  1  4  1  0  0  0  0
  1  5  1  0  0  0  0
  5  6  1  0  0  0  0
  5  7  1  0  0  0  0
  5  8  1  0  0  0  0
  8  9  1  0  0  0  0
  8 10  1  0  0  0  0
  8 11  1  0  0  0  0
 11 12  1  0  0  0  0
 11 13  1  0  0  0  0
 11 14  1  0  0  0  0
 14 15  1  0  0  0  0
 14 16  1  0  0  0  0
 14 17  1  0  0  0  0
 17 18  1  0  0  0  0
 17 19  1  0  0  0  0
 17 20  1  0  0  0  0
 20 21  1  0  0  0  0
 20 22  1  0  0  0  0
 22 23  1  0  0  0  0
 22 24  1  0  0  0  0
 22 25  1  0  0  0  0
 20 26  1  0  0  0  0
 26 27  1  0  0  0  0
 26 28  1  0  0  0  0
 26 29  1  0  0  0  0
M  END
> <VM2 Rank>
142

> <Conf_Id>
1523

> <Probability>
0.01

> <Sum Probability>
99.84

> <Delta G>
4.323

> <G>
38.025

> <E>
0.064

> <-TS>
37.961

> <U+W>
-24.081

> <U>
28.340

> <W>
-52.421

> <W(PB)>
-54.864

> <W(SA)>
2.443

> <Valence>
6.427

> <Coulomb>
21.045

> <VdW>
0.869

> <VdW6>
-10.613

> <VdW12>
11.481

> <Bond>
0.315

> <Angle>
2.103

> <Pdih>
4.010

> <Idih>
0.000

> <Tether>
0.000

$$$$
VeraChem MOL file


 29 28  0  0  0  0  0  0  0  0999 V2000     
   18.3011   18.3453   21.3907 C   0  0  0  0  0  0  0  0  0  0  0  0
   18.5630   17.9478   22.3764 H   0  0  0  0  0  0  0  0  0  0  0  0
   17.5449   19.1289   21.5285 H   0  0  0  0  0  0  0  0  0  0  0  0
   17.8357   17.5304   20.8214 H   0  0  0  0  0  0  0  0  0  0  0  0
   19.5348   18.8925   20.6359 C   0  0  0  0  0  0  0  0  0  0  0  0
   19.2071   19.1892   19.6297 H   0  0  0  0  0  0  0  0  0  0  0  0
   20.2759   18.0948   20.4884 H   0  0  0  0  0  0  0  0  0  0  0  0
   20.1934   20.1211   21.3157 C   0  0  0  0  0  0  0  0  0  0  0  0
   20.5990   20.7637   20.5221 H   0  0  0  0  0  0  0  0  0  0  0  0
   19.4354   20.7330   21.8219 H   0  0  0  0  0  0  0  0  0  0  0  0
   21.3671   19.7888   22.2766 C   0  0  0  0  0  0  0  0  0  0  0  0
   21.8316   20.7309   22.5990 H   0  0  0  0  0  0  0  0  0  0  0  0
   22.1442   19.2530   21.7142 H   0  0  0  0  0  0  0  0  0  0  0  0
   21.0042   18.9608   23.5339 C   0  0  0  0  0  0  0  0  0  0  0  0
   20.6381   17.9745   23.2268 H   0  0  0  0  0  0  0  0  0  0  0  0
   21.9261   18.7746   24.1020 H   0  0  0  0  0  0  0  0  0  0  0  0
   19.9830   19.6696   24.4609 C   0  0  0  0  0  0  0  0  0  0  0  0
   19.0245   19.7994   23.9436 H   0  0  0  0  0  0  0  0  0  0  0  0
   20.3562   20.6785   24.6807 H   0  0  0  0  0  0  0  0  0  0  0  0
   19.7458   18.9316   25.7977 C   0  0  2  0  0  0  0  0  0  0  0  0
   20.7166   18.7633   26.2740 H   0  0  0  0  0  0  0  0  0  0  0  0
   19.0596   17.5691   25.5923 C   0  0  0  0  0  0  0  0  0  0  0  0
   19.6915   16.8870   25.0121 H   0  0  0  0  0  0  0  0  0  0  0  0
   18.8632   17.0866   26.5577 H   0  0  0  0  0  0  0  0  0  0  0  0
   18.1025   17.6818   25.0680 H   0  0  0  0  0  0  0  0  0  0  0  0
   18.9470   19.7771   26.7502 N   0  3  0  0  0  0  0  0  0  0  0  0
   18.0153   19.9807   26.3787 H   0  0  0  0  0  0  0  0  0  0  0  0
   19.4073   20.6729   26.9359 H   0  0  0  0  0  0  0  0  0  0  0  0
   18.8209   19.3072   27.6513 H   0  0  0  0  0  0  0  0  0  0  0  0
  1  2  1  0  0  0  0
  1  3  1  0  0  0  0
  1  4  1  0  0  0  0
  1  5  1  0  0  0  0
  5  6  1  0  0  0  0
  5  7  1  0  0  0  0
  5  8  1  0  0  0  0
  8  9  1  0  0  0  0
  8 10  1  0  0  0  0
  8 11  1  0  0  0  0
 11 12  1  0  0  0  0
 11 13  1  0  0  0  0
 11 14  1  0  0  0  0
 14 15  1  0  0  0  0
 14 16  1  0  0  0  0
 14 17  1  0  0  0  0
 17 18  1  0  0  0  0
 17 19  1  0  0  0  0
 17 20  1  0  0  0  0
 20 21  1  0  0  0  0
 20 22  1  0  0  0  0
 22 23  1  0  0  0  0
 22 24  1  0  0  0  0
 22 25  1  0  0  0  0
 20 26  1  0  0  0  0
 26 27  1  0  0  0  0
 26 28  1  0  0  0  0
 26 29  1  0  0  0  0
M  END
> <VM2 Rank>
143

> <Conf_Id>
324

> <Probability>
0.01

> <Sum Probability>
99.85

> <Delta G>
4.335

> <G>
38.038

> <E>
-0.301

> <-TS>
38.339

> <U+W>
-24.446

> <U>
28.291

> <W>
-52.737

> <W(PB)>
-55.104

> <W(SA)>
2.367

> <Valence>
7.253

> <Coulomb>
20.286

> <VdW>
0.753

> <VdW6>
-11.320

> <VdW12>
12.073

> <Bond>
0.335

> <Angle>
2.556

> <Pdih>
4.362

> <Idih>
0.000

> <Tether>
0.000

$$$$
VeraChem MOL file


 29 28  0  0  0  0  0  0  0  0999 V2000     
   20.3069   19.7519   19.6629 C   0  0  0  0  0  0  0  0  0  0  0  0
   21.3176   20.0939   19.9209 H   0  0  0  0  0  0  0  0  0  0  0  0
   20.3396   18.6664   19.5099 H   0  0  0  0  0  0  0  0  0  0  0  0
   20.0325   20.2107   18.7041 H   0  0  0  0  0  0  0  0  0  0  0  0
   19.2905   20.1443   20.7594 C   0  0  0  0  0  0  0  0  0  0  0  0
   18.2941   19.7625   20.4963 H   0  0  0  0  0  0  0  0  0  0  0  0
   19.2038   21.2396   20.7810 H   0  0  0  0  0  0  0  0  0  0  0  0
   19.6848   19.6523   22.1731 C   0  0  0  0  0  0  0  0  0  0  0  0
   20.6920   20.0145   22.4206 H   0  0  0  0  0  0  0  0  0  0  0  0
   18.9947   20.1144   22.8898 H   0  0  0  0  0  0  0  0  0  0  0  0
   19.6225   18.1127   22.3308 C   0  0  0  0  0  0  0  0  0  0  0  0
   20.2189   17.6389   21.5411 H   0  0  0  0  0  0  0  0  0  0  0  0
   18.5890   17.7732   22.1772 H   0  0  0  0  0  0  0  0  0  0  0  0
   20.1432   17.5833   23.6924 C   0  0  0  0  0  0  0  0  0  0  0  0
   20.0815   16.4867   23.6620 H   0  0  0  0  0  0  0  0  0  0  0  0
   21.2112   17.8111   23.7957 H   0  0  0  0  0  0  0  0  0  0  0  0
   19.3460   18.0703   24.9336 C   0  0  0  0  0  0  0  0  0  0  0  0
   19.4234   17.3122   25.7243 H   0  0  0  0  0  0  0  0  0  0  0  0
   18.2810   18.1176   24.6710 H   0  0  0  0  0  0  0  0  0  0  0  0
   19.7985   19.4309   25.5172 C   0  0  2  0  0  0  0  0  0  0  0  0
   19.8772   20.1573   24.7053 H   0  0  0  0  0  0  0  0  0  0  0  0
   21.1690   19.3333   26.2117 C   0  0  0  0  0  0  0  0  0  0  0  0
   21.1524   18.5917   27.0201 H   0  0  0  0  0  0  0  0  0  0  0  0
   21.9588   19.0521   25.5063 H   0  0  0  0  0  0  0  0  0  0  0  0
   21.4511   20.3007   26.6452 H   0  0  0  0  0  0  0  0  0  0  0  0
   18.7745   19.9770   26.4729 N   0  3  0  0  0  0  0  0  0  0  0  0
   17.8621   20.0936   26.0226 H   0  0  0  0  0  0  0  0  0  0  0  0
   19.0537   20.8922   26.8380 H   0  0  0  0  0  0  0  0  0  0  0  0
   18.6440   19.3553   27.2756 H   0  0  0  0  0  0  0  0  0  0  0  0
  1  2  1  0  0  0  0
  1  3  1  0  0  0  0
  1  4  1  0  0  0  0
  1  5  1  0  0  0  0
  5  6  1  0  0  0  0
  5  7  1  0  0  0  0
  5  8  1  0  0  0  0
  8  9  1  0  0  0  0
  8 10  1  0  0  0  0
  8 11  1  0  0  0  0
 11 12  1  0  0  0  0
 11 13  1  0  0  0  0
 11 14  1  0  0  0  0
 14 15  1  0  0  0  0
 14 16  1  0  0  0  0
 14 17  1  0  0  0  0
 17 18  1  0  0  0  0
 17 19  1  0  0  0  0
 17 20  1  0  0  0  0
 20 21  1  0  0  0  0
 20 22  1  0  0  0  0
 22 23  1  0  0  0  0
 22 24  1  0  0  0  0
 22 25  1  0  0  0  0
 20 26  1  0  0  0  0
 26 27  1  0  0  0  0
 26 28  1  0  0  0  0
 26 29  1  0  0  0  0
M  END
> <VM2 Rank>
144

> <Conf_Id>
103

> <Probability>
0.01

> <Sum Probability>
99.85

> <Delta G>
4.342

> <G>
38.045

> <E>
0.306

> <-TS>
37.739

> <U+W>
-23.839

> <U>
28.801

> <W>
-52.639

> <W(PB)>
-55.104

> <W(SA)>
2.464

> <Valence>
7.007

> <Coulomb>
20.616

> <VdW>
1.177

> <VdW6>
-10.509

> <VdW12>
11.686

> <Bond>
0.329

> <Angle>
2.382

> <Pdih>
4.296

> <Idih>
0.000

> <Tether>
0.000

$$$$
VeraChem MOL file


 29 28  0  0  0  0  0  0  0  0999 V2000     
   18.7006   18.7536   20.0425 C   0  0  0  0  0  0  0  0  0  0  0  0
   18.3713   18.1388   20.8895 H   0  0  0  0  0  0  0  0  0  0  0  0
   17.9632   19.5519   19.8881 H   0  0  0  0  0  0  0  0  0  0  0  0
   18.6970   18.1149   19.1498 H   0  0  0  0  0  0  0  0  0  0  0  0
   20.1103   19.3389   20.2836 C   0  0  0  0  0  0  0  0  0  0  0  0
   20.4475   19.8377   19.3643 H   0  0  0  0  0  0  0  0  0  0  0  0
   20.8249   18.5240   20.4592 H   0  0  0  0  0  0  0  0  0  0  0  0
   20.1642   20.3631   21.4462 C   0  0  0  0  0  0  0  0  0  0  0  0
   21.1937   20.7343   21.5439 H   0  0  0  0  0  0  0  0  0  0  0  0
   19.5558   21.2361   21.1724 H   0  0  0  0  0  0  0  0  0  0  0  0
   19.6828   19.8403   22.8250 C   0  0  0  0  0  0  0  0  0  0  0  0
   18.6270   19.5450   22.7647 H   0  0  0  0  0  0  0  0  0  0  0  0
   19.7336   20.6820   23.5255 H   0  0  0  0  0  0  0  0  0  0  0  0
   20.5316   18.6663   23.3746 C   0  0  0  0  0  0  0  0  0  0  0  0
   20.5730   17.8669   22.6242 H   0  0  0  0  0  0  0  0  0  0  0  0
   21.5674   19.0017   23.5219 H   0  0  0  0  0  0  0  0  0  0  0  0
   20.0001   18.0376   24.6897 C   0  0  0  0  0  0  0  0  0  0  0  0
   20.6294   17.1634   24.9041 H   0  0  0  0  0  0  0  0  0  0  0  0
   18.9858   17.6449   24.5387 H   0  0  0  0  0  0  0  0  0  0  0  0
   20.0247   18.9776   25.9183 C   0  0  2  0  0  0  0  0  0  0  0  0
   20.9306   19.5894   25.8675 H   0  0  0  0  0  0  0  0  0  0  0  0
   20.0692   18.1589   27.2192 C   0  0  0  0  0  0  0  0  0  0  0  0
   19.1875   17.5123   27.3113 H   0  0  0  0  0  0  0  0  0  0  0  0
   20.9638   17.5244   27.2514 H   0  0  0  0  0  0  0  0  0  0  0  0
   20.1015   18.8202   28.0938 H   0  0  0  0  0  0  0  0  0  0  0  0
   18.8524   19.9198   25.9550 N   0  3  0  0  0  0  0  0  0  0  0  0
   17.9693   19.4097   26.0415 H   0  0  0  0  0  0  0  0  0  0  0  0
   18.7991   20.4848   25.1045 H   0  0  0  0  0  0  0  0  0  0  0  0
   18.9139   20.5621   26.7502 H   0  0  0  0  0  0  0  0  0  0  0  0
  1  2  1  0  0  0  0
  1  3  1  0  0  0  0
  1  4  1  0  0  0  0
  1  5  1  0  0  0  0
  5  6  1  0  0  0  0
  5  7  1  0  0  0  0
  5  8  1  0  0  0  0
  8  9  1  0  0  0  0
  8 10  1  0  0  0  0
  8 11  1  0  0  0  0
 11 12  1  0  0  0  0
 11 13  1  0  0  0  0
 11 14  1  0  0  0  0
 14 15  1  0  0  0  0
 14 16  1  0  0  0  0
 14 17  1  0  0  0  0
 17 18  1  0  0  0  0
 17 19  1  0  0  0  0
 17 20  1  0  0  0  0
 20 21  1  0  0  0  0
 20 22  1  0  0  0  0
 22 23  1  0  0  0  0
 22 24  1  0  0  0  0
 22 25  1  0  0  0  0
 20 26  1  0  0  0  0
 26 27  1  0  0  0  0
 26 28  1  0  0  0  0
 26 29  1  0  0  0  0
M  END
> <VM2 Rank>
145

> <Conf_Id>
1051

> <Probability>
0.01

> <Sum Probability>
99.86

> <Delta G>
4.366

> <G>
38.069

> <E>
0.332

> <-TS>
37.737

> <U+W>
-23.813

> <U>
28.429

> <W>
-52.242

> <W(PB)>
-54.685

> <W(SA)>
2.442

> <Valence>
6.077

> <Coulomb>
21.131

> <VdW>
1.221

> <VdW6>
-10.541

> <VdW12>
11.762

> <Bond>
0.334

> <Angle>
2.388

> <Pdih>
3.355

> <Idih>
0.000

> <Tether>
0.000

$$$$
VeraChem MOL file


 29 28  0  0  0  0  0  0  0  0999 V2000     
   19.5073   18.1721   19.9314 C   0  0  0  0  0  0  0  0  0  0  0  0
   20.4593   17.7439   19.5917 H   0  0  0  0  0  0  0  0  0  0  0  0
   19.1516   17.5731   20.7770 H   0  0  0  0  0  0  0  0  0  0  0  0
   18.7819   18.0599   19.1153 H   0  0  0  0  0  0  0  0  0  0  0  0
   19.6758   19.6634   20.3043 C   0  0  0  0  0  0  0  0  0  0  0  0
   18.7042   20.1038   20.5682 H   0  0  0  0  0  0  0  0  0  0  0  0
   20.0170   20.2000   19.4079 H   0  0  0  0  0  0  0  0  0  0  0  0
   20.7021   19.8994   21.4423 C   0  0  0  0  0  0  0  0  0  0  0  0
   21.4628   19.1067   21.4386 H   0  0  0  0  0  0  0  0  0  0  0  0
   21.2445   20.8300   21.2253 H   0  0  0  0  0  0  0  0  0  0  0  0
   20.0858   20.0390   22.8582 C   0  0  0  0  0  0  0  0  0  0  0  0
   19.4077   20.9033   22.8768 H   0  0  0  0  0  0  0  0  0  0  0  0
   20.9007   20.2736   23.5552 H   0  0  0  0  0  0  0  0  0  0  0  0
   19.3285   18.7809   23.3497 C   0  0  0  0  0  0  0  0  0  0  0  0
   18.4662   18.6017   22.6952 H   0  0  0  0  0  0  0  0  0  0  0  0
   19.9729   17.8967   23.2591 H   0  0  0  0  0  0  0  0  0  0  0  0
   18.7999   18.9110   24.8019 C   0  0  0  0  0  0  0  0  0  0  0  0
   18.2431   18.0004   25.0598 H   0  0  0  0  0  0  0  0  0  0  0  0
   18.0713   19.7319   24.8331 H   0  0  0  0  0  0  0  0  0  0  0  0
   19.8806   19.1666   25.8791 C   0  0  2  0  0  0  0  0  0  0  0  0
   20.4157   20.0853   25.6221 H   0  0  0  0  0  0  0  0  0  0  0  0
   20.8999   18.0165   25.9617 C   0  0  0  0  0  0  0  0  0  0  0  0
   21.4690   17.9223   25.0295 H   0  0  0  0  0  0  0  0  0  0  0  0
   21.6229   18.1977   26.7665 H   0  0  0  0  0  0  0  0  0  0  0  0
   20.4024   17.0589   26.1599 H   0  0  0  0  0  0  0  0  0  0  0  0
   19.2561   19.4071   27.2253 N   0  3  0  0  0  0  0  0  0  0  0  0
   18.7347   18.5873   27.5474 H   0  0  0  0  0  0  0  0  0  0  0  0
   18.6046   20.1970   27.2030 H   0  0  0  0  0  0  0  0  0  0  0  0
   19.9646   19.6164   27.9344 H   0  0  0  0  0  0  0  0  0  0  0  0
  1  2  1  0  0  0  0
  1  3  1  0  0  0  0
  1  4  1  0  0  0  0
  1  5  1  0  0  0  0
  5  6  1  0  0  0  0
  5  7  1  0  0  0  0
  5  8  1  0  0  0  0
  8  9  1  0  0  0  0
  8 10  1  0  0  0  0
  8 11  1  0  0  0  0
 11 12  1  0  0  0  0
 11 13  1  0  0  0  0
 11 14  1  0  0  0  0
 14 15  1  0  0  0  0
 14 16  1  0  0  0  0
 14 17  1  0  0  0  0
 17 18  1  0  0  0  0
 17 19  1  0  0  0  0
 17 20  1  0  0  0  0
 20 21  1  0  0  0  0
 20 22  1  0  0  0  0
 22 23  1  0  0  0  0
 22 24  1  0  0  0  0
 22 25  1  0  0  0  0
 20 26  1  0  0  0  0
 26 27  1  0  0  0  0
 26 28  1  0  0  0  0
 26 29  1  0  0  0  0
M  END
> <VM2 Rank>
146

> <Conf_Id>
106

> <Probability>
0.01

> <Sum Probability>
99.87

> <Delta G>
4.394

> <G>
38.096

> <E>
0.103

> <-TS>
37.994

> <U+W>
-24.042

> <U>
28.220

> <W>
-52.262

> <W(PB)>
-54.724

> <W(SA)>
2.462

> <Valence>
7.040

> <Coulomb>
19.984

> <VdW>
1.197

> <VdW6>
-10.566

> <VdW12>
11.762

> <Bond>
0.320

> <Angle>
2.281

> <Pdih>
4.439

> <Idih>
0.000

> <Tether>
0.000

$$$$
VeraChem MOL file


 29 28  0  0  0  0  0  0  0  0999 V2000     
   20.0724   17.8095   20.1846 C   0  0  0  0  0  0  0  0  0  0  0  0
   21.0671   17.5520   20.5709 H   0  0  0  0  0  0  0  0  0  0  0  0
   19.3228   17.2718   20.7783 H   0  0  0  0  0  0  0  0  0  0  0  0
   20.0057   17.4377   19.1540 H   0  0  0  0  0  0  0  0  0  0  0  0
   19.8392   19.3368   20.2245 C   0  0  0  0  0  0  0  0  0  0  0  0
   18.8278   19.5662   19.8609 H   0  0  0  0  0  0  0  0  0  0  0  0
   20.5346   19.8198   19.5239 H   0  0  0  0  0  0  0  0  0  0  0  0
   20.0431   19.9517   21.6301 C   0  0  0  0  0  0  0  0  0  0  0  0
   21.0654   19.7387   21.9669 H   0  0  0  0  0  0  0  0  0  0  0  0
   19.9653   21.0444   21.5469 H   0  0  0  0  0  0  0  0  0  0  0  0
   19.0139   19.4479   22.6741 C   0  0  0  0  0  0  0  0  0  0  0  0
   19.1397   18.3720   22.8333 H   0  0  0  0  0  0  0  0  0  0  0  0
   18.0042   19.5780   22.2609 H   0  0  0  0  0  0  0  0  0  0  0  0
   19.0843   20.2051   24.0267 C   0  0  0  0  0  0  0  0  0  0  0  0
   18.9998   21.2805   23.8181 H   0  0  0  0  0  0  0  0  0  0  0  0
   18.1994   19.9570   24.6267 H   0  0  0  0  0  0  0  0  0  0  0  0
   20.3764   19.9642   24.8613 C   0  0  0  0  0  0  0  0  0  0  0  0
   20.6033   20.8877   25.4099 H   0  0  0  0  0  0  0  0  0  0  0  0
   21.2381   19.8063   24.2029 H   0  0  0  0  0  0  0  0  0  0  0  0
   20.3166   18.8168   25.9003 C   0  0  2  0  0  0  0  0  0  0  0  0
   21.2931   18.7819   26.3933 H   0  0  0  0  0  0  0  0  0  0  0  0
   20.0750   17.4398   25.2620 C   0  0  0  0  0  0  0  0  0  0  0  0
   20.2202   16.6443   26.0031 H   0  0  0  0  0  0  0  0  0  0  0  0
   19.0531   17.3507   24.8751 H   0  0  0  0  0  0  0  0  0  0  0  0
   20.7783   17.2610   24.4392 H   0  0  0  0  0  0  0  0  0  0  0  0
   19.3152   19.0841   26.9904 N   0  3  0  0  0  0  0  0  0  0  0  0
   19.5009   19.9745   27.4609 H   0  0  0  0  0  0  0  0  0  0  0  0
   19.3355   18.3505   27.7045 H   0  0  0  0  0  0  0  0  0  0  0  0
   18.3631   19.1247   26.6188 H   0  0  0  0  0  0  0  0  0  0  0  0
  1  2  1  0  0  0  0
  1  3  1  0  0  0  0
  1  4  1  0  0  0  0
  1  5  1  0  0  0  0
  5  6  1  0  0  0  0
  5  7  1  0  0  0  0
  5  8  1  0  0  0  0
  8  9  1  0  0  0  0
  8 10  1  0  0  0  0
  8 11  1  0  0  0  0
 11 12  1  0  0  0  0
 11 13  1  0  0  0  0
 11 14  1  0  0  0  0
 14 15  1  0  0  0  0
 14 16  1  0  0  0  0
 14 17  1  0  0  0  0
 17 18  1  0  0  0  0
 17 19  1  0  0  0  0
 17 20  1  0  0  0  0
 20 21  1  0  0  0  0
 20 22  1  0  0  0  0
 22 23  1  0  0  0  0
 22 24  1  0  0  0  0
 22 25  1  0  0  0  0
 20 26  1  0  0  0  0
 26 27  1  0  0  0  0
 26 28  1  0  0  0  0
 26 29  1  0  0  0  0
M  END
> <VM2 Rank>
147

> <Conf_Id>
1292

> <Probability>
0.01

> <Sum Probability>
99.87

> <Delta G>
4.425

> <G>
38.127

> <E>
0.404

> <-TS>
37.723

> <U+W>
-23.741

> <U>
28.724

> <W>
-52.465

> <W(PB)>
-54.864

> <W(SA)>
2.399

> <Valence>
7.454

> <Coulomb>
19.992

> <VdW>
1.279

> <VdW6>
-10.881

> <VdW12>
12.160

> <Bond>
0.391

> <Angle>
2.489

> <Pdih>
4.574

> <Idih>
0.000

> <Tether>
0.000

$$$$
VeraChem MOL file


 29 28  0  0  0  0  0  0  0  0999 V2000     
   19.1109   20.6806   20.3746 C   0  0  0  0  0  0  0  0  0  0  0  0
   18.9433   21.7586   20.4963 H   0  0  0  0  0  0  0  0  0  0  0  0
   19.7345   20.5353   19.4828 H   0  0  0  0  0  0  0  0  0  0  0  0
   18.1377   20.2065   20.1922 H   0  0  0  0  0  0  0  0  0  0  0  0
   19.7888   20.0895   21.6287 C   0  0  0  0  0  0  0  0  0  0  0  0
   19.1577   20.2951   22.4999 H   0  0  0  0  0  0  0  0  0  0  0  0
   20.7438   20.6052   21.8004 H   0  0  0  0  0  0  0  0  0  0  0  0
   20.0368   18.5694   21.4776 C   0  0  0  0  0  0  0  0  0  0  0  0
   19.0878   18.0431   21.3066 H   0  0  0  0  0  0  0  0  0  0  0  0
   20.6365   18.4133   20.5702 H   0  0  0  0  0  0  0  0  0  0  0  0
   20.7943   17.9300   22.6710 C   0  0  0  0  0  0  0  0  0  0  0  0
   21.5143   18.6420   23.0959 H   0  0  0  0  0  0  0  0  0  0  0  0
   21.4031   17.1054   22.2750 H   0  0  0  0  0  0  0  0  0  0  0  0
   19.8864   17.3333   23.7801 C   0  0  0  0  0  0  0  0  0  0  0  0
   19.2236   16.5806   23.3317 H   0  0  0  0  0  0  0  0  0  0  0  0
   20.5165   16.7786   24.4880 H   0  0  0  0  0  0  0  0  0  0  0  0
   19.0209   18.3530   24.5648 C   0  0  0  0  0  0  0  0  0  0  0  0
   18.4727   17.8189   25.3521 H   0  0  0  0  0  0  0  0  0  0  0  0
   18.2529   18.7547   23.8927 H   0  0  0  0  0  0  0  0  0  0  0  0
   19.8093   19.5217   25.2014 C   0  0  2  0  0  0  0  0  0  0  0  0
   20.3684   20.0315   24.4115 H   0  0  0  0  0  0  0  0  0  0  0  0
   20.8085   19.0323   26.2645 C   0  0  0  0  0  0  0  0  0  0  0  0
   21.5751   18.3858   25.8218 H   0  0  0  0  0  0  0  0  0  0  0  0
   21.3265   19.8810   26.7279 H   0  0  0  0  0  0  0  0  0  0  0  0
   20.3002   18.4695   27.0573 H   0  0  0  0  0  0  0  0  0  0  0  0
   18.8802   20.5461   25.7913 N   0  3  0  0  0  0  0  0  0  0  0  0
   19.3973   21.3408   26.1784 H   0  0  0  0  0  0  0  0  0  0  0  0
   18.3206   20.1482   26.5505 H   0  0  0  0  0  0  0  0  0  0  0  0
   18.2306   20.9158   25.0915 H   0  0  0  0  0  0  0  0  0  0  0  0
  1  2  1  0  0  0  0
  1  3  1  0  0  0  0
  1  4  1  0  0  0  0
  1  5  1  0  0  0  0
  5  6  1  0  0  0  0
  5  7  1  0  0  0  0
  5  8  1  0  0  0  0
  8  9  1  0  0  0  0
  8 10  1  0  0  0  0
  8 11  1  0  0  0  0
 11 12  1  0  0  0  0
 11 13  1  0  0  0  0
 11 14  1  0  0  0  0
 14 15  1  0  0  0  0
 14 16  1  0  0  0  0
 14 17  1  0  0  0  0
 17 18  1  0  0  0  0
 17 19  1  0  0  0  0
 17 20  1  0  0  0  0
 20 21  1  0  0  0  0
 20 22  1  0  0  0  0
 22 23  1  0  0  0  0
 22 24  1  0  0  0  0
 22 25  1  0  0  0  0
 20 26  1  0  0  0  0
 26 27  1  0  0  0  0
 26 28  1  0  0  0  0
 26 29  1  0  0  0  0
M  END
> <VM2 Rank>
148

> <Conf_Id>
1672

> <Probability>
0.01

> <Sum Probability>
99.88

> <Delta G>
4.483

> <G>
38.185

> <E>
-0.111

> <-TS>
38.296

> <U+W>
-24.256

> <U>
28.796

> <W>
-53.052

> <W(PB)>
-55.454

> <W(SA)>
2.402

> <Valence>
6.977

> <Coulomb>
21.301

> <VdW>
0.518

> <VdW6>
-11.513

> <VdW12>
12.031

> <Bond>
0.321

> <Angle>
2.483

> <Pdih>
4.173

> <Idih>
0.000

> <Tether>
0.000

$$$$
VeraChem MOL file


 29 28  0  0  0  0  0  0  0  0999 V2000     
   18.0537   19.5321   21.4933 C   0  0  0  0  0  0  0  0  0  0  0  0
   17.6033   18.5327   21.5512 H   0  0  0  0  0  0  0  0  0  0  0  0
   18.2070   19.8962   22.5139 H   0  0  0  0  0  0  0  0  0  0  0  0
   17.3251   20.1979   21.0130 H   0  0  0  0  0  0  0  0  0  0  0  0
   19.3698   19.5005   20.6825 C   0  0  0  0  0  0  0  0  0  0  0  0
   19.7999   20.5093   20.6146 H   0  0  0  0  0  0  0  0  0  0  0  0
   19.1216   19.2087   19.6524 H   0  0  0  0  0  0  0  0  0  0  0  0
   20.4217   18.5020   21.2319 C   0  0  0  0  0  0  0  0  0  0  0  0
   19.9274   17.6287   21.6773 H   0  0  0  0  0  0  0  0  0  0  0  0
   20.9860   18.1076   20.3756 H   0  0  0  0  0  0  0  0  0  0  0  0
   21.4558   19.1134   22.2156 C   0  0  0  0  0  0  0  0  0  0  0  0
   21.9911   19.9265   21.7063 H   0  0  0  0  0  0  0  0  0  0  0  0
   22.2165   18.3528   22.4391 H   0  0  0  0  0  0  0  0  0  0  0  0
   20.8894   19.6529   23.5521 C   0  0  0  0  0  0  0  0  0  0  0  0
   21.7208   20.0791   24.1305 H   0  0  0  0  0  0  0  0  0  0  0  0
   20.2068   20.4868   23.3510 H   0  0  0  0  0  0  0  0  0  0  0  0
   20.1949   18.5632   24.4086 C   0  0  0  0  0  0  0  0  0  0  0  0
   20.8881   17.7217   24.5389 H   0  0  0  0  0  0  0  0  0  0  0  0
   19.3176   18.1662   23.8833 H   0  0  0  0  0  0  0  0  0  0  0  0
   19.7680   19.0766   25.8004 C   0  0  2  0  0  0  0  0  0  0  0  0
   20.6519   19.4823   26.3020 H   0  0  0  0  0  0  0  0  0  0  0  0
   19.2178   17.9207   26.6508 C   0  0  0  0  0  0  0  0  0  0  0  0
   18.9467   18.2716   27.6542 H   0  0  0  0  0  0  0  0  0  0  0  0
   18.3254   17.4786   26.1903 H   0  0  0  0  0  0  0  0  0  0  0  0
   19.9696   17.1300   26.7668 H   0  0  0  0  0  0  0  0  0  0  0  0
   18.7649   20.1947   25.7188 N   0  3  0  0  0  0  0  0  0  0  0  0
   18.5145   20.5395   26.6500 H   0  0  0  0  0  0  0  0  0  0  0  0
   17.9015   19.8882   25.2628 H   0  0  0  0  0  0  0  0  0  0  0  0
   19.1332   20.9881   25.1873 H   0  0  0  0  0  0  0  0  0  0  0  0
  1  2  1  0  0  0  0
  1  3  1  0  0  0  0
  1  4  1  0  0  0  0
  1  5  1  0  0  0  0
  5  6  1  0  0  0  0
  5  7  1  0  0  0  0
  5  8  1  0  0  0  0
  8  9  1  0  0  0  0
  8 10  1  0  0  0  0
  8 11  1  0  0  0  0
 11 12  1  0  0  0  0
 11 13  1  0  0  0  0
 11 14  1  0  0  0  0
 14 15  1  0  0  0  0
 14 16  1  0  0  0  0
 14 17  1  0  0  0  0
 17 18  1  0  0  0  0
 17 19  1  0  0  0  0
 17 20  1  0  0  0  0
 20 21  1  0  0  0  0
 20 22  1  0  0  0  0
 22 23  1  0  0  0  0
 22 24  1  0  0  0  0
 22 25  1  0  0  0  0
 20 26  1  0  0  0  0
 26 27  1  0  0  0  0
 26 28  1  0  0  0  0
 26 29  1  0  0  0  0
M  END
> <VM2 Rank>
149

> <Conf_Id>
894

> <Probability>
0.01

> <Sum Probability>
99.88

> <Delta G>
4.506

> <G>
38.208

> <E>
-0.043

> <-TS>
38.252

> <U+W>
-24.188

> <U>
28.509

> <W>
-52.698

> <W(PB)>
-55.107

> <W(SA)>
2.410

> <Valence>
6.729

> <Coulomb>
21.117

> <VdW>
0.663

> <VdW6>
-11.042

> <VdW12>
11.705

> <Bond>
0.323

> <Angle>
2.297

> <Pdih>
4.109

> <Idih>
0.000

> <Tether>
0.000

$$$$
VeraChem MOL file


 29 28  0  0  0  0  0  0  0  0999 V2000     
   18.3408   19.7956   20.9127 C   0  0  0  0  0  0  0  0  0  0  0  0
   18.4895   20.4880   21.7499 H   0  0  0  0  0  0  0  0  0  0  0  0
   18.6204   20.3151   19.9871 H   0  0  0  0  0  0  0  0  0  0  0  0
   17.2689   19.5659   20.8580 H   0  0  0  0  0  0  0  0  0  0  0  0
   19.1643   18.4994   21.0887 C   0  0  0  0  0  0  0  0  0  0  0  0
   18.9192   17.8154   20.2643 H   0  0  0  0  0  0  0  0  0  0  0  0
   18.8630   17.9770   22.0054 H   0  0  0  0  0  0  0  0  0  0  0  0
   20.6937   18.7394   21.0871 C   0  0  0  0  0  0  0  0  0  0  0  0
   21.2031   17.7672   21.1352 H   0  0  0  0  0  0  0  0  0  0  0  0
   20.9776   19.1753   20.1194 H   0  0  0  0  0  0  0  0  0  0  0  0
   21.2438   19.6501   22.2179 C   0  0  0  0  0  0  0  0  0  0  0  0
   20.8206   20.6605   22.1435 H   0  0  0  0  0  0  0  0  0  0  0  0
   22.3203   19.7747   22.0367 H   0  0  0  0  0  0  0  0  0  0  0  0
   21.0686   19.0866   23.6530 C   0  0  0  0  0  0  0  0  0  0  0  0
   21.0911   17.9897   23.6216 H   0  0  0  0  0  0  0  0  0  0  0  0
   21.9386   19.3923   24.2506 H   0  0  0  0  0  0  0  0  0  0  0  0
   19.7918   19.5955   24.3724 C   0  0  0  0  0  0  0  0  0  0  0  0
   18.8914   19.2597   23.8470 H   0  0  0  0  0  0  0  0  0  0  0  0
   19.7835   20.6925   24.3301 H   0  0  0  0  0  0  0  0  0  0  0  0
   19.7049   19.1652   25.8541 C   0  0  2  0  0  0  0  0  0  0  0  0
   20.6309   19.4651   26.3542 H   0  0  0  0  0  0  0  0  0  0  0  0
   19.5391   17.6424   26.0052 C   0  0  0  0  0  0  0  0  0  0  0  0
   18.6532   17.2842   25.4661 H   0  0  0  0  0  0  0  0  0  0  0  0
   20.4146   17.1055   25.6226 H   0  0  0  0  0  0  0  0  0  0  0  0
   19.4277   17.3690   27.0617 H   0  0  0  0  0  0  0  0  0  0  0  0
   18.5891   19.8818   26.5627 N   0  3  0  0  0  0  0  0  0  0  0  0
   18.5526   19.6283   27.5542 H   0  0  0  0  0  0  0  0  0  0  0  0
   17.6787   19.6525   26.1550 H   0  0  0  0  0  0  0  0  0  0  0  0
   18.7022   20.8985   26.5126 H   0  0  0  0  0  0  0  0  0  0  0  0
  1  2  1  0  0  0  0
  1  3  1  0  0  0  0
  1  4  1  0  0  0  0
  1  5  1  0  0  0  0
  5  6  1  0  0  0  0
  5  7  1  0  0  0  0
  5  8  1  0  0  0  0
  8  9  1  0  0  0  0
  8 10  1  0  0  0  0
  8 11  1  0  0  0  0
 11 12  1  0  0  0  0
 11 13  1  0  0  0  0
 11 14  1  0  0  0  0
 14 15  1  0  0  0  0
 14 16  1  0  0  0  0
 14 17  1  0  0  0  0
 17 18  1  0  0  0  0
 17 19  1  0  0  0  0
 17 20  1  0  0  0  0
 20 21  1  0  0  0  0
 20 22  1  0  0  0  0
 22 23  1  0  0  0  0
 22 24  1  0  0  0  0
 22 25  1  0  0  0  0
 20 26  1  0  0  0  0
 26 27  1  0  0  0  0
 26 28  1  0  0  0  0
 26 29  1  0  0  0  0
M  END
> <VM2 Rank>
150

> <Conf_Id>
961

> <Probability>
0.01

> <Sum Probability>
99.89

> <Delta G>
4.508

> <G>
38.211

> <E>
0.010

> <-TS>
38.201

> <U+W>
-24.134

> <U>
28.526

> <W>
-52.661

> <W(PB)>
-55.100

> <W(SA)>
2.440

> <Valence>
7.281

> <Coulomb>
20.271

> <VdW>
0.975

> <VdW6>
-10.955

> <VdW12>
11.930

> <Bond>
0.337

> <Angle>
2.512

> <Pdih>
4.431

> <Idih>
0.000

> <Tether>
0.000

$$$$
VeraChem MOL file


 29 28  0  0  0  0  0  0  0  0999 V2000     
   19.6756   18.0696   19.9623 C   0  0  0  0  0  0  0  0  0  0  0  0
   20.6865   18.3002   19.6018 H   0  0  0  0  0  0  0  0  0  0  0  0
   19.7570   17.3213   20.7604 H   0  0  0  0  0  0  0  0  0  0  0  0
   19.1206   17.6097   19.1344 H   0  0  0  0  0  0  0  0  0  0  0  0
   18.9558   19.3464   20.4524 C   0  0  0  0  0  0  0  0  0  0  0  0
   17.9599   19.0846   20.8361 H   0  0  0  0  0  0  0  0  0  0  0  0
   18.7893   20.0111   19.5932 H   0  0  0  0  0  0  0  0  0  0  0  0
   19.7465   20.1214   21.5338 C   0  0  0  0  0  0  0  0  0  0  0  0
   20.7301   20.4055   21.1349 H   0  0  0  0  0  0  0  0  0  0  0  0
   19.2168   21.0599   21.7480 H   0  0  0  0  0  0  0  0  0  0  0  0
   19.9258   19.3296   22.8511 C   0  0  0  0  0  0  0  0  0  0  0  0
   20.5278   18.4303   22.6663 H   0  0  0  0  0  0  0  0  0  0  0  0
   18.9397   18.9994   23.1984 H   0  0  0  0  0  0  0  0  0  0  0  0
   20.6096   20.1848   23.9430 C   0  0  0  0  0  0  0  0  0  0  0  0
   21.5128   20.6406   23.5142 H   0  0  0  0  0  0  0  0  0  0  0  0
   19.9569   21.0244   24.2173 H   0  0  0  0  0  0  0  0  0  0  0  0
   21.0367   19.4029   25.2177 C   0  0  0  0  0  0  0  0  0  0  0  0
   21.5516   20.1130   25.8779 H   0  0  0  0  0  0  0  0  0  0  0  0
   21.7954   18.6545   24.9533 H   0  0  0  0  0  0  0  0  0  0  0  0
   19.9158   18.7316   26.0532 C   0  0  2  0  0  0  0  0  0  0  0  0
   20.2989   18.6411   27.0743 H   0  0  0  0  0  0  0  0  0  0  0  0
   19.5989   17.3002   25.5819 C   0  0  0  0  0  0  0  0  0  0  0  0
   19.1499   17.2763   24.5847 H   0  0  0  0  0  0  0  0  0  0  0  0
   20.5092   16.6884   25.5594 H   0  0  0  0  0  0  0  0  0  0  0  0
   18.8971   16.8183   26.2735 H   0  0  0  0  0  0  0  0  0  0  0  0
   18.6712   19.5695   26.1587 N   0  3  0  0  0  0  0  0  0  0  0  0
   18.8748   20.4911   26.5561 H   0  0  0  0  0  0  0  0  0  0  0  0
   17.9691   19.1250   26.7571 H   0  0  0  0  0  0  0  0  0  0  0  0
   18.2484   19.7169   25.2389 H   0  0  0  0  0  0  0  0  0  0  0  0
  1  2  1  0  0  0  0
  1  3  1  0  0  0  0
  1  4  1  0  0  0  0
  1  5  1  0  0  0  0
  5  6  1  0  0  0  0
  5  7  1  0  0  0  0
  5  8  1  0  0  0  0
  8  9  1  0  0  0  0
  8 10  1  0  0  0  0
  8 11  1  0  0  0  0
 11 12  1  0  0  0  0
 11 13  1  0  0  0  0
 11 14  1  0  0  0  0
 14 15  1  0  0  0  0
 14 16  1  0  0  0  0
 14 17  1  0  0  0  0
 17 18  1  0  0  0  0
 17 19  1  0  0  0  0
 17 20  1  0  0  0  0
 20 21  1  0  0  0  0
 20 22  1  0  0  0  0
 22 23  1  0  0  0  0
 22 24  1  0  0  0  0
 22 25  1  0  0  0  0
 20 26  1  0  0  0  0
 26 27  1  0  0  0  0
 26 28  1  0  0  0  0
 26 29  1  0  0  0  0
M  END
> <VM2 Rank>
151

> <Conf_Id>
205

> <Probability>
0.01

> <Sum Probability>
99.90

> <Delta G>
4.517

> <G>
38.220

> <E>
0.211

> <-TS>
38.008

> <U+W>
-23.933

> <U>
28.480

> <W>
-52.413

> <W(PB)>
-54.832

> <W(SA)>
2.419

> <Valence>
6.764

> <Coulomb>
20.529

> <VdW>
1.186

> <VdW6>
-10.594

> <VdW12>
11.780

> <Bond>
0.333

> <Angle>
2.588

> <Pdih>
3.843

> <Idih>
0.000

> <Tether>
0.000

$$$$
VeraChem MOL file


 29 28  0  0  0  0  0  0  0  0999 V2000     
   20.9265   20.0588   20.6776 C   0  0  0  0  0  0  0  0  0  0  0  0
   22.0096   20.0842   20.5014 H   0  0  0  0  0  0  0  0  0  0  0  0
   20.4301   20.4233   19.7690 H   0  0  0  0  0  0  0  0  0  0  0  0
   20.7058   20.7608   21.4905 H   0  0  0  0  0  0  0  0  0  0  0  0
   20.4669   18.6231   21.0197 C   0  0  0  0  0  0  0  0  0  0  0  0
   20.9870   18.2583   21.9144 H   0  0  0  0  0  0  0  0  0  0  0  0
   20.7755   17.9544   20.2041 H   0  0  0  0  0  0  0  0  0  0  0  0
   18.9346   18.4981   21.2022 C   0  0  0  0  0  0  0  0  0  0  0  0
   18.4453   18.7959   20.2646 H   0  0  0  0  0  0  0  0  0  0  0  0
   18.6818   17.4385   21.3449 H   0  0  0  0  0  0  0  0  0  0  0  0
   18.3174   19.3215   22.3648 C   0  0  0  0  0  0  0  0  0  0  0  0
   17.2284   19.1847   22.3148 H   0  0  0  0  0  0  0  0  0  0  0  0
   18.4803   20.3961   22.2099 H   0  0  0  0  0  0  0  0  0  0  0  0
   18.7835   18.8953   23.7820 C   0  0  0  0  0  0  0  0  0  0  0  0
   17.9296   19.0001   24.4641 H   0  0  0  0  0  0  0  0  0  0  0  0
   19.0413   17.8284   23.7782 H   0  0  0  0  0  0  0  0  0  0  0  0
   19.9607   19.7484   24.3303 C   0  0  0  0  0  0  0  0  0  0  0  0
   19.6700   20.8069   24.3213 H   0  0  0  0  0  0  0  0  0  0  0  0
   20.8266   19.6716   23.6644 H   0  0  0  0  0  0  0  0  0  0  0  0
   20.4172   19.3816   25.7620 C   0  0  2  0  0  0  0  0  0  0  0  0
   21.2128   20.0806   26.0380 H   0  0  0  0  0  0  0  0  0  0  0  0
   21.0022   17.9604   25.8347 C   0  0  0  0  0  0  0  0  0  0  0  0
   21.4428   17.7774   26.8224 H   0  0  0  0  0  0  0  0  0  0  0  0
   20.2348   17.1961   25.6641 H   0  0  0  0  0  0  0  0  0  0  0  0
   21.7939   17.8258   25.0873 H   0  0  0  0  0  0  0  0  0  0  0  0
   19.3269   19.5689   26.7807 N   0  3  0  0  0  0  0  0  0  0  0  0
   19.6648   19.3818   27.7291 H   0  0  0  0  0  0  0  0  0  0  0  0
   18.5420   18.9370   26.6041 H   0  0  0  0  0  0  0  0  0  0  0  0
   18.9621   20.5257   26.7685 H   0  0  0  0  0  0  0  0  0  0  0  0
  1  2  1  0  0  0  0
  1  3  1  0  0  0  0
  1  4  1  0  0  0  0
  1  5  1  0  0  0  0
  5  6  1  0  0  0  0
  5  7  1  0  0  0  0
  5  8  1  0  0  0  0
  8  9  1  0  0  0  0
  8 10  1  0  0  0  0
  8 11  1  0  0  0  0
 11 12  1  0  0  0  0
 11 13  1  0  0  0  0
 11 14  1  0  0  0  0
 14 15  1  0  0  0  0
 14 16  1  0  0  0  0
 14 17  1  0  0  0  0
 17 18  1  0  0  0  0
 17 19  1  0  0  0  0
 17 20  1  0  0  0  0
 20 21  1  0  0  0  0
 20 22  1  0  0  0  0
 22 23  1  0  0  0  0
 22 24  1  0  0  0  0
 22 25  1  0  0  0  0
 20 26  1  0  0  0  0
 26 27  1  0  0  0  0
 26 28  1  0  0  0  0
 26 29  1  0  0  0  0
M  END
> <VM2 Rank>
152

> <Conf_Id>
1678

> <Probability>
0.01

> <Sum Probability>
99.90

> <Delta G>
4.540

> <G>
38.242

> <E>
-0.094

> <-TS>
38.336

> <U+W>
-24.238

> <U>
28.401

> <W>
-52.639

> <W(PB)>
-55.026

> <W(SA)>
2.386

> <Valence>
7.300

> <Coulomb>
20.102

> <VdW>
1.000

> <VdW6>
-11.395

> <VdW12>
12.394

> <Bond>
0.366

> <Angle>
2.503

> <Pdih>
4.432

> <Idih>
0.000

> <Tether>
0.000

$$$$
VeraChem MOL file


 29 28  0  0  0  0  0  0  0  0999 V2000     
   21.1416   18.2156   21.2466 C   0  0  0  0  0  0  0  0  0  0  0  0
   21.4640   17.3369   20.6732 H   0  0  0  0  0  0  0  0  0  0  0  0
   21.9660   18.9402   21.2366 H   0  0  0  0  0  0  0  0  0  0  0  0
   20.9849   17.8924   22.2805 H   0  0  0  0  0  0  0  0  0  0  0  0
   19.8622   18.8231   20.6265 C   0  0  0  0  0  0  0  0  0  0  0  0
   19.0508   18.0822   20.6249 H   0  0  0  0  0  0  0  0  0  0  0  0
   20.0731   19.0415   19.5702 H   0  0  0  0  0  0  0  0  0  0  0  0
   19.3941   20.1335   21.3111 C   0  0  0  0  0  0  0  0  0  0  0  0
   20.2564   20.7060   21.6769 H   0  0  0  0  0  0  0  0  0  0  0  0
   18.9351   20.7669   20.5394 H   0  0  0  0  0  0  0  0  0  0  0  0
   18.3373   19.9466   22.4334 C   0  0  0  0  0  0  0  0  0  0  0  0
   17.4546   19.4497   22.0079 H   0  0  0  0  0  0  0  0  0  0  0  0
   17.9917   20.9385   22.7556 H   0  0  0  0  0  0  0  0  0  0  0  0
   18.7978   19.1548   23.6823 C   0  0  0  0  0  0  0  0  0  0  0  0
   17.9394   19.0695   24.3613 H   0  0  0  0  0  0  0  0  0  0  0  0
   19.0519   18.1291   23.3913 H   0  0  0  0  0  0  0  0  0  0  0  0
   19.9799   19.8274   24.4329 C   0  0  0  0  0  0  0  0  0  0  0  0
   19.7140   20.8678   24.6610 H   0  0  0  0  0  0  0  0  0  0  0  0
   20.8574   19.8782   23.7771 H   0  0  0  0  0  0  0  0  0  0  0  0
   20.3959   19.1292   25.7490 C   0  0  2  0  0  0  0  0  0  0  0  0
   21.2049   19.7205   26.1890 H   0  0  0  0  0  0  0  0  0  0  0  0
   20.9376   17.7102   25.5043 C   0  0  0  0  0  0  0  0  0  0  0  0
   20.1562   17.0351   25.1357 H   0  0  0  0  0  0  0  0  0  0  0  0
   21.7539   17.7256   24.7718 H   0  0  0  0  0  0  0  0  0  0  0  0
   21.3350   17.2860   26.4346 H   0  0  0  0  0  0  0  0  0  0  0  0
   19.2897   19.1157   26.7678 N   0  3  0  0  0  0  0  0  0  0  0  0
   19.6020   18.7078   27.6536 H   0  0  0  0  0  0  0  0  0  0  0  0
   18.4912   18.5660   26.4410 H   0  0  0  0  0  0  0  0  0  0  0  0
   18.9524   20.0616   26.9679 H   0  0  0  0  0  0  0  0  0  0  0  0
  1  2  1  0  0  0  0
  1  3  1  0  0  0  0
  1  4  1  0  0  0  0
  1  5  1  0  0  0  0
  5  6  1  0  0  0  0
  5  7  1  0  0  0  0
  5  8  1  0  0  0  0
  8  9  1  0  0  0  0
  8 10  1  0  0  0  0
  8 11  1  0  0  0  0
 11 12  1  0  0  0  0
 11 13  1  0  0  0  0
 11 14  1  0  0  0  0
 14 15  1  0  0  0  0
 14 16  1  0  0  0  0
 14 17  1  0  0  0  0
 17 18  1  0  0  0  0
 17 19  1  0  0  0  0
 17 20  1  0  0  0  0
 20 21  1  0  0  0  0
 20 22  1  0  0  0  0
 22 23  1  0  0  0  0
 22 24  1  0  0  0  0
 22 25  1  0  0  0  0
 20 26  1  0  0  0  0
 26 27  1  0  0  0  0
 26 28  1  0  0  0  0
 26 29  1  0  0  0  0
M  END
> <VM2 Rank>
153

> <Conf_Id>
1351

> <Probability>
0.00

> <Sum Probability>
99.91

> <Delta G>
4.573

> <G>
38.275

> <E>
-0.224

> <-TS>
38.499

> <U+W>
-24.369

> <U>
28.256

> <W>
-52.625

> <W(PB)>
-54.980

> <W(SA)>
2.355

> <Valence>
7.264

> <Coulomb>
20.223

> <VdW>
0.769

> <VdW6>
-11.790

> <VdW12>
12.559

> <Bond>
0.367

> <Angle>
2.657

> <Pdih>
4.240

> <Idih>
0.000

> <Tether>
0.000

$$$$
VeraChem MOL file


 29 28  0  0  0  0  0  0  0  0999 V2000     
   19.8438   20.3533   20.1184 C   0  0  0  0  0  0  0  0  0  0  0  0
   20.4417   20.5821   19.2267 H   0  0  0  0  0  0  0  0  0  0  0  0
   18.8220   20.7124   19.9397 H   0  0  0  0  0  0  0  0  0  0  0  0
   20.2679   20.9224   20.9551 H   0  0  0  0  0  0  0  0  0  0  0  0
   19.8569   18.8347   20.4038 C   0  0  0  0  0  0  0  0  0  0  0  0
   20.8847   18.5036   20.6022 H   0  0  0  0  0  0  0  0  0  0  0  0
   19.5420   18.3019   19.4956 H   0  0  0  0  0  0  0  0  0  0  0  0
   18.9221   18.4165   21.5677 C   0  0  0  0  0  0  0  0  0  0  0  0
   17.8838   18.6269   21.2766 H   0  0  0  0  0  0  0  0  0  0  0  0
   18.9824   17.3270   21.6963 H   0  0  0  0  0  0  0  0  0  0  0  0
   19.2004   19.1017   22.9310 C   0  0  0  0  0  0  0  0  0  0  0  0
   18.4411   18.7434   23.6354 H   0  0  0  0  0  0  0  0  0  0  0  0
   19.0558   20.1864   22.8410 H   0  0  0  0  0  0  0  0  0  0  0  0
   20.6098   18.8014   23.5002 C   0  0  0  0  0  0  0  0  0  0  0  0
   20.7269   17.7193   23.6451 H   0  0  0  0  0  0  0  0  0  0  0  0
   21.3650   19.0856   22.7568 H   0  0  0  0  0  0  0  0  0  0  0  0
   20.9545   19.5574   24.8146 C   0  0  0  0  0  0  0  0  0  0  0  0
   20.9509   20.6383   24.6223 H   0  0  0  0  0  0  0  0  0  0  0  0
   21.9926   19.3126   25.0754 H   0  0  0  0  0  0  0  0  0  0  0  0
   20.0816   19.2652   26.0618 C   0  0  2  0  0  0  0  0  0  0  0  0
   20.6095   19.6895   26.9214 H   0  0  0  0  0  0  0  0  0  0  0  0
   19.9152   17.7586   26.3252 C   0  0  0  0  0  0  0  0  0  0  0  0
   20.8921   17.2606   26.3620 H   0  0  0  0  0  0  0  0  0  0  0  0
   19.4188   17.5895   27.2886 H   0  0  0  0  0  0  0  0  0  0  0  0
   19.3117   17.2756   25.5475 H   0  0  0  0  0  0  0  0  0  0  0  0
   18.7518   19.9672   26.0314 N   0  3  0  0  0  0  0  0  0  0  0  0
   18.2243   19.8046   26.8940 H   0  0  0  0  0  0  0  0  0  0  0  0
   18.1769   19.6412   25.2519 H   0  0  0  0  0  0  0  0  0  0  0  0
   18.8656   20.9797   25.9291 H   0  0  0  0  0  0  0  0  0  0  0  0
  1  2  1  0  0  0  0
  1  3  1  0  0  0  0
  1  4  1  0  0  0  0
  1  5  1  0  0  0  0
  5  6  1  0  0  0  0
  5  7  1  0  0  0  0
  5  8  1  0  0  0  0
  8  9  1  0  0  0  0
  8 10  1  0  0  0  0
  8 11  1  0  0  0  0
 11 12  1  0  0  0  0
 11 13  1  0  0  0  0
 11 14  1  0  0  0  0
 14 15  1  0  0  0  0
 14 16  1  0  0  0  0
 14 17  1  0  0  0  0
 17 18  1  0  0  0  0
 17 19  1  0  0  0  0
 17 20  1  0  0  0  0
 20 21  1  0  0  0  0
 20 22  1  0  0  0  0
 22 23  1  0  0  0  0
 22 24  1  0  0  0  0
 22 25  1  0  0  0  0
 20 26  1  0  0  0  0
 26 27  1  0  0  0  0
 26 28  1  0  0  0  0
 26 29  1  0  0  0  0
M  END
> <VM2 Rank>
154

> <Conf_Id>
698

> <Probability>
0.00

> <Sum Probability>
99.91

> <Delta G>
4.607

> <G>
38.309

> <E>
-0.027

> <-TS>
38.336

> <U+W>
-24.171

> <U>
28.516

> <W>
-52.688

> <W(PB)>
-55.069

> <W(SA)>
2.382

> <Valence>
6.153

> <Coulomb>
21.300

> <VdW>
1.064

> <VdW6>
-11.581

> <VdW12>
12.644

> <Bond>
0.386

> <Angle>
2.989

> <Pdih>
2.778

> <Idih>
0.000

> <Tether>
0.000

$$$$
VeraChem MOL file


 29 28  0  0  0  0  0  0  0  0999 V2000     
   19.9901   18.1521   19.6967 C   0  0  0  0  0  0  0  0  0  0  0  0
   19.3454   17.8161   18.8742 H   0  0  0  0  0  0  0  0  0  0  0  0
   20.7702   18.7971   19.2718 H   0  0  0  0  0  0  0  0  0  0  0  0
   20.4754   17.2668   20.1279 H   0  0  0  0  0  0  0  0  0  0  0  0
   19.1661   18.9066   20.7614 C   0  0  0  0  0  0  0  0  0  0  0  0
   18.3745   18.2473   21.1441 H   0  0  0  0  0  0  0  0  0  0  0  0
   18.6651   19.7657   20.2935 H   0  0  0  0  0  0  0  0  0  0  0  0
   20.0508   19.3916   21.9307 C   0  0  0  0  0  0  0  0  0  0  0  0
   20.5561   18.5274   22.3794 H   0  0  0  0  0  0  0  0  0  0  0  0
   20.8382   20.0533   21.5445 H   0  0  0  0  0  0  0  0  0  0  0  0
   19.2247   20.1441   23.0013 C   0  0  0  0  0  0  0  0  0  0  0  0
   18.4273   19.5006   23.3908 H   0  0  0  0  0  0  0  0  0  0  0  0
   18.7123   20.9882   22.5194 H   0  0  0  0  0  0  0  0  0  0  0  0
   20.0816   20.7016   24.1651 C   0  0  0  0  0  0  0  0  0  0  0  0
   20.7893   21.4314   23.7484 H   0  0  0  0  0  0  0  0  0  0  0  0
   19.4347   21.2819   24.8364 H   0  0  0  0  0  0  0  0  0  0  0  0
   20.8939   19.6645   24.9961 C   0  0  0  0  0  0  0  0  0  0  0  0
   21.4831   20.2325   25.7278 H   0  0  0  0  0  0  0  0  0  0  0  0
   21.6389   19.1688   24.3612 H   0  0  0  0  0  0  0  0  0  0  0  0
   20.0928   18.6016   25.7930 C   0  0  2  0  0  0  0  0  0  0  0  0
   20.7379   18.2794   26.6163 H   0  0  0  0  0  0  0  0  0  0  0  0
   19.7825   17.3389   24.9688 C   0  0  0  0  0  0  0  0  0  0  0  0
   19.3499   16.5625   25.6116 H   0  0  0  0  0  0  0  0  0  0  0  0
   19.0712   17.5315   24.1604 H   0  0  0  0  0  0  0  0  0  0  0  0
   20.6985   16.9267   24.5280 H   0  0  0  0  0  0  0  0  0  0  0  0
   18.8535   19.1551   26.4407 N   0  3  0  0  0  0  0  0  0  0  0  0
   19.0745   19.9421   27.0574 H   0  0  0  0  0  0  0  0  0  0  0  0
   18.3767   18.4462   27.0053 H   0  0  0  0  0  0  0  0  0  0  0  0
   18.1905   19.4904   25.7376 H   0  0  0  0  0  0  0  0  0  0  0  0
  1  2  1  0  0  0  0
  1  3  1  0  0  0  0
  1  4  1  0  0  0  0
  1  5  1  0  0  0  0
  5  6  1  0  0  0  0
  5  7  1  0  0  0  0
  5  8  1  0  0  0  0
  8  9  1  0  0  0  0
  8 10  1  0  0  0  0
  8 11  1  0  0  0  0
 11 12  1  0  0  0  0
 11 13  1  0  0  0  0
 11 14  1  0  0  0  0
 14 15  1  0  0  0  0
 14 16  1  0  0  0  0
 14 17  1  0  0  0  0
 17 18  1  0  0  0  0
 17 19  1  0  0  0  0
 17 20  1  0  0  0  0
 20 21  1  0  0  0  0
 20 22  1  0  0  0  0
 22 23  1  0  0  0  0
 22 24  1  0  0  0  0
 22 25  1  0  0  0  0
 20 26  1  0  0  0  0
 26 27  1  0  0  0  0
 26 28  1  0  0  0  0
 26 29  1  0  0  0  0
M  END
> <VM2 Rank>
155

> <Conf_Id>
238

> <Probability>
0.00

> <Sum Probability>
99.91

> <Delta G>
4.612

> <G>
38.314

> <E>
-0.134

> <-TS>
38.449

> <U+W>
-24.279

> <U>
28.206

> <W>
-52.485

> <W(PB)>
-54.876

> <W(SA)>
2.392

> <Valence>
6.867

> <Coulomb>
20.598

> <VdW>
0.740

> <VdW6>
-11.267

> <VdW12>
12.007

> <Bond>
0.355

> <Angle>
2.996

> <Pdih>
3.517

> <Idih>
0.000

> <Tether>
0.000

$$$$
VeraChem MOL file


 29 28  0  0  0  0  0  0  0  0999 V2000     
   18.9252   19.6476   19.8136 C   0  0  0  0  0  0  0  0  0  0  0  0
   18.2198   19.9210   20.6081 H   0  0  0  0  0  0  0  0  0  0  0  0
   18.8676   20.4234   19.0391 H   0  0  0  0  0  0  0  0  0  0  0  0
   18.5919   18.7017   19.3675 H   0  0  0  0  0  0  0  0  0  0  0  0
   20.3680   19.5284   20.3541 C   0  0  0  0  0  0  0  0  0  0  0  0
   20.6723   20.4790   20.8121 H   0  0  0  0  0  0  0  0  0  0  0  0
   21.0507   19.3709   19.5075 H   0  0  0  0  0  0  0  0  0  0  0  0
   20.5544   18.3645   21.3606 C   0  0  0  0  0  0  0  0  0  0  0  0
   20.3561   17.4147   20.8451 H   0  0  0  0  0  0  0  0  0  0  0  0
   21.6092   18.3262   21.6655 H   0  0  0  0  0  0  0  0  0  0  0  0
   19.6664   18.4363   22.6295 C   0  0  0  0  0  0  0  0  0  0  0  0
   19.8701   17.5481   23.2392 H   0  0  0  0  0  0  0  0  0  0  0  0
   18.6077   18.3645   22.3474 H   0  0  0  0  0  0  0  0  0  0  0  0
   19.8941   19.7190   23.4699 C   0  0  0  0  0  0  0  0  0  0  0  0
   20.9664   19.8732   23.6534 H   0  0  0  0  0  0  0  0  0  0  0  0
   19.5585   20.5839   22.8825 H   0  0  0  0  0  0  0  0  0  0  0  0
   19.1179   19.7180   24.8135 C   0  0  0  0  0  0  0  0  0  0  0  0
   18.2197   19.0914   24.7344 H   0  0  0  0  0  0  0  0  0  0  0  0
   18.7551   20.7390   24.9914 H   0  0  0  0  0  0  0  0  0  0  0  0
   19.9553   19.3006   26.0464 C   0  0  2  0  0  0  0  0  0  0  0  0
   20.8147   19.9744   26.1174 H   0  0  0  0  0  0  0  0  0  0  0  0
   20.4833   17.8593   25.9501 C   0  0  0  0  0  0  0  0  0  0  0  0
   21.0083   17.5774   26.8711 H   0  0  0  0  0  0  0  0  0  0  0  0
   19.6650   17.1459   25.7925 H   0  0  0  0  0  0  0  0  0  0  0  0
   21.1995   17.7569   25.1266 H   0  0  0  0  0  0  0  0  0  0  0  0
   19.1714   19.4822   27.3163 N   0  3  0  0  0  0  0  0  0  0  0  0
   18.3447   18.8789   27.3346 H   0  0  0  0  0  0  0  0  0  0  0  0
   18.8501   20.4484   27.4265 H   0  0  0  0  0  0  0  0  0  0  0  0
   19.7353   19.2529   28.1398 H   0  0  0  0  0  0  0  0  0  0  0  0
  1  2  1  0  0  0  0
  1  3  1  0  0  0  0
  1  4  1  0  0  0  0
  1  5  1  0  0  0  0
  5  6  1  0  0  0  0
  5  7  1  0  0  0  0
  5  8  1  0  0  0  0
  8  9  1  0  0  0  0
  8 10  1  0  0  0  0
  8 11  1  0  0  0  0
 11 12  1  0  0  0  0
 11 13  1  0  0  0  0
 11 14  1  0  0  0  0
 14 15  1  0  0  0  0
 14 16  1  0  0  0  0
 14 17  1  0  0  0  0
 17 18  1  0  0  0  0
 17 19  1  0  0  0  0
 17 20  1  0  0  0  0
 20 21  1  0  0  0  0
 20 22  1  0  0  0  0
 22 23  1  0  0  0  0
 22 24  1  0  0  0  0
 22 25  1  0  0  0  0
 20 26  1  0  0  0  0
 26 27  1  0  0  0  0
 26 28  1  0  0  0  0
 26 29  1  0  0  0  0
M  END
> <VM2 Rank>
156

> <Conf_Id>
1338

> <Probability>
0.00

> <Sum Probability>
99.92

> <Delta G>
4.615

> <G>
38.318

> <E>
0.173

> <-TS>
38.145

> <U+W>
-23.972

> <U>
28.230

> <W>
-52.202

> <W(PB)>
-54.646

> <W(SA)>
2.444

> <Valence>
7.255

> <Coulomb>
19.721

> <VdW>
1.254

> <VdW6>
-10.650

> <VdW12>
11.903

> <Bond>
0.331

> <Angle>
2.253

> <Pdih>
4.670

> <Idih>
0.000

> <Tether>
0.000

$$$$
VeraChem MOL file


 29 28  0  0  0  0  0  0  0  0999 V2000     
   18.1954   18.9169   20.4055 C   0  0  0  0  0  0  0  0  0  0  0  0
   17.7653   18.4426   19.5139 H   0  0  0  0  0  0  0  0  0  0  0  0
   17.8888   18.3222   21.2748 H   0  0  0  0  0  0  0  0  0  0  0  0
   17.7541   19.9177   20.4991 H   0  0  0  0  0  0  0  0  0  0  0  0
   19.7342   18.9970   20.2856 C   0  0  0  0  0  0  0  0  0  0  0  0
   19.9900   19.4893   19.3370 H   0  0  0  0  0  0  0  0  0  0  0  0
   20.1536   17.9828   20.2285 H   0  0  0  0  0  0  0  0  0  0  0  0
   20.4030   19.7754   21.4443 C   0  0  0  0  0  0  0  0  0  0  0  0
   21.4741   19.8775   21.2215 H   0  0  0  0  0  0  0  0  0  0  0  0
   19.9968   20.7955   21.4836 H   0  0  0  0  0  0  0  0  0  0  0  0
   20.2348   19.0925   22.8227 C   0  0  0  0  0  0  0  0  0  0  0  0
   20.6037   18.0592   22.7670 H   0  0  0  0  0  0  0  0  0  0  0  0
   19.1689   19.0476   23.0706 H   0  0  0  0  0  0  0  0  0  0  0  0
   20.9909   19.8552   23.9353 C   0  0  0  0  0  0  0  0  0  0  0  0
   22.0239   20.0265   23.6024 H   0  0  0  0  0  0  0  0  0  0  0  0
   20.5521   20.8540   24.0615 H   0  0  0  0  0  0  0  0  0  0  0  0
   21.0543   19.1232   25.3062 C   0  0  0  0  0  0  0  0  0  0  0  0
   21.6589   19.7450   25.9793 H   0  0  0  0  0  0  0  0  0  0  0  0
   21.6169   18.1866   25.1974 H   0  0  0  0  0  0  0  0  0  0  0  0
   19.7111   18.8403   26.0281 C   0  0  2  0  0  0  0  0  0  0  0  0
   19.9401   18.7652   27.0956 H   0  0  0  0  0  0  0  0  0  0  0  0
   19.0914   17.4899   25.6232 C   0  0  0  0  0  0  0  0  0  0  0  0
   18.7701   17.4717   24.5777 H   0  0  0  0  0  0  0  0  0  0  0  0
   19.8089   16.6735   25.7720 H   0  0  0  0  0  0  0  0  0  0  0  0
   18.2139   17.2721   26.2442 H   0  0  0  0  0  0  0  0  0  0  0  0
   18.7208   19.9655   25.9032 N   0  3  0  0  0  0  0  0  0  0  0  0
   19.1089   20.8444   26.2577 H   0  0  0  0  0  0  0  0  0  0  0  0
   17.8649   19.7724   26.4312 H   0  0  0  0  0  0  0  0  0  0  0  0
   18.4573   20.1165   24.9264 H   0  0  0  0  0  0  0  0  0  0  0  0
  1  2  1  0  0  0  0
  1  3  1  0  0  0  0
  1  4  1  0  0  0  0
  1  5  1  0  0  0  0
  5  6  1  0  0  0  0
  5  7  1  0  0  0  0
  5  8  1  0  0  0  0
  8  9  1  0  0  0  0
  8 10  1  0  0  0  0
  8 11  1  0  0  0  0
 11 12  1  0  0  0  0
 11 13  1  0  0  0  0
 11 14  1  0  0  0  0
 14 15  1  0  0  0  0
 14 16  1  0  0  0  0
 14 17  1  0  0  0  0
 17 18  1  0  0  0  0
 17 19  1  0  0  0  0
 17 20  1  0  0  0  0
 20 21  1  0  0  0  0
 20 22  1  0  0  0  0
 22 23  1  0  0  0  0
 22 24  1  0  0  0  0
 22 25  1  0  0  0  0
 20 26  1  0  0  0  0
 26 27  1  0  0  0  0
 26 28  1  0  0  0  0
 26 29  1  0  0  0  0
M  END
> <VM2 Rank>
157

> <Conf_Id>
167

> <Probability>
0.00

> <Sum Probability>
99.92

> <Delta G>
4.644

> <G>
38.346

> <E>
0.336

> <-TS>
38.010

> <U+W>
-23.808

> <U>
28.617

> <W>
-52.425

> <W(PB)>
-54.855

> <W(SA)>
2.430

> <Valence>
6.762

> <Coulomb>
20.675

> <VdW>
1.180

> <VdW6>
-10.633

> <VdW12>
11.813

> <Bond>
0.337

> <Angle>
2.592

> <Pdih>
3.833

> <Idih>
0.000

> <Tether>
0.000

$$$$
VeraChem MOL file


 29 28  0  0  0  0  0  0  0  0999 V2000     
   20.0593   17.8967   20.6452 C   0  0  0  0  0  0  0  0  0  0  0  0
   19.8690   17.4679   19.6529 H   0  0  0  0  0  0  0  0  0  0  0  0
   21.0473   17.5494   20.9737 H   0  0  0  0  0  0  0  0  0  0  0  0
   19.3081   17.4858   21.3274 H   0  0  0  0  0  0  0  0  0  0  0  0
   20.0065   19.4405   20.5821 C   0  0  0  0  0  0  0  0  0  0  0  0
   19.0138   19.7738   20.2492 H   0  0  0  0  0  0  0  0  0  0  0  0
   20.7104   19.7672   19.8038 H   0  0  0  0  0  0  0  0  0  0  0  0
   20.3928   20.1416   21.9105 C   0  0  0  0  0  0  0  0  0  0  0  0
   21.1718   19.5724   22.4344 H   0  0  0  0  0  0  0  0  0  0  0  0
   20.8613   21.1017   21.6534 H   0  0  0  0  0  0  0  0  0  0  0  0
   19.2034   20.4569   22.8575 C   0  0  0  0  0  0  0  0  0  0  0  0
   18.4649   21.0587   22.3103 H   0  0  0  0  0  0  0  0  0  0  0  0
   19.5653   21.1073   23.6648 H   0  0  0  0  0  0  0  0  0  0  0  0
   18.4825   19.2332   23.4805 C   0  0  0  0  0  0  0  0  0  0  0  0
   17.6734   19.5964   24.1281 H   0  0  0  0  0  0  0  0  0  0  0  0
   17.9786   18.6643   22.6895 H   0  0  0  0  0  0  0  0  0  0  0  0
   19.4002   18.2835   24.2964 C   0  0  0  0  0  0  0  0  0  0  0  0
   20.1129   17.7976   23.6189 H   0  0  0  0  0  0  0  0  0  0  0  0
   18.7901   17.4755   24.7213 H   0  0  0  0  0  0  0  0  0  0  0  0
   20.1828   18.9834   25.4291 C   0  0  2  0  0  0  0  0  0  0  0  0
   20.7835   19.7843   24.9878 H   0  0  0  0  0  0  0  0  0  0  0  0
   21.1353   17.9912   26.1145 C   0  0  0  0  0  0  0  0  0  0  0  0
   20.5817   17.1653   26.5785 H   0  0  0  0  0  0  0  0  0  0  0  0
   21.8411   17.5655   25.3904 H   0  0  0  0  0  0  0  0  0  0  0  0
   21.7209   18.4917   26.8954 H   0  0  0  0  0  0  0  0  0  0  0  0
   19.2733   19.6288   26.4382 N   0  3  0  0  0  0  0  0  0  0  0  0
   19.8051   20.1149   27.1657 H   0  0  0  0  0  0  0  0  0  0  0  0
   18.6806   18.9354   26.9022 H   0  0  0  0  0  0  0  0  0  0  0  0
   18.6566   20.3154   25.9956 H   0  0  0  0  0  0  0  0  0  0  0  0
  1  2  1  0  0  0  0
  1  3  1  0  0  0  0
  1  4  1  0  0  0  0
  1  5  1  0  0  0  0
  5  6  1  0  0  0  0
  5  7  1  0  0  0  0
  5  8  1  0  0  0  0
  8  9  1  0  0  0  0
  8 10  1  0  0  0  0
  8 11  1  0  0  0  0
 11 12  1  0  0  0  0
 11 13  1  0  0  0  0
 11 14  1  0  0  0  0
 14 15  1  0  0  0  0
 14 16  1  0  0  0  0
 14 17  1  0  0  0  0
 17 18  1  0  0  0  0
 17 19  1  0  0  0  0
 17 20  1  0  0  0  0
 20 21  1  0  0  0  0
 20 22  1  0  0  0  0
 22 23  1  0  0  0  0
 22 24  1  0  0  0  0
 22 25  1  0  0  0  0
 20 26  1  0  0  0  0
 26 27  1  0  0  0  0
 26 28  1  0  0  0  0
 26 29  1  0  0  0  0
M  END
> <VM2 Rank>
158

> <Conf_Id>
988

> <Probability>
0.00

> <Sum Probability>
99.93

> <Delta G>
4.644

> <G>
38.346

> <E>
-0.137

> <-TS>
38.484

> <U+W>
-24.282

> <U>
28.185

> <W>
-52.467

> <W(PB)>
-54.850

> <W(SA)>
2.383

> <Valence>
7.006

> <Coulomb>
20.604

> <VdW>
0.575

> <VdW6>
-11.911

> <VdW12>
12.487

> <Bond>
0.358

> <Angle>
2.605

> <Pdih>
4.043

> <Idih>
0.000

> <Tether>
0.000

$$$$
VeraChem MOL file


 29 28  0  0  0  0  0  0  0  0999 V2000     
   20.3195   19.8749   19.8510 C   0  0  0  0  0  0  0  0  0  0  0  0
   21.0218   20.2916   20.5836 H   0  0  0  0  0  0  0  0  0  0  0  0
   20.8131   19.0402   19.3367 H   0  0  0  0  0  0  0  0  0  0  0  0
   20.1161   20.6556   19.1068 H   0  0  0  0  0  0  0  0  0  0  0  0
   19.0072   19.4138   20.5243 C   0  0  0  0  0  0  0  0  0  0  0  0
   18.2946   19.1160   19.7425 H   0  0  0  0  0  0  0  0  0  0  0  0
   18.5418   20.2595   21.0479 H   0  0  0  0  0  0  0  0  0  0  0  0
   19.1991   18.2215   21.4959 C   0  0  0  0  0  0  0  0  0  0  0  0
   18.2193   17.9347   21.9017 H   0  0  0  0  0  0  0  0  0  0  0  0
   19.5536   17.3525   20.9248 H   0  0  0  0  0  0  0  0  0  0  0  0
   20.1764   18.4749   22.6727 C   0  0  0  0  0  0  0  0  0  0  0  0
   21.1876   18.6549   22.2845 H   0  0  0  0  0  0  0  0  0  0  0  0
   20.2453   17.5526   23.2613 H   0  0  0  0  0  0  0  0  0  0  0  0
   19.7515   19.6543   23.5847 C   0  0  0  0  0  0  0  0  0  0  0  0
   19.8057   20.5815   22.9992 H   0  0  0  0  0  0  0  0  0  0  0  0
   18.7005   19.5442   23.8810 H   0  0  0  0  0  0  0  0  0  0  0  0
   20.6594   19.8249   24.8346 C   0  0  0  0  0  0  0  0  0  0  0  0
   20.7753   20.8987   25.0326 H   0  0  0  0  0  0  0  0  0  0  0  0
   21.6717   19.4614   24.6137 H   0  0  0  0  0  0  0  0  0  0  0  0
   20.1489   19.1653   26.1398 C   0  0  2  0  0  0  0  0  0  0  0  0
   20.8950   19.3662   26.9149 H   0  0  0  0  0  0  0  0  0  0  0  0
   20.0046   17.6395   26.0223 C   0  0  0  0  0  0  0  0  0  0  0  0
   20.9354   17.1865   25.6594 H   0  0  0  0  0  0  0  0  0  0  0  0
   19.7807   17.1993   27.0017 H   0  0  0  0  0  0  0  0  0  0  0  0
   19.1925   17.3641   25.3388 H   0  0  0  0  0  0  0  0  0  0  0  0
   18.8694   19.7870   26.6287 N   0  3  0  0  0  0  0  0  0  0  0  0
   18.1066   19.6398   25.9633 H   0  0  0  0  0  0  0  0  0  0  0  0
   18.9704   20.7971   26.7636 H   0  0  0  0  0  0  0  0  0  0  0  0
   18.5777   19.3862   27.5247 H   0  0  0  0  0  0  0  0  0  0  0  0
  1  2  1  0  0  0  0
  1  3  1  0  0  0  0
  1  4  1  0  0  0  0
  1  5  1  0  0  0  0
  5  6  1  0  0  0  0
  5  7  1  0  0  0  0
  5  8  1  0  0  0  0
  8  9  1  0  0  0  0
  8 10  1  0  0  0  0
  8 11  1  0  0  0  0
 11 12  1  0  0  0  0
 11 13  1  0  0  0  0
 11 14  1  0  0  0  0
 14 15  1  0  0  0  0
 14 16  1  0  0  0  0
 14 17  1  0  0  0  0
 17 18  1  0  0  0  0
 17 19  1  0  0  0  0
 17 20  1  0  0  0  0
 20 21  1  0  0  0  0
 20 22  1  0  0  0  0
 22 23  1  0  0  0  0
 22 24  1  0  0  0  0
 22 25  1  0  0  0  0
 20 26  1  0  0  0  0
 26 27  1  0  0  0  0
 26 28  1  0  0  0  0
 26 29  1  0  0  0  0
M  END
> <VM2 Rank>
159

> <Conf_Id>
911

> <Probability>
0.00

> <Sum Probability>
99.93

> <Delta G>
4.655

> <G>
38.358

> <E>
0.137

> <-TS>
38.220

> <U+W>
-24.007

> <U>
28.527

> <W>
-52.534

> <W(PB)>
-54.949

> <W(SA)>
2.416

> <Valence>
7.259

> <Coulomb>
20.050

> <VdW>
1.218

> <VdW6>
-11.104

> <VdW12>
12.323

> <Bond>
0.363

> <Angle>
2.393

> <Pdih>
4.503

> <Idih>
0.000

> <Tether>
0.000

$$$$
VeraChem MOL file


 29 28  0  0  0  0  0  0  0  0999 V2000     
   18.4621   18.9109   19.9567 C   0  0  0  0  0  0  0  0  0  0  0  0
   17.5856   18.5905   20.5349 H   0  0  0  0  0  0  0  0  0  0  0  0
   18.2350   19.8841   19.5022 H   0  0  0  0  0  0  0  0  0  0  0  0
   18.6136   18.1873   19.1453 H   0  0  0  0  0  0  0  0  0  0  0  0
   19.7161   18.9956   20.8522 C   0  0  0  0  0  0  0  0  0  0  0  0
   20.5815   19.2879   20.2414 H   0  0  0  0  0  0  0  0  0  0  0  0
   19.9337   17.9980   21.2565 H   0  0  0  0  0  0  0  0  0  0  0  0
   19.5254   20.0079   22.0057 C   0  0  0  0  0  0  0  0  0  0  0  0
   19.2463   20.9821   21.5808 H   0  0  0  0  0  0  0  0  0  0  0  0
   18.6785   19.6964   22.6295 H   0  0  0  0  0  0  0  0  0  0  0  0
   20.7961   20.1991   22.8740 C   0  0  0  0  0  0  0  0  0  0  0  0
   20.6195   20.9870   23.6160 H   0  0  0  0  0  0  0  0  0  0  0  0
   21.5996   20.5886   22.2336 H   0  0  0  0  0  0  0  0  0  0  0  0
   21.3169   18.9193   23.5815 C   0  0  0  0  0  0  0  0  0  0  0  0
   21.6952   18.2255   22.8189 H   0  0  0  0  0  0  0  0  0  0  0  0
   22.1929   19.1862   24.1886 H   0  0  0  0  0  0  0  0  0  0  0  0
   20.3021   18.1565   24.4771 C   0  0  0  0  0  0  0  0  0  0  0  0
   20.7905   17.2230   24.7870 H   0  0  0  0  0  0  0  0  0  0  0  0
   19.4233   17.8485   23.8969 H   0  0  0  0  0  0  0  0  0  0  0  0
   19.8640   18.9186   25.7500 C   0  0  2  0  0  0  0  0  0  0  0  0
   20.7470   19.3976   26.1839 H   0  0  0  0  0  0  0  0  0  0  0  0
   19.2877   17.9411   26.7874 C   0  0  0  0  0  0  0  0  0  0  0  0
   18.9931   18.4727   27.7007 H   0  0  0  0  0  0  0  0  0  0  0  0
   18.4052   17.4206   26.3946 H   0  0  0  0  0  0  0  0  0  0  0  0
   20.0324   17.1864   27.0695 H   0  0  0  0  0  0  0  0  0  0  0  0
   18.8657   20.0070   25.4694 N   0  3  0  0  0  0  0  0  0  0  0  0
   18.6491   20.5429   26.3148 H   0  0  0  0  0  0  0  0  0  0  0  0
   17.9861   19.6205   25.1172 H   0  0  0  0  0  0  0  0  0  0  0  0
   19.2198   20.6612   24.7674 H   0  0  0  0  0  0  0  0  0  0  0  0
  1  2  1  0  0  0  0
  1  3  1  0  0  0  0
  1  4  1  0  0  0  0
  1  5  1  0  0  0  0
  5  6  1  0  0  0  0
  5  7  1  0  0  0  0
  5  8  1  0  0  0  0
  8  9  1  0  0  0  0
  8 10  1  0  0  0  0
  8 11  1  0  0  0  0
 11 12  1  0  0  0  0
 11 13  1  0  0  0  0
 11 14  1  0  0  0  0
 14 15  1  0  0  0  0
 14 16  1  0  0  0  0
 14 17  1  0  0  0  0
 17 18  1  0  0  0  0
 17 19  1  0  0  0  0
 17 20  1  0  0  0  0
 20 21  1  0  0  0  0
 20 22  1  0  0  0  0
 22 23  1  0  0  0  0
 22 24  1  0  0  0  0
 22 25  1  0  0  0  0
 20 26  1  0  0  0  0
 26 27  1  0  0  0  0
 26 28  1  0  0  0  0
 26 29  1  0  0  0  0
M  END
> <VM2 Rank>
160

> <Conf_Id>
1497

> <Probability>
0.00

> <Sum Probability>
99.94

> <Delta G>
4.680

> <G>
38.383

> <E>
0.127

> <-TS>
38.255

> <U+W>
-24.017

> <U>
28.175

> <W>
-52.192

> <W(PB)>
-54.622

> <W(SA)>
2.430

> <Valence>
5.874

> <Coulomb>
21.577

> <VdW>
0.725

> <VdW6>
-11.267

> <VdW12>
11.991

> <Bond>
0.343

> <Angle>
2.489

> <Pdih>
3.042

> <Idih>
0.000

> <Tether>
0.000

$$$$
VeraChem MOL file


 29 28  0  0  0  0  0  0  0  0999 V2000     
   18.2679   19.6431   19.9150 C   0  0  0  0  0  0  0  0  0  0  0  0
   18.4219   18.6824   19.4066 H   0  0  0  0  0  0  0  0  0  0  0  0
   17.3646   19.5617   20.5336 H   0  0  0  0  0  0  0  0  0  0  0  0
   18.0827   20.4050   19.1468 H   0  0  0  0  0  0  0  0  0  0  0  0
   19.4951   20.0202   20.7714 C   0  0  0  0  0  0  0  0  0  0  0  0
   19.3251   20.9997   21.2396 H   0  0  0  0  0  0  0  0  0  0  0  0
   20.3741   20.1285   20.1205 H   0  0  0  0  0  0  0  0  0  0  0  0
   19.7793   18.9615   21.8594 C   0  0  0  0  0  0  0  0  0  0  0  0
   18.8882   18.8457   22.4885 H   0  0  0  0  0  0  0  0  0  0  0  0
   19.9563   17.9871   21.3835 H   0  0  0  0  0  0  0  0  0  0  0  0
   21.0070   19.3408   22.7222 C   0  0  0  0  0  0  0  0  0  0  0  0
   20.8624   20.3227   23.1888 H   0  0  0  0  0  0  0  0  0  0  0  0
   21.8764   19.4588   22.0604 H   0  0  0  0  0  0  0  0  0  0  0  0
   21.3631   18.2828   23.7976 C   0  0  0  0  0  0  0  0  0  0  0  0
   21.6477   17.3519   23.2880 H   0  0  0  0  0  0  0  0  0  0  0  0
   22.2643   18.6157   24.3309 H   0  0  0  0  0  0  0  0  0  0  0  0
   20.2610   17.9512   24.8415 C   0  0  0  0  0  0  0  0  0  0  0  0
   20.6591   17.1521   25.4810 H   0  0  0  0  0  0  0  0  0  0  0  0
   19.3779   17.5211   24.3526 H   0  0  0  0  0  0  0  0  0  0  0  0
   19.8468   19.1386   25.7425 C   0  0  2  0  0  0  0  0  0  0  0  0
   20.7470   19.7056   25.9988 H   0  0  0  0  0  0  0  0  0  0  0  0
   19.2115   18.6279   27.0462 C   0  0  0  0  0  0  0  0  0  0  0  0
   18.9309   19.4660   27.6961 H   0  0  0  0  0  0  0  0  0  0  0  0
   18.3103   18.0358   26.8429 H   0  0  0  0  0  0  0  0  0  0  0  0
   19.9159   17.9983   27.6039 H   0  0  0  0  0  0  0  0  0  0  0  0
   18.9042   20.0899   25.0581 N   0  3  0  0  0  0  0  0  0  0  0  0
   18.7140   20.9114   25.6394 H   0  0  0  0  0  0  0  0  0  0  0  0
   18.0064   19.6411   24.8585 H   0  0  0  0  0  0  0  0  0  0  0  0
   19.2905   20.4173   24.1689 H   0  0  0  0  0  0  0  0  0  0  0  0
  1  2  1  0  0  0  0
  1  3  1  0  0  0  0
  1  4  1  0  0  0  0
  1  5  1  0  0  0  0
  5  6  1  0  0  0  0
  5  7  1  0  0  0  0
  5  8  1  0  0  0  0
  8  9  1  0  0  0  0
  8 10  1  0  0  0  0
  8 11  1  0  0  0  0
 11 12  1  0  0  0  0
 11 13  1  0  0  0  0
 11 14  1  0  0  0  0
 14 15  1  0  0  0  0
 14 16  1  0  0  0  0
 14 17  1  0  0  0  0
 17 18  1  0  0  0  0
 17 19  1  0  0  0  0
 17 20  1  0  0  0  0
 20 21  1  0  0  0  0
 20 22  1  0  0  0  0
 22 23  1  0  0  0  0
 22 24  1  0  0  0  0
 22 25  1  0  0  0  0
 20 26  1  0  0  0  0
 26 27  1  0  0  0  0
 26 28  1  0  0  0  0
 26 29  1  0  0  0  0
M  END
> <VM2 Rank>
161

> <Conf_Id>
549

> <Probability>
0.00

> <Sum Probability>
99.94

> <Delta G>
4.701

> <G>
38.403

> <E>
0.345

> <-TS>
38.058

> <U+W>
-23.799

> <U>
27.762

> <W>
-51.561

> <W(PB)>
-54.038

> <W(SA)>
2.477

> <Valence>
5.446

> <Coulomb>
21.561

> <VdW>
0.755

> <VdW6>
-10.491

> <VdW12>
11.246

> <Bond>
0.290

> <Angle>
2.160

> <Pdih>
2.996

> <Idih>
0.000

> <Tether>
0.000

$$$$
VeraChem MOL file


 29 28  0  0  0  0  0  0  0  0999 V2000     
   20.6124   20.4431   20.5831 C   0  0  0  0  0  0  0  0  0  0  0  0
   20.2541   21.1848   21.3085 H   0  0  0  0  0  0  0  0  0  0  0  0
   21.4701   19.9150   21.0176 H   0  0  0  0  0  0  0  0  0  0  0  0
   20.9738   20.9844   19.6992 H   0  0  0  0  0  0  0  0  0  0  0  0
   19.4883   19.4594   20.1913 C   0  0  0  0  0  0  0  0  0  0  0  0
   19.8915   18.6964   19.5109 H   0  0  0  0  0  0  0  0  0  0  0  0
   18.7261   20.0057   19.6183 H   0  0  0  0  0  0  0  0  0  0  0  0
   18.7984   18.7706   21.3961 C   0  0  0  0  0  0  0  0  0  0  0  0
   18.3090   19.5263   22.0229 H   0  0  0  0  0  0  0  0  0  0  0  0
   17.9866   18.1459   20.9988 H   0  0  0  0  0  0  0  0  0  0  0  0
   19.7335   17.8641   22.2426 C   0  0  0  0  0  0  0  0  0  0  0  0
   20.5341   17.4698   21.6017 H   0  0  0  0  0  0  0  0  0  0  0  0
   19.1685   16.9842   22.5797 H   0  0  0  0  0  0  0  0  0  0  0  0
   20.3576   18.5502   23.4856 C   0  0  0  0  0  0  0  0  0  0  0  0
   21.1784   17.9153   23.8433 H   0  0  0  0  0  0  0  0  0  0  0  0
   20.8090   19.5100   23.2073 H   0  0  0  0  0  0  0  0  0  0  0  0
   19.3407   18.7661   24.6370 C   0  0  0  0  0  0  0  0  0  0  0  0
   18.9544   17.7953   24.9746 H   0  0  0  0  0  0  0  0  0  0  0  0
   18.4777   19.3259   24.2575 H   0  0  0  0  0  0  0  0  0  0  0  0
   19.9223   19.5398   25.8425 C   0  0  2  0  0  0  0  0  0  0  0  0
   20.3394   20.4828   25.4760 H   0  0  0  0  0  0  0  0  0  0  0  0
   21.0402   18.7560   26.5534 C   0  0  0  0  0  0  0  0  0  0  0  0
   20.6871   17.7703   26.8812 H   0  0  0  0  0  0  0  0  0  0  0  0
   21.9058   18.6109   25.8969 H   0  0  0  0  0  0  0  0  0  0  0  0
   21.3927   19.3020   27.4371 H   0  0  0  0  0  0  0  0  0  0  0  0
   18.8425   19.9067   26.8224 N   0  3  0  0  0  0  0  0  0  0  0  0
   18.1080   20.4680   26.3817 H   0  0  0  0  0  0  0  0  0  0  0  0
   19.2165   20.4535   27.6033 H   0  0  0  0  0  0  0  0  0  0  0  0
   18.3980   19.0738   27.2179 H   0  0  0  0  0  0  0  0  0  0  0  0
  1  2  1  0  0  0  0
  1  3  1  0  0  0  0
  1  4  1  0  0  0  0
  1  5  1  0  0  0  0
  5  6  1  0  0  0  0
  5  7  1  0  0  0  0
  5  8  1  0  0  0  0
  8  9  1  0  0  0  0
  8 10  1  0  0  0  0
  8 11  1  0  0  0  0
 11 12  1  0  0  0  0
 11 13  1  0  0  0  0
 11 14  1  0  0  0  0
 14 15  1  0  0  0  0
 14 16  1  0  0  0  0
 14 17  1  0  0  0  0
 17 18  1  0  0  0  0
 17 19  1  0  0  0  0
 17 20  1  0  0  0  0
 20 21  1  0  0  0  0
 20 22  1  0  0  0  0
 22 23  1  0  0  0  0
 22 24  1  0  0  0  0
 22 25  1  0  0  0  0
 20 26  1  0  0  0  0
 26 27  1  0  0  0  0
 26 28  1  0  0  0  0
 26 29  1  0  0  0  0
M  END
> <VM2 Rank>
162

> <Conf_Id>
182

> <Probability>
0.00

> <Sum Probability>
99.94

> <Delta G>
4.729

> <G>
38.432

> <E>
0.585

> <-TS>
37.847

> <U+W>
-23.559

> <U>
28.875

> <W>
-52.434

> <W(PB)>
-54.885

> <W(SA)>
2.450

> <Valence>
7.510

> <Coulomb>
19.951

> <VdW>
1.414

> <VdW6>
-10.241

> <VdW12>
11.655

> <Bond>
0.342

> <Angle>
2.142

> <Pdih>
5.026

> <Idih>
0.000

> <Tether>
0.000

$$$$
VeraChem MOL file


 29 28  0  0  0  0  0  0  0  0999 V2000     
   19.0690   19.7355   19.3830 C   0  0  0  0  0  0  0  0  0  0  0  0
   18.6684   18.7949   18.9831 H   0  0  0  0  0  0  0  0  0  0  0  0
   18.4133   20.5499   19.0488 H   0  0  0  0  0  0  0  0  0  0  0  0
   20.0613   19.8993   18.9427 H   0  0  0  0  0  0  0  0  0  0  0  0
   19.1462   19.6956   20.9238 C   0  0  0  0  0  0  0  0  0  0  0  0
   18.1362   19.5606   21.3353 H   0  0  0  0  0  0  0  0  0  0  0  0
   19.5122   20.6649   21.2876 H   0  0  0  0  0  0  0  0  0  0  0  0
   20.0688   18.5568   21.4186 C   0  0  0  0  0  0  0  0  0  0  0  0
   19.7278   17.6064   20.9853 H   0  0  0  0  0  0  0  0  0  0  0  0
   21.0890   18.7173   21.0436 H   0  0  0  0  0  0  0  0  0  0  0  0
   20.0986   18.4117   22.9598 C   0  0  0  0  0  0  0  0  0  0  0  0
   20.6938   17.5242   23.2148 H   0  0  0  0  0  0  0  0  0  0  0  0
   19.0782   18.2231   23.3147 H   0  0  0  0  0  0  0  0  0  0  0  0
   20.6929   19.6466   23.6804 C   0  0  0  0  0  0  0  0  0  0  0  0
   21.6207   19.9360   23.1681 H   0  0  0  0  0  0  0  0  0  0  0  0
   20.0163   20.5044   23.5761 H   0  0  0  0  0  0  0  0  0  0  0  0
   21.0322   19.4266   25.1821 C   0  0  0  0  0  0  0  0  0  0  0  0
   21.5007   20.3494   25.5485 H   0  0  0  0  0  0  0  0  0  0  0  0
   21.8071   18.6543   25.2756 H   0  0  0  0  0  0  0  0  0  0  0  0
   19.8562   19.0998   26.1388 C   0  0  2  0  0  0  0  0  0  0  0  0
   20.1728   19.4088   27.1398 H   0  0  0  0  0  0  0  0  0  0  0  0
   19.5596   17.5913   26.2250 C   0  0  0  0  0  0  0  0  0  0  0  0
   19.1642   17.1877   25.2884 H   0  0  0  0  0  0  0  0  0  0  0  0
   20.4670   17.0307   26.4814 H   0  0  0  0  0  0  0  0  0  0  0  0
   18.8193   17.3934   27.0099 H   0  0  0  0  0  0  0  0  0  0  0  0
   18.6125   19.8921   25.8425 N   0  3  0  0  0  0  0  0  0  0  0  0
   18.2500   19.6718   24.9116 H   0  0  0  0  0  0  0  0  0  0  0  0
   18.7959   20.8992   25.8727 H   0  0  0  0  0  0  0  0  0  0  0  0
   17.8712   19.6942   26.5207 H   0  0  0  0  0  0  0  0  0  0  0  0
  1  2  1  0  0  0  0
  1  3  1  0  0  0  0
  1  4  1  0  0  0  0
  1  5  1  0  0  0  0
  5  6  1  0  0  0  0
  5  7  1  0  0  0  0
  5  8  1  0  0  0  0
  8  9  1  0  0  0  0
  8 10  1  0  0  0  0
  8 11  1  0  0  0  0
 11 12  1  0  0  0  0
 11 13  1  0  0  0  0
 11 14  1  0  0  0  0
 14 15  1  0  0  0  0
 14 16  1  0  0  0  0
 14 17  1  0  0  0  0
 17 18  1  0  0  0  0
 17 19  1  0  0  0  0
 17 20  1  0  0  0  0
 20 21  1  0  0  0  0
 20 22  1  0  0  0  0
 22 23  1  0  0  0  0
 22 24  1  0  0  0  0
 22 25  1  0  0  0  0
 20 26  1  0  0  0  0
 26 27  1  0  0  0  0
 26 28  1  0  0  0  0
 26 29  1  0  0  0  0
M  END
> <VM2 Rank>
163

> <Conf_Id>
1686

> <Probability>
0.00

> <Sum Probability>
99.95

> <Delta G>
4.782

> <G>
38.484

> <E>
0.471

> <-TS>
38.013

> <U+W>
-23.673

> <U>
28.749

> <W>
-52.422

> <W(PB)>
-54.870

> <W(SA)>
2.448

> <Valence>
6.743

> <Coulomb>
20.842

> <VdW>
1.164

> <VdW6>
-10.610

> <VdW12>
11.774

> <Bond>
0.335

> <Angle>
2.545

> <Pdih>
3.863

> <Idih>
0.000

> <Tether>
0.000

$$$$
VeraChem MOL file


 29 28  0  0  0  0  0  0  0  0999 V2000     
   19.2005   20.3519   20.4980 C   0  0  0  0  0  0  0  0  0  0  0  0
   18.2809   19.7831   20.6839 H   0  0  0  0  0  0  0  0  0  0  0  0
   18.9134   21.3965   20.3213 H   0  0  0  0  0  0  0  0  0  0  0  0
   19.6616   19.9697   19.5781 H   0  0  0  0  0  0  0  0  0  0  0  0
   20.1773   20.2532   21.6910 C   0  0  0  0  0  0  0  0  0  0  0  0
   19.6858   20.6260   22.5974 H   0  0  0  0  0  0  0  0  0  0  0  0
   21.0263   20.9269   21.5093 H   0  0  0  0  0  0  0  0  0  0  0  0
   20.7240   18.8211   21.9203 C   0  0  0  0  0  0  0  0  0  0  0  0
   21.2834   18.5147   21.0258 H   0  0  0  0  0  0  0  0  0  0  0  0
   21.4632   18.8355   22.7310 H   0  0  0  0  0  0  0  0  0  0  0  0
   19.6492   17.7424   22.2162 C   0  0  0  0  0  0  0  0  0  0  0  0
   20.1523   16.7738   22.3412 H   0  0  0  0  0  0  0  0  0  0  0  0
   19.0105   17.6232   21.3310 H   0  0  0  0  0  0  0  0  0  0  0  0
   18.7429   17.9969   23.4507 C   0  0  0  0  0  0  0  0  0  0  0  0
   18.1654   18.9205   23.3214 H   0  0  0  0  0  0  0  0  0  0  0  0
   17.9958   17.1916   23.4744 H   0  0  0  0  0  0  0  0  0  0  0  0
   19.4877   17.9863   24.8135 C   0  0  0  0  0  0  0  0  0  0  0  0
   20.2693   17.2155   24.7886 H   0  0  0  0  0  0  0  0  0  0  0  0
   18.7852   17.6751   25.5982 H   0  0  0  0  0  0  0  0  0  0  0  0
   20.1030   19.3430   25.2238 C   0  0  2  0  0  0  0  0  0  0  0  0
   20.7235   19.7122   24.4042 H   0  0  0  0  0  0  0  0  0  0  0  0
   20.9983   19.1710   26.4609 C   0  0  0  0  0  0  0  0  0  0  0  0
   21.8071   18.4572   26.2602 H   0  0  0  0  0  0  0  0  0  0  0  0
   21.4598   20.1256   26.7422 H   0  0  0  0  0  0  0  0  0  0  0  0
   20.4229   18.8029   27.3196 H   0  0  0  0  0  0  0  0  0  0  0  0
   19.0532   20.3902   25.4795 N   0  3  0  0  0  0  0  0  0  0  0  0
   18.4423   20.1209   26.2555 H   0  0  0  0  0  0  0  0  0  0  0  0
   18.4606   20.5357   24.6581 H   0  0  0  0  0  0  0  0  0  0  0  0
   19.4746   21.2917   25.7213 H   0  0  0  0  0  0  0  0  0  0  0  0
  1  2  1  0  0  0  0
  1  3  1  0  0  0  0
  1  4  1  0  0  0  0
  1  5  1  0  0  0  0
  5  6  1  0  0  0  0
  5  7  1  0  0  0  0
  5  8  1  0  0  0  0
  8  9  1  0  0  0  0
  8 10  1  0  0  0  0
  8 11  1  0  0  0  0
 11 12  1  0  0  0  0
 11 13  1  0  0  0  0
 11 14  1  0  0  0  0
 14 15  1  0  0  0  0
 14 16  1  0  0  0  0
 14 17  1  0  0  0  0
 17 18  1  0  0  0  0
 17 19  1  0  0  0  0
 17 20  1  0  0  0  0
 20 21  1  0  0  0  0
 20 22  1  0  0  0  0
 22 23  1  0  0  0  0
 22 24  1  0  0  0  0
 22 25  1  0  0  0  0
 20 26  1  0  0  0  0
 26 27  1  0  0  0  0
 26 28  1  0  0  0  0
 26 29  1  0  0  0  0
M  END
> <VM2 Rank>
164

> <Conf_Id>
626

> <Probability>
0.00

> <Sum Probability>
99.95

> <Delta G>
4.785

> <G>
38.487

> <E>
-0.165

> <-TS>
38.652

> <U+W>
-24.309

> <U>
28.628

> <W>
-52.937

> <W(PB)>
-55.336

> <W(SA)>
2.399

> <Valence>
6.751

> <Coulomb>
21.512

> <VdW>
0.364

> <VdW6>
-12.196

> <VdW12>
12.560

> <Bond>
0.349

> <Angle>
2.626

> <Pdih>
3.776

> <Idih>
0.000

> <Tether>
0.000

$$$$
VeraChem MOL file


 29 28  0  0  0  0  0  0  0  0999 V2000     
   20.7271   19.2842   19.8199 C   0  0  0  0  0  0  0  0  0  0  0  0
   21.5831   19.8348   19.4088 H   0  0  0  0  0  0  0  0  0  0  0  0
   21.0995   18.3188   20.1832 H   0  0  0  0  0  0  0  0  0  0  0  0
   20.0264   19.0926   18.9969 H   0  0  0  0  0  0  0  0  0  0  0  0
   20.0510   20.0990   20.9464 C   0  0  0  0  0  0  0  0  0  0  0  0
   19.7807   21.0866   20.5473 H   0  0  0  0  0  0  0  0  0  0  0  0
   20.7746   20.2829   21.7496 H   0  0  0  0  0  0  0  0  0  0  0  0
   18.7703   19.4246   21.5024 C   0  0  0  0  0  0  0  0  0  0  0  0
   18.2046   20.1491   22.1041 H   0  0  0  0  0  0  0  0  0  0  0  0
   18.1176   19.1761   20.6542 H   0  0  0  0  0  0  0  0  0  0  0  0
   19.0182   18.1384   22.3369 C   0  0  0  0  0  0  0  0  0  0  0  0
   19.9317   17.6275   22.0083 H   0  0  0  0  0  0  0  0  0  0  0  0
   18.1989   17.4362   22.1299 H   0  0  0  0  0  0  0  0  0  0  0  0
   19.0641   18.3605   23.8707 C   0  0  0  0  0  0  0  0  0  0  0  0
   18.1016   18.7723   24.2020 H   0  0  0  0  0  0  0  0  0  0  0  0
   19.1585   17.3766   24.3473 H   0  0  0  0  0  0  0  0  0  0  0  0
   20.2210   19.2817   24.3415 C   0  0  0  0  0  0  0  0  0  0  0  0
   20.0697   20.2882   23.9331 H   0  0  0  0  0  0  0  0  0  0  0  0
   21.1699   18.9187   23.9252 H   0  0  0  0  0  0  0  0  0  0  0  0
   20.3664   19.4128   25.8761 C   0  0  2  0  0  0  0  0  0  0  0  0
   21.1599   20.1424   26.0652 H   0  0  0  0  0  0  0  0  0  0  0  0
   20.7901   18.0885   26.5353 C   0  0  0  0  0  0  0  0  0  0  0  0
   21.0240   18.2465   27.5953 H   0  0  0  0  0  0  0  0  0  0  0  0
   19.9980   17.3328   26.4777 H   0  0  0  0  0  0  0  0  0  0  0  0
   21.6886   17.6830   26.0539 H   0  0  0  0  0  0  0  0  0  0  0  0
   19.1278   19.9662   26.5249 N   0  3  0  0  0  0  0  0  0  0  0  0
   19.2616   20.1031   27.5309 H   0  0  0  0  0  0  0  0  0  0  0  0
   18.3325   19.3341   26.4038 H   0  0  0  0  0  0  0  0  0  0  0  0
   18.8667   20.8717   26.1243 H   0  0  0  0  0  0  0  0  0  0  0  0
  1  2  1  0  0  0  0
  1  3  1  0  0  0  0
  1  4  1  0  0  0  0
  1  5  1  0  0  0  0
  5  6  1  0  0  0  0
  5  7  1  0  0  0  0
  5  8  1  0  0  0  0
  8  9  1  0  0  0  0
  8 10  1  0  0  0  0
  8 11  1  0  0  0  0
 11 12  1  0  0  0  0
 11 13  1  0  0  0  0
 11 14  1  0  0  0  0
 14 15  1  0  0  0  0
 14 16  1  0  0  0  0
 14 17  1  0  0  0  0
 17 18  1  0  0  0  0
 17 19  1  0  0  0  0
 17 20  1  0  0  0  0
 20 21  1  0  0  0  0
 20 22  1  0  0  0  0
 22 23  1  0  0  0  0
 22 24  1  0  0  0  0
 22 25  1  0  0  0  0
 20 26  1  0  0  0  0
 26 27  1  0  0  0  0
 26 28  1  0  0  0  0
 26 29  1  0  0  0  0
M  END
> <VM2 Rank>
165

> <Conf_Id>
1356

> <Probability>
0.00

> <Sum Probability>
99.95

> <Delta G>
4.786

> <G>
38.488

> <E>
0.546

> <-TS>
37.942

> <U+W>
-23.599

> <U>
28.997

> <W>
-52.595

> <W(PB)>
-55.026

> <W(SA)>
2.431

> <Valence>
7.517

> <Coulomb>
20.090

> <VdW>
1.390

> <VdW6>
-10.733

> <VdW12>
12.123

> <Bond>
0.363

> <Angle>
2.272

> <Pdih>
4.882

> <Idih>
0.000

> <Tether>
0.000

$$$$
VeraChem MOL file


 29 28  0  0  0  0  0  0  0  0999 V2000     
   18.3815   19.9345   20.8097 C   0  0  0  0  0  0  0  0  0  0  0  0
   18.2069   19.4167   19.8577 H   0  0  0  0  0  0  0  0  0  0  0  0
   17.9216   19.3407   21.6085 H   0  0  0  0  0  0  0  0  0  0  0  0
   17.8578   20.8982   20.7681 H   0  0  0  0  0  0  0  0  0  0  0  0
   19.8931   20.1493   21.0518 C   0  0  0  0  0  0  0  0  0  0  0  0
   20.0563   20.6930   21.9911 H   0  0  0  0  0  0  0  0  0  0  0  0
   20.2835   20.8027   20.2592 H   0  0  0  0  0  0  0  0  0  0  0  0
   20.7067   18.8322   21.0459 C   0  0  0  0  0  0  0  0  0  0  0  0
   20.5743   18.3437   20.0706 H   0  0  0  0  0  0  0  0  0  0  0  0
   21.7757   19.0772   21.1118 H   0  0  0  0  0  0  0  0  0  0  0  0
   20.3572   17.8111   22.1621 C   0  0  0  0  0  0  0  0  0  0  0  0
   20.9522   16.9074   21.9710 H   0  0  0  0  0  0  0  0  0  0  0  0
   19.3104   17.4895   22.0829 H   0  0  0  0  0  0  0  0  0  0  0  0
   20.6743   18.2910   23.6031 C   0  0  0  0  0  0  0  0  0  0  0  0
   21.0352   17.4248   24.1729 H   0  0  0  0  0  0  0  0  0  0  0  0
   21.5029   19.0122   23.5863 H   0  0  0  0  0  0  0  0  0  0  0  0
   19.4502   18.8939   24.3403 C   0  0  0  0  0  0  0  0  0  0  0  0
   18.6727   18.1264   24.4500 H   0  0  0  0  0  0  0  0  0  0  0  0
   19.0116   19.6885   23.7280 H   0  0  0  0  0  0  0  0  0  0  0  0
   19.7904   19.4883   25.7261 C   0  0  2  0  0  0  0  0  0  0  0  0
   20.5952   20.2186   25.5978 H   0  0  0  0  0  0  0  0  0  0  0  0
   20.2624   18.4129   26.7212 C   0  0  0  0  0  0  0  0  0  0  0  0
   20.4414   18.8535   27.7097 H   0  0  0  0  0  0  0  0  0  0  0  0
   19.5129   17.6195   26.8331 H   0  0  0  0  0  0  0  0  0  0  0  0
   21.2035   17.9544   26.3965 H   0  0  0  0  0  0  0  0  0  0  0  0
   18.6203   20.2428   26.2939 N   0  3  0  0  0  0  0  0  0  0  0  0
   18.3162   20.9943   25.6682 H   0  0  0  0  0  0  0  0  0  0  0  0
   18.8537   20.6718   27.1941 H   0  0  0  0  0  0  0  0  0  0  0  0
   17.8177   19.6266   26.4484 H   0  0  0  0  0  0  0  0  0  0  0  0
  1  2  1  0  0  0  0
  1  3  1  0  0  0  0
  1  4  1  0  0  0  0
  1  5  1  0  0  0  0
  5  6  1  0  0  0  0
  5  7  1  0  0  0  0
  5  8  1  0  0  0  0
  8  9  1  0  0  0  0
  8 10  1  0  0  0  0
  8 11  1  0  0  0  0
 11 12  1  0  0  0  0
 11 13  1  0  0  0  0
 11 14  1  0  0  0  0
 14 15  1  0  0  0  0
 14 16  1  0  0  0  0
 14 17  1  0  0  0  0
 17 18  1  0  0  0  0
 17 19  1  0  0  0  0
 17 20  1  0  0  0  0
 20 21  1  0  0  0  0
 20 22  1  0  0  0  0
 22 23  1  0  0  0  0
 22 24  1  0  0  0  0
 22 25  1  0  0  0  0
 20 26  1  0  0  0  0
 26 27  1  0  0  0  0
 26 28  1  0  0  0  0
 26 29  1  0  0  0  0
M  END
> <VM2 Rank>
166

> <Conf_Id>
142

> <Probability>
0.00

> <Sum Probability>
99.96

> <Delta G>
4.796

> <G>
38.498

> <E>
0.265

> <-TS>
38.233

> <U+W>
-23.879

> <U>
28.814

> <W>
-52.693

> <W(PB)>
-55.133

> <W(SA)>
2.440

> <Valence>
7.405

> <Coulomb>
20.332

> <VdW>
1.077

> <VdW6>
-10.782

> <VdW12>
11.859

> <Bond>
0.335

> <Angle>
2.433

> <Pdih>
4.638

> <Idih>
0.000

> <Tether>
0.000

$$$$
VeraChem MOL file


 29 28  0  0  0  0  0  0  0  0999 V2000     
   18.9268   20.3918   19.8910 C   0  0  0  0  0  0  0  0  0  0  0  0
   18.6570   21.2924   20.4580 H   0  0  0  0  0  0  0  0  0  0  0  0
   19.8921   20.5729   19.4005 H   0  0  0  0  0  0  0  0  0  0  0  0
   18.1720   20.2485   19.1070 H   0  0  0  0  0  0  0  0  0  0  0  0
   18.9965   19.1559   20.8125 C   0  0  0  0  0  0  0  0  0  0  0  0
   19.2334   18.2665   20.2118 H   0  0  0  0  0  0  0  0  0  0  0  0
   18.0091   18.9808   21.2619 H   0  0  0  0  0  0  0  0  0  0  0  0
   20.0544   19.3312   21.9241 C   0  0  0  0  0  0  0  0  0  0  0  0
   21.0397   19.4983   21.4675 H   0  0  0  0  0  0  0  0  0  0  0  0
   19.8204   20.2326   22.5033 H   0  0  0  0  0  0  0  0  0  0  0  0
   20.1223   18.0942   22.8517 C   0  0  0  0  0  0  0  0  0  0  0  0
   20.3514   17.2105   22.2402 H   0  0  0  0  0  0  0  0  0  0  0  0
   19.1410   17.8944   23.2979 H   0  0  0  0  0  0  0  0  0  0  0  0
   21.2021   18.2069   23.9579 C   0  0  0  0  0  0  0  0  0  0  0  0
   21.2362   17.2625   24.5173 H   0  0  0  0  0  0  0  0  0  0  0  0
   22.1849   18.2900   23.4737 H   0  0  0  0  0  0  0  0  0  0  0  0
   21.0513   19.3926   24.9559 C   0  0  0  0  0  0  0  0  0  0  0  0
   21.1709   20.3449   24.4243 H   0  0  0  0  0  0  0  0  0  0  0  0
   21.8998   19.3474   25.6513 H   0  0  0  0  0  0  0  0  0  0  0  0
   19.7576   19.4446   25.8087 C   0  0  2  0  0  0  0  0  0  0  0  0
   19.9220   20.1941   26.5890 H   0  0  0  0  0  0  0  0  0  0  0  0
   19.4642   18.1086   26.5131 C   0  0  0  0  0  0  0  0  0  0  0  0
   20.3384   17.7695   27.0825 H   0  0  0  0  0  0  0  0  0  0  0  0
   18.6311   18.2209   27.2177 H   0  0  0  0  0  0  0  0  0  0  0  0
   19.1940   17.3235   25.7969 H   0  0  0  0  0  0  0  0  0  0  0  0
   18.5607   19.9302   25.0391 N   0  3  0  0  0  0  0  0  0  0  0  0
   17.7250   19.9637   25.6302 H   0  0  0  0  0  0  0  0  0  0  0  0
   18.3594   19.3164   24.2464 H   0  0  0  0  0  0  0  0  0  0  0  0
   18.7123   20.8729   24.6695 H   0  0  0  0  0  0  0  0  0  0  0  0
  1  2  1  0  0  0  0
  1  3  1  0  0  0  0
  1  4  1  0  0  0  0
  1  5  1  0  0  0  0
  5  6  1  0  0  0  0
  5  7  1  0  0  0  0
  5  8  1  0  0  0  0
  8  9  1  0  0  0  0
  8 10  1  0  0  0  0
  8 11  1  0  0  0  0
 11 12  1  0  0  0  0
 11 13  1  0  0  0  0
 11 14  1  0  0  0  0
 14 15  1  0  0  0  0
 14 16  1  0  0  0  0
 14 17  1  0  0  0  0
 17 18  1  0  0  0  0
 17 19  1  0  0  0  0
 17 20  1  0  0  0  0
 20 21  1  0  0  0  0
 20 22  1  0  0  0  0
 22 23  1  0  0  0  0
 22 24  1  0  0  0  0
 22 25  1  0  0  0  0
 20 26  1  0  0  0  0
 26 27  1  0  0  0  0
 26 28  1  0  0  0  0
 26 29  1  0  0  0  0
M  END
> <VM2 Rank>
167

> <Conf_Id>
650

> <Probability>
0.00

> <Sum Probability>
99.96

> <Delta G>
4.823

> <G>
38.526

> <E>
0.046

> <-TS>
38.480

> <U+W>
-24.099

> <U>
28.029

> <W>
-52.128

> <W(PB)>
-54.543

> <W(SA)>
2.415

> <Valence>
5.578

> <Coulomb>
21.811

> <VdW>
0.640

> <VdW6>
-11.461

> <VdW12>
12.102

> <Bond>
0.349

> <Angle>
2.654

> <Pdih>
2.574

> <Idih>
0.000

> <Tether>
0.000

$$$$
VeraChem MOL file


 29 28  0  0  0  0  0  0  0  0999 V2000     
   20.1154   18.7015   19.4451 C   0  0  0  0  0  0  0  0  0  0  0  0
   20.4647   19.6847   19.1039 H   0  0  0  0  0  0  0  0  0  0  0  0
   20.9677   18.1648   19.8796 H   0  0  0  0  0  0  0  0  0  0  0  0
   19.7860   18.1376   18.5629 H   0  0  0  0  0  0  0  0  0  0  0  0
   18.9573   18.8443   20.4586 C   0  0  0  0  0  0  0  0  0  0  0  0
   18.6486   17.8497   20.8097 H   0  0  0  0  0  0  0  0  0  0  0  0
   18.0865   19.2717   19.9421 H   0  0  0  0  0  0  0  0  0  0  0  0
   19.3049   19.7423   21.6705 C   0  0  0  0  0  0  0  0  0  0  0  0
   19.5951   20.7402   21.3142 H   0  0  0  0  0  0  0  0  0  0  0  0
   18.3929   19.8825   22.2642 H   0  0  0  0  0  0  0  0  0  0  0  0
   20.4299   19.1610   22.5647 C   0  0  0  0  0  0  0  0  0  0  0  0
   21.3537   19.0891   21.9762 H   0  0  0  0  0  0  0  0  0  0  0  0
   20.1733   18.1368   22.8612 H   0  0  0  0  0  0  0  0  0  0  0  0
   20.7249   20.0309   23.8144 C   0  0  0  0  0  0  0  0  0  0  0  0
   21.6987   19.7480   24.2376 H   0  0  0  0  0  0  0  0  0  0  0  0
   20.8399   21.0744   23.4899 H   0  0  0  0  0  0  0  0  0  0  0  0
   19.6406   19.9636   24.9256 C   0  0  0  0  0  0  0  0  0  0  0  0
   18.6571   19.7298   24.5009 H   0  0  0  0  0  0  0  0  0  0  0  0
   19.5467   20.9671   25.3612 H   0  0  0  0  0  0  0  0  0  0  0  0
   19.9596   18.9827   26.0791 C   0  0  2  0  0  0  0  0  0  0  0  0
   20.9256   19.2648   26.5090 H   0  0  0  0  0  0  0  0  0  0  0  0
   20.0515   17.5215   25.6081 C   0  0  0  0  0  0  0  0  0  0  0  0
   20.2016   16.8485   26.4613 H   0  0  0  0  0  0  0  0  0  0  0  0
   19.1363   17.2133   25.0876 H   0  0  0  0  0  0  0  0  0  0  0  0
   20.9021   17.3790   24.9316 H   0  0  0  0  0  0  0  0  0  0  0  0
   18.9519   19.1082   27.1878 N   0  3  0  0  0  0  0  0  0  0  0  0
   19.1835   18.4950   27.9745 H   0  0  0  0  0  0  0  0  0  0  0  0
   18.0126   18.8553   26.8695 H   0  0  0  0  0  0  0  0  0  0  0  0
   18.9072   20.0650   27.5504 H   0  0  0  0  0  0  0  0  0  0  0  0
  1  2  1  0  0  0  0
  1  3  1  0  0  0  0
  1  4  1  0  0  0  0
  1  5  1  0  0  0  0
  5  6  1  0  0  0  0
  5  7  1  0  0  0  0
  5  8  1  0  0  0  0
  8  9  1  0  0  0  0
  8 10  1  0  0  0  0
  8 11  1  0  0  0  0
 11 12  1  0  0  0  0
 11 13  1  0  0  0  0
 11 14  1  0  0  0  0
 14 15  1  0  0  0  0
 14 16  1  0  0  0  0
 14 17  1  0  0  0  0
 17 18  1  0  0  0  0
 17 19  1  0  0  0  0
 17 20  1  0  0  0  0
 20 21  1  0  0  0  0
 20 22  1  0  0  0  0
 22 23  1  0  0  0  0
 22 24  1  0  0  0  0
 22 25  1  0  0  0  0
 20 26  1  0  0  0  0
 26 27  1  0  0  0  0
 26 28  1  0  0  0  0
 26 29  1  0  0  0  0
M  END
> <VM2 Rank>
168

> <Conf_Id>
1266

> <Probability>
0.00

> <Sum Probability>
99.96

> <Delta G>
4.840

> <G>
38.542

> <E>
0.670

> <-TS>
37.873

> <U+W>
-23.475

> <U>
28.780

> <W>
-52.255

> <W(PB)>
-54.714

> <W(SA)>
2.459

> <Valence>
7.565

> <Coulomb>
19.822

> <VdW>
1.393

> <VdW6>
-10.248

> <VdW12>
11.641

> <Bond>
0.341

> <Angle>
2.098

> <Pdih>
5.127

> <Idih>
0.000

> <Tether>
0.000

$$$$
VeraChem MOL file


 29 28  0  0  0  0  0  0  0  0999 V2000     
   19.0428   18.9009   19.5361 C   0  0  0  0  0  0  0  0  0  0  0  0
   18.1343   18.6140   20.0798 H   0  0  0  0  0  0  0  0  0  0  0  0
   18.9541   19.9569   19.2496 H   0  0  0  0  0  0  0  0  0  0  0  0
   19.0774   18.3050   18.6150 H   0  0  0  0  0  0  0  0  0  0  0  0
   20.3125   18.6598   20.3838 C   0  0  0  0  0  0  0  0  0  0  0  0
   21.1959   18.8397   19.7553 H   0  0  0  0  0  0  0  0  0  0  0  0
   20.3603   17.6044   20.6860 H   0  0  0  0  0  0  0  0  0  0  0  0
   20.4013   19.5669   21.6349 C   0  0  0  0  0  0  0  0  0  0  0  0
   21.3839   19.4131   22.0978 H   0  0  0  0  0  0  0  0  0  0  0  0
   20.3696   20.6205   21.3250 H   0  0  0  0  0  0  0  0  0  0  0  0
   19.2822   19.2953   22.6728 C   0  0  0  0  0  0  0  0  0  0  0  0
   19.2691   18.2300   22.9315 H   0  0  0  0  0  0  0  0  0  0  0  0
   18.3091   19.5105   22.2127 H   0  0  0  0  0  0  0  0  0  0  0  0
   19.4077   20.1656   23.9506 C   0  0  0  0  0  0  0  0  0  0  0  0
   19.5447   21.2109   23.6410 H   0  0  0  0  0  0  0  0  0  0  0  0
   18.4549   20.1475   24.4950 H   0  0  0  0  0  0  0  0  0  0  0  0
   20.5718   19.7696   24.9054 C   0  0  0  0  0  0  0  0  0  0  0  0
   20.9744   20.6873   25.3539 H   0  0  0  0  0  0  0  0  0  0  0  0
   21.4051   19.3376   24.3394 H   0  0  0  0  0  0  0  0  0  0  0  0
   20.2014   18.8115   26.0646 C   0  0  2  0  0  0  0  0  0  0  0  0
   21.1180   18.6262   26.6331 H   0  0  0  0  0  0  0  0  0  0  0  0
   19.6816   17.4516   25.5715 C   0  0  0  0  0  0  0  0  0  0  0  0
   19.5756   16.7545   26.4117 H   0  0  0  0  0  0  0  0  0  0  0  0
   18.7007   17.5467   25.0908 H   0  0  0  0  0  0  0  0  0  0  0  0
   20.3802   17.0039   24.8539 H   0  0  0  0  0  0  0  0  0  0  0  0
   19.2349   19.4346   27.0344 N   0  3  0  0  0  0  0  0  0  0  0  0
   19.0508   18.8151   27.8287 H   0  0  0  0  0  0  0  0  0  0  0  0
   18.3371   19.6360   26.5875 H   0  0  0  0  0  0  0  0  0  0  0  0
   19.5964   20.3157   27.4109 H   0  0  0  0  0  0  0  0  0  0  0  0
  1  2  1  0  0  0  0
  1  3  1  0  0  0  0
  1  4  1  0  0  0  0
  1  5  1  0  0  0  0
  5  6  1  0  0  0  0
  5  7  1  0  0  0  0
  5  8  1  0  0  0  0
  8  9  1  0  0  0  0
  8 10  1  0  0  0  0
  8 11  1  0  0  0  0
 11 12  1  0  0  0  0
 11 13  1  0  0  0  0
 11 14  1  0  0  0  0
 14 15  1  0  0  0  0
 14 16  1  0  0  0  0
 14 17  1  0  0  0  0
 17 18  1  0  0  0  0
 17 19  1  0  0  0  0
 17 20  1  0  0  0  0
 20 21  1  0  0  0  0
 20 22  1  0  0  0  0
 22 23  1  0  0  0  0
 22 24  1  0  0  0  0
 22 25  1  0  0  0  0
 20 26  1  0  0  0  0
 26 27  1  0  0  0  0
 26 28  1  0  0  0  0
 26 29  1  0  0  0  0
M  END
> <VM2 Rank>
169

> <Conf_Id>
872

> <Probability>
0.00

> <Sum Probability>
99.97

> <Delta G>
4.851

> <G>
38.554

> <E>
0.643

> <-TS>
37.911

> <U+W>
-23.502

> <U>
28.853

> <W>
-52.354

> <W(PB)>
-54.783

> <W(SA)>
2.429

> <Valence>
7.579

> <Coulomb>
19.889

> <VdW>
1.385

> <VdW6>
-10.700

> <VdW12>
12.085

> <Bond>
0.383

> <Angle>
2.315

> <Pdih>
4.881

> <Idih>
0.000

> <Tether>
0.000

$$$$
VeraChem MOL file


 29 28  0  0  0  0  0  0  0  0999 V2000     
   21.4189   19.5199   21.3836 C   0  0  0  0  0  0  0  0  0  0  0  0
   21.4415   19.6873   22.4665 H   0  0  0  0  0  0  0  0  0  0  0  0
   22.3325   18.9749   21.1133 H   0  0  0  0  0  0  0  0  0  0  0  0
   21.4517   20.4977   20.8860 H   0  0  0  0  0  0  0  0  0  0  0  0
   20.1661   18.7230   20.9539 C   0  0  0  0  0  0  0  0  0  0  0  0
   20.1487   17.7434   21.4471 H   0  0  0  0  0  0  0  0  0  0  0  0
   20.2403   18.5097   19.8785 H   0  0  0  0  0  0  0  0  0  0  0  0
   18.8382   19.4763   21.2111 C   0  0  0  0  0  0  0  0  0  0  0  0
   18.8368   20.3931   20.6057 H   0  0  0  0  0  0  0  0  0  0  0  0
   18.0076   18.8676   20.8281 H   0  0  0  0  0  0  0  0  0  0  0  0
   18.5403   19.8627   22.6851 C   0  0  0  0  0  0  0  0  0  0  0  0
   17.6110   20.4489   22.6782 H   0  0  0  0  0  0  0  0  0  0  0  0
   19.3053   20.5507   23.0637 H   0  0  0  0  0  0  0  0  0  0  0  0
   18.3268   18.6626   23.6491 C   0  0  0  0  0  0  0  0  0  0  0  0
   17.5797   18.9489   24.4012 H   0  0  0  0  0  0  0  0  0  0  0  0
   17.8724   17.8278   23.0981 H   0  0  0  0  0  0  0  0  0  0  0  0
   19.5981   18.1599   24.3869 C   0  0  0  0  0  0  0  0  0  0  0  0
   20.3201   17.7719   23.6609 H   0  0  0  0  0  0  0  0  0  0  0  0
   19.3221   17.3042   25.0172 H   0  0  0  0  0  0  0  0  0  0  0  0
   20.2922   19.2259   25.2648 C   0  0  2  0  0  0  0  0  0  0  0  0
   20.5756   20.0691   24.6290 H   0  0  0  0  0  0  0  0  0  0  0  0
   21.5728   18.6510   25.8901 C   0  0  0  0  0  0  0  0  0  0  0  0
   22.0913   19.4140   26.4838 H   0  0  0  0  0  0  0  0  0  0  0  0
   21.3474   17.8016   26.5470 H   0  0  0  0  0  0  0  0  0  0  0  0
   22.2657   18.3070   25.1121 H   0  0  0  0  0  0  0  0  0  0  0  0
   19.3827   19.7747   26.3294 N   0  3  0  0  0  0  0  0  0  0  0  0
   19.0753   19.0397   26.9719 H   0  0  0  0  0  0  0  0  0  0  0  0
   18.5452   20.1973   25.9197 H   0  0  0  0  0  0  0  0  0  0  0  0
   19.8500   20.4950   26.8872 H   0  0  0  0  0  0  0  0  0  0  0  0
  1  2  1  0  0  0  0
  1  3  1  0  0  0  0
  1  4  1  0  0  0  0
  1  5  1  0  0  0  0
  5  6  1  0  0  0  0
  5  7  1  0  0  0  0
  5  8  1  0  0  0  0
  8  9  1  0  0  0  0
  8 10  1  0  0  0  0
  8 11  1  0  0  0  0
 11 12  1  0  0  0  0
 11 13  1  0  0  0  0
 11 14  1  0  0  0  0
 14 15  1  0  0  0  0
 14 16  1  0  0  0  0
 14 17  1  0  0  0  0
 17 18  1  0  0  0  0
 17 19  1  0  0  0  0
 17 20  1  0  0  0  0
 20 21  1  0  0  0  0
 20 22  1  0  0  0  0
 22 23  1  0  0  0  0
 22 24  1  0  0  0  0
 22 25  1  0  0  0  0
 20 26  1  0  0  0  0
 26 27  1  0  0  0  0
 26 28  1  0  0  0  0
 26 29  1  0  0  0  0
M  END
> <VM2 Rank>
170

> <Conf_Id>
1227

> <Probability>
0.00

> <Sum Probability>
99.97

> <Delta G>
4.889

> <G>
38.591

> <E>
0.014

> <-TS>
38.577

> <U+W>
-24.131

> <U>
28.539

> <W>
-52.668

> <W(PB)>
-55.025

> <W(SA)>
2.357

> <Valence>
7.210

> <Coulomb>
20.792

> <VdW>
0.537

> <VdW6>
-12.023

> <VdW12>
12.560

> <Bond>
0.379

> <Angle>
2.779

> <Pdih>
4.052

> <Idih>
0.000

> <Tether>
0.000

$$$$
VeraChem MOL file


 29 28  0  0  0  0  0  0  0  0999 V2000     
   20.5486   20.4439   20.6999 C   0  0  0  0  0  0  0  0  0  0  0  0
   20.5819   21.5370   20.6069 H   0  0  0  0  0  0  0  0  0  0  0  0
   21.3153   20.1488   21.4260 H   0  0  0  0  0  0  0  0  0  0  0  0
   20.8198   20.0160   19.7260 H   0  0  0  0  0  0  0  0  0  0  0  0
   19.1393   19.9798   21.1334 C   0  0  0  0  0  0  0  0  0  0  0  0
   18.4080   20.3609   20.4071 H   0  0  0  0  0  0  0  0  0  0  0  0
   18.8665   20.4337   22.0944 H   0  0  0  0  0  0  0  0  0  0  0  0
   18.9984   18.4399   21.2083 C   0  0  0  0  0  0  0  0  0  0  0  0
   17.9490   18.1912   21.4182 H   0  0  0  0  0  0  0  0  0  0  0  0
   19.2093   18.0209   20.2148 H   0  0  0  0  0  0  0  0  0  0  0  0
   19.9009   17.7233   22.2488 C   0  0  0  0  0  0  0  0  0  0  0  0
   20.9626   17.8895   22.0240 H   0  0  0  0  0  0  0  0  0  0  0  0
   19.7447   16.6431   22.1220 H   0  0  0  0  0  0  0  0  0  0  0  0
   19.5929   18.0756   23.7280 C   0  0  0  0  0  0  0  0  0  0  0  0
   18.5339   18.3457   23.8316 H   0  0  0  0  0  0  0  0  0  0  0  0
   19.7352   17.1658   24.3256 H   0  0  0  0  0  0  0  0  0  0  0  0
   20.5074   19.1924   24.3026 C   0  0  0  0  0  0  0  0  0  0  0  0
   20.4386   20.0915   23.6819 H   0  0  0  0  0  0  0  0  0  0  0  0
   21.5543   18.8673   24.2410 H   0  0  0  0  0  0  0  0  0  0  0  0
   20.1999   19.5959   25.7639 C   0  0  2  0  0  0  0  0  0  0  0  0
   20.8936   20.3989   26.0319 H   0  0  0  0  0  0  0  0  0  0  0  0
   20.4301   18.4359   26.7481 C   0  0  0  0  0  0  0  0  0  0  0  0
   20.3408   18.7881   27.7831 H   0  0  0  0  0  0  0  0  0  0  0  0
   19.6995   17.6309   26.6048 H   0  0  0  0  0  0  0  0  0  0  0  0
   21.4356   18.0145   26.6259 H   0  0  0  0  0  0  0  0  0  0  0  0
   18.8186   20.1694   25.9210 N   0  3  0  0  0  0  0  0  0  0  0  0
   18.6735   20.9736   25.3040 H   0  0  0  0  0  0  0  0  0  0  0  0
   18.6521   20.4853   26.8808 H   0  0  0  0  0  0  0  0  0  0  0  0
   18.1015   19.4748   25.6975 H   0  0  0  0  0  0  0  0  0  0  0  0
  1  2  1  0  0  0  0
  1  3  1  0  0  0  0
  1  4  1  0  0  0  0
  1  5  1  0  0  0  0
  5  6  1  0  0  0  0
  5  7  1  0  0  0  0
  5  8  1  0  0  0  0
  8  9  1  0  0  0  0
  8 10  1  0  0  0  0
  8 11  1  0  0  0  0
 11 12  1  0  0  0  0
 11 13  1  0  0  0  0
 11 14  1  0  0  0  0
 14 15  1  0  0  0  0
 14 16  1  0  0  0  0
 14 17  1  0  0  0  0
 17 18  1  0  0  0  0
 17 19  1  0  0  0  0
 17 20  1  0  0  0  0
 20 21  1  0  0  0  0
 20 22  1  0  0  0  0
 22 23  1  0  0  0  0
 22 24  1  0  0  0  0
 22 25  1  0  0  0  0
 20 26  1  0  0  0  0
 26 27  1  0  0  0  0
 26 28  1  0  0  0  0
 26 29  1  0  0  0  0
M  END
> <VM2 Rank>
171

> <Conf_Id>
161

> <Probability>
0.00

> <Sum Probability>
99.97

> <Delta G>
4.934

> <G>
38.637

> <E>
0.285

> <-TS>
38.352

> <U+W>
-23.860

> <U>
28.974

> <W>
-52.834

> <W(PB)>
-55.217

> <W(SA)>
2.383

> <Valence>
7.347

> <Coulomb>
20.625

> <VdW>
1.002

> <VdW6>
-11.326

> <VdW12>
12.328

> <Bond>
0.364

> <Angle>
2.516

> <Pdih>
4.467

> <Idih>
0.000

> <Tether>
0.000

$$$$
VeraChem MOL file


 29 28  0  0  0  0  0  0  0  0999 V2000     
   20.8361   19.6272   20.4035 C   0  0  0  0  0  0  0  0  0  0  0  0
   21.0934   18.5699   20.5430 H   0  0  0  0  0  0  0  0  0  0  0  0
   20.1639   19.7069   19.5393 H   0  0  0  0  0  0  0  0  0  0  0  0
   21.7622   20.1637   20.1598 H   0  0  0  0  0  0  0  0  0  0  0  0
   20.1833   20.2221   21.6713 C   0  0  0  0  0  0  0  0  0  0  0  0
   20.0492   21.3030   21.5259 H   0  0  0  0  0  0  0  0  0  0  0  0
   20.8696   20.1150   22.5202 H   0  0  0  0  0  0  0  0  0  0  0  0
   18.8060   19.5939   22.0045 C   0  0  0  0  0  0  0  0  0  0  0  0
   18.3648   20.1111   22.8655 H   0  0  0  0  0  0  0  0  0  0  0  0
   18.1213   19.7917   21.1683 H   0  0  0  0  0  0  0  0  0  0  0  0
   18.8236   18.0655   22.2695 C   0  0  0  0  0  0  0  0  0  0  0  0
   19.1068   17.5474   21.3437 H   0  0  0  0  0  0  0  0  0  0  0  0
   17.7973   17.7361   22.4819 H   0  0  0  0  0  0  0  0  0  0  0  0
   19.7525   17.5772   23.4137 C   0  0  0  0  0  0  0  0  0  0  0  0
   19.7123   16.4793   23.4152 H   0  0  0  0  0  0  0  0  0  0  0  0
   20.7976   17.8241   23.1925 H   0  0  0  0  0  0  0  0  0  0  0  0
   19.3445   18.0618   24.8323 C   0  0  0  0  0  0  0  0  0  0  0  0
   19.7036   17.3345   25.5726 H   0  0  0  0  0  0  0  0  0  0  0  0
   18.2493   18.0446   24.9068 H   0  0  0  0  0  0  0  0  0  0  0  0
   19.8677   19.4621   25.2305 C   0  0  2  0  0  0  0  0  0  0  0  0
   19.6625   20.1607   24.4166 H   0  0  0  0  0  0  0  0  0  0  0  0
   21.3843   19.4537   25.4955 C   0  0  0  0  0  0  0  0  0  0  0  0
   21.6408   18.7598   26.3057 H   0  0  0  0  0  0  0  0  0  0  0  0
   21.9486   19.1581   24.6042 H   0  0  0  0  0  0  0  0  0  0  0  0
   21.7306   20.4538   25.7839 H   0  0  0  0  0  0  0  0  0  0  0  0
   19.1380   19.9924   26.4333 N   0  3  0  0  0  0  0  0  0  0  0  0
   18.1290   20.0493   26.2677 H   0  0  0  0  0  0  0  0  0  0  0  0
   19.4599   20.9321   26.6823 H   0  0  0  0  0  0  0  0  0  0  0  0
   19.2821   19.3939   27.2511 H   0  0  0  0  0  0  0  0  0  0  0  0
  1  2  1  0  0  0  0
  1  3  1  0  0  0  0
  1  4  1  0  0  0  0
  1  5  1  0  0  0  0
  5  6  1  0  0  0  0
  5  7  1  0  0  0  0
  5  8  1  0  0  0  0
  8  9  1  0  0  0  0
  8 10  1  0  0  0  0
  8 11  1  0  0  0  0
 11 12  1  0  0  0  0
 11 13  1  0  0  0  0
 11 14  1  0  0  0  0
 14 15  1  0  0  0  0
 14 16  1  0  0  0  0
 14 17  1  0  0  0  0
 17 18  1  0  0  0  0
 17 19  1  0  0  0  0
 17 20  1  0  0  0  0
 20 21  1  0  0  0  0
 20 22  1  0  0  0  0
 22 23  1  0  0  0  0
 22 24  1  0  0  0  0
 22 25  1  0  0  0  0
 20 26  1  0  0  0  0
 26 27  1  0  0  0  0
 26 28  1  0  0  0  0
 26 29  1  0  0  0  0
M  END
> <VM2 Rank>
172

> <Conf_Id>
1373

> <Probability>
0.00

> <Sum Probability>
99.97

> <Delta G>
4.993

> <G>
38.695

> <E>
-0.131

> <-TS>
38.827

> <U+W>
-24.276

> <U>
28.750

> <W>
-53.026

> <W(PB)>
-55.392

> <W(SA)>
2.366

> <Valence>
7.379

> <Coulomb>
20.861

> <VdW>
0.509

> <VdW6>
-12.367

> <VdW12>
12.876

> <Bond>
0.367

> <Angle>
2.928

> <Pdih>
4.085

> <Idih>
0.000

> <Tether>
0.000

$$$$
VeraChem MOL file


 29 28  0  0  0  0  0  0  0  0999 V2000     
   19.4943   19.5164   19.1422 C   0  0  0  0  0  0  0  0  0  0  0  0
   18.7566   18.7631   18.8366 H   0  0  0  0  0  0  0  0  0  0  0  0
   19.0028   20.4981   19.1379 H   0  0  0  0  0  0  0  0  0  0  0  0
   20.2901   19.5345   18.3862 H   0  0  0  0  0  0  0  0  0  0  0  0
   20.0739   19.1931   20.5356 C   0  0  0  0  0  0  0  0  0  0  0  0
   20.8359   19.9427   20.7853 H   0  0  0  0  0  0  0  0  0  0  0  0
   20.5833   18.2200   20.5007 H   0  0  0  0  0  0  0  0  0  0  0  0
   18.9695   19.1660   21.6190 C   0  0  0  0  0  0  0  0  0  0  0  0
   18.4955   20.1545   21.6921 H   0  0  0  0  0  0  0  0  0  0  0  0
   18.1811   18.4697   21.3014 H   0  0  0  0  0  0  0  0  0  0  0  0
   19.4752   18.7254   23.0150 C   0  0  0  0  0  0  0  0  0  0  0  0
   19.9819   17.7540   22.9333 H   0  0  0  0  0  0  0  0  0  0  0  0
   18.5950   18.5707   23.6496 H   0  0  0  0  0  0  0  0  0  0  0  0
   20.4147   19.7571   23.6875 C   0  0  0  0  0  0  0  0  0  0  0  0
   21.2397   19.9926   23.0038 H   0  0  0  0  0  0  0  0  0  0  0  0
   19.8764   20.7024   23.8375 H   0  0  0  0  0  0  0  0  0  0  0  0
   21.0512   19.2882   25.0271 C   0  0  0  0  0  0  0  0  0  0  0  0
   21.7276   20.0855   25.3617 H   0  0  0  0  0  0  0  0  0  0  0  0
   21.6991   18.4211   24.8424 H   0  0  0  0  0  0  0  0  0  0  0  0
   20.0933   18.9782   26.2067 C   0  0  2  0  0  0  0  0  0  0  0  0
   20.6676   19.1352   27.1249 H   0  0  0  0  0  0  0  0  0  0  0  0
   19.6370   17.5074   26.2298 C   0  0  0  0  0  0  0  0  0  0  0  0
   20.5023   16.8332   26.2326 H   0  0  0  0  0  0  0  0  0  0  0  0
   19.0587   17.3020   27.1389 H   0  0  0  0  0  0  0  0  0  0  0  0
   19.0096   17.2485   25.3719 H   0  0  0  0  0  0  0  0  0  0  0  0
   18.9269   19.9242   26.2912 N   0  3  0  0  0  0  0  0  0  0  0  0
   19.2402   20.8962   26.3667 H   0  0  0  0  0  0  0  0  0  0  0  0
   18.3410   19.7258   27.1073 H   0  0  0  0  0  0  0  0  0  0  0  0
   18.3360   19.8546   25.4590 H   0  0  0  0  0  0  0  0  0  0  0  0
  1  2  1  0  0  0  0
  1  3  1  0  0  0  0
  1  4  1  0  0  0  0
  1  5  1  0  0  0  0
  5  6  1  0  0  0  0
  5  7  1  0  0  0  0
  5  8  1  0  0  0  0
  8  9  1  0  0  0  0
  8 10  1  0  0  0  0
  8 11  1  0  0  0  0
 11 12  1  0  0  0  0
 11 13  1  0  0  0  0
 11 14  1  0  0  0  0
 14 15  1  0  0  0  0
 14 16  1  0  0  0  0
 14 17  1  0  0  0  0
 17 18  1  0  0  0  0
 17 19  1  0  0  0  0
 17 20  1  0  0  0  0
 20 21  1  0  0  0  0
 20 22  1  0  0  0  0
 22 23  1  0  0  0  0
 22 24  1  0  0  0  0
 22 25  1  0  0  0  0
 20 26  1  0  0  0  0
 26 27  1  0  0  0  0
 26 28  1  0  0  0  0
 26 29  1  0  0  0  0
M  END
> <VM2 Rank>
173

> <Conf_Id>
1272

> <Probability>
0.00

> <Sum Probability>
99.98

> <Delta G>
5.030

> <G>
38.732

> <E>
0.813

> <-TS>
37.919

> <U+W>
-23.332

> <U>
28.836

> <W>
-52.167

> <W(PB)>
-54.632

> <W(SA)>
2.465

> <Valence>
6.993

> <Coulomb>
20.553

> <VdW>
1.290

> <VdW6>
-10.457

> <VdW12>
11.747

> <Bond>
0.348

> <Angle>
2.718

> <Pdih>
3.927

> <Idih>
0.000

> <Tether>
0.000

$$$$
VeraChem MOL file


 29 28  0  0  0  0  0  0  0  0999 V2000     
   19.6483   20.4688   19.8921 C   0  0  0  0  0  0  0  0  0  0  0  0
   18.6417   20.3655   19.4664 H   0  0  0  0  0  0  0  0  0  0  0  0
   19.7014   21.4326   20.4150 H   0  0  0  0  0  0  0  0  0  0  0  0
   20.3644   20.4965   19.0605 H   0  0  0  0  0  0  0  0  0  0  0  0
   19.9692   19.3009   20.8485 C   0  0  0  0  0  0  0  0  0  0  0  0
   20.9951   19.4181   21.2222 H   0  0  0  0  0  0  0  0  0  0  0  0
   19.9386   18.3542   20.2913 H   0  0  0  0  0  0  0  0  0  0  0  0
   18.9747   19.2434   22.0314 C   0  0  0  0  0  0  0  0  0  0  0  0
   19.0353   20.1767   22.6041 H   0  0  0  0  0  0  0  0  0  0  0  0
   17.9517   19.1975   21.6331 H   0  0  0  0  0  0  0  0  0  0  0  0
   19.1919   18.0216   22.9617 C   0  0  0  0  0  0  0  0  0  0  0  0
   19.0566   17.1054   22.3706 H   0  0  0  0  0  0  0  0  0  0  0  0
   18.3996   17.9917   23.7193 H   0  0  0  0  0  0  0  0  0  0  0  0
   20.5791   17.9541   23.6543 C   0  0  0  0  0  0  0  0  0  0  0  0
   20.6238   17.0447   24.2678 H   0  0  0  0  0  0  0  0  0  0  0  0
   21.3499   17.8099   22.8859 H   0  0  0  0  0  0  0  0  0  0  0  0
   20.9785   19.1841   24.5210 C   0  0  0  0  0  0  0  0  0  0  0  0
   21.0394   20.0801   23.8906 H   0  0  0  0  0  0  0  0  0  0  0  0
   22.0033   19.0168   24.8776 H   0  0  0  0  0  0  0  0  0  0  0  0
   20.1034   19.4922   25.7634 C   0  0  2  0  0  0  0  0  0  0  0  0
   20.6426   20.2402   26.3527 H   0  0  0  0  0  0  0  0  0  0  0  0
   19.9037   18.2594   26.6619 C   0  0  0  0  0  0  0  0  0  0  0  0
   19.2790   17.5009   26.1751 H   0  0  0  0  0  0  0  0  0  0  0  0
   20.8682   17.8018   26.9146 H   0  0  0  0  0  0  0  0  0  0  0  0
   19.4141   18.5442   27.6012 H   0  0  0  0  0  0  0  0  0  0  0  0
   18.7872   20.1314   25.4197 N   0  3  0  0  0  0  0  0  0  0  0  0
   18.2433   20.3417   26.2615 H   0  0  0  0  0  0  0  0  0  0  0  0
   18.2230   19.5160   24.8294 H   0  0  0  0  0  0  0  0  0  0  0  0
   18.9205   21.0110   24.9131 H   0  0  0  0  0  0  0  0  0  0  0  0
  1  2  1  0  0  0  0
  1  3  1  0  0  0  0
  1  4  1  0  0  0  0
  1  5  1  0  0  0  0
  5  6  1  0  0  0  0
  5  7  1  0  0  0  0
  5  8  1  0  0  0  0
  8  9  1  0  0  0  0
  8 10  1  0  0  0  0
  8 11  1  0  0  0  0
 11 12  1  0  0  0  0
 11 13  1  0  0  0  0
 11 14  1  0  0  0  0
 14 15  1  0  0  0  0
 14 16  1  0  0  0  0
 14 17  1  0  0  0  0
 17 18  1  0  0  0  0
 17 19  1  0  0  0  0
 17 20  1  0  0  0  0
 20 21  1  0  0  0  0
 20 22  1  0  0  0  0
 22 23  1  0  0  0  0
 22 24  1  0  0  0  0
 22 25  1  0  0  0  0
 20 26  1  0  0  0  0
 26 27  1  0  0  0  0
 26 28  1  0  0  0  0
 26 29  1  0  0  0  0
M  END
> <VM2 Rank>
174

> <Conf_Id>
315

> <Probability>
0.00

> <Sum Probability>
99.98

> <Delta G>
5.044

> <G>
38.747

> <E>
0.098

> <-TS>
38.649

> <U+W>
-24.047

> <U>
28.518

> <W>
-52.565

> <W(PB)>
-54.941

> <W(SA)>
2.376

> <Valence>
6.049

> <Coulomb>
21.789

> <VdW>
0.681

> <VdW6>
-12.165

> <VdW12>
12.846

> <Bond>
0.399

> <Angle>
2.965

> <Pdih>
2.686

> <Idih>
0.000

> <Tether>
0.000

$$$$
VeraChem MOL file


 29 28  0  0  0  0  0  0  0  0999 V2000     
   18.3160   19.9223   20.8771 C   0  0  0  0  0  0  0  0  0  0  0  0
   18.3686   20.7364   21.6114 H   0  0  0  0  0  0  0  0  0  0  0  0
   17.6437   20.2405   20.0698 H   0  0  0  0  0  0  0  0  0  0  0  0
   17.8608   19.0469   21.3562 H   0  0  0  0  0  0  0  0  0  0  0  0
   19.7147   19.5888   20.3141 C   0  0  0  0  0  0  0  0  0  0  0  0
   20.0583   20.4344   19.7020 H   0  0  0  0  0  0  0  0  0  0  0  0
   19.6387   18.7306   19.6319 H   0  0  0  0  0  0  0  0  0  0  0  0
   20.7846   19.2999   21.3976 C   0  0  0  0  0  0  0  0  0  0  0  0
   21.7406   19.1364   20.8812 H   0  0  0  0  0  0  0  0  0  0  0  0
   20.9340   20.1927   22.0170 H   0  0  0  0  0  0  0  0  0  0  0  0
   20.4939   18.0526   22.2766 C   0  0  0  0  0  0  0  0  0  0  0  0
   21.4430   17.5480   22.5040 H   0  0  0  0  0  0  0  0  0  0  0  0
   19.9089   17.3271   21.6949 H   0  0  0  0  0  0  0  0  0  0  0  0
   19.7661   18.3500   23.6135 C   0  0  0  0  0  0  0  0  0  0  0  0
   18.8745   18.9590   23.4293 H   0  0  0  0  0  0  0  0  0  0  0  0
   19.4088   17.3955   24.0211 H   0  0  0  0  0  0  0  0  0  0  0  0
   20.6796   19.0421   24.6625 C   0  0  0  0  0  0  0  0  0  0  0  0
   21.0781   19.9772   24.2515 H   0  0  0  0  0  0  0  0  0  0  0  0
   21.5521   18.4051   24.8587 H   0  0  0  0  0  0  0  0  0  0  0  0
   19.9912   19.3680   26.0091 C   0  0  2  0  0  0  0  0  0  0  0  0
   20.7305   19.8744   26.6373 H   0  0  0  0  0  0  0  0  0  0  0  0
   19.5408   18.0991   26.7537 C   0  0  0  0  0  0  0  0  0  0  0  0
   18.7234   17.5894   26.2302 H   0  0  0  0  0  0  0  0  0  0  0  0
   20.3740   17.3936   26.8612 H   0  0  0  0  0  0  0  0  0  0  0  0
   19.1869   18.3513   27.7609 H   0  0  0  0  0  0  0  0  0  0  0  0
   18.8489   20.3332   25.8499 N   0  3  0  0  0  0  0  0  0  0  0  0
   18.1000   19.9306   25.2811 H   0  0  0  0  0  0  0  0  0  0  0  0
   19.1508   21.1999   25.3955 H   0  0  0  0  0  0  0  0  0  0  0  0
   18.4449   20.5868   26.7560 H   0  0  0  0  0  0  0  0  0  0  0  0
  1  2  1  0  0  0  0
  1  3  1  0  0  0  0
  1  4  1  0  0  0  0
  1  5  1  0  0  0  0
  5  6  1  0  0  0  0
  5  7  1  0  0  0  0
  5  8  1  0  0  0  0
  8  9  1  0  0  0  0
  8 10  1  0  0  0  0
  8 11  1  0  0  0  0
 11 12  1  0  0  0  0
 11 13  1  0  0  0  0
 11 14  1  0  0  0  0
 14 15  1  0  0  0  0
 14 16  1  0  0  0  0
 14 17  1  0  0  0  0
 17 18  1  0  0  0  0
 17 19  1  0  0  0  0
 17 20  1  0  0  0  0
 20 21  1  0  0  0  0
 20 22  1  0  0  0  0
 22 23  1  0  0  0  0
 22 24  1  0  0  0  0
 22 25  1  0  0  0  0
 20 26  1  0  0  0  0
 26 27  1  0  0  0  0
 26 28  1  0  0  0  0
 26 29  1  0  0  0  0
M  END
> <VM2 Rank>
175

> <Conf_Id>
1689

> <Probability>
0.00

> <Sum Probability>
99.98

> <Delta G>
5.072

> <G>
38.774

> <E>
0.830

> <-TS>
37.944

> <U+W>
-23.314

> <U>
29.307

> <W>
-52.622

> <W(PB)>
-55.035

> <W(SA)>
2.414

> <Valence>
7.440

> <Coulomb>
20.545

> <VdW>
1.323

> <VdW6>
-10.805

> <VdW12>
12.127

> <Bond>
0.373

> <Angle>
2.227

> <Pdih>
4.841

> <Idih>
0.000

> <Tether>
0.000

$$$$
VeraChem MOL file


 29 28  0  0  0  0  0  0  0  0999 V2000     
   18.6287   19.1724   20.4064 C   0  0  0  0  0  0  0  0  0  0  0  0
   17.9147   19.5780   21.1347 H   0  0  0  0  0  0  0  0  0  0  0  0
   18.2195   19.3445   19.4025 H   0  0  0  0  0  0  0  0  0  0  0  0
   18.6961   18.0874   20.5436 H   0  0  0  0  0  0  0  0  0  0  0  0
   20.0127   19.8423   20.5437 C   0  0  0  0  0  0  0  0  0  0  0  0
   19.9461   20.8589   20.1315 H   0  0  0  0  0  0  0  0  0  0  0  0
   20.7425   19.3098   19.9181 H   0  0  0  0  0  0  0  0  0  0  0  0
   20.5426   19.9473   21.9968 C   0  0  0  0  0  0  0  0  0  0  0  0
   21.4677   20.5387   21.9576 H   0  0  0  0  0  0  0  0  0  0  0  0
   19.8515   20.5405   22.6075 H   0  0  0  0  0  0  0  0  0  0  0  0
   20.8848   18.5968   22.6856 C   0  0  0  0  0  0  0  0  0  0  0  0
   21.6629   18.7855   23.4372 H   0  0  0  0  0  0  0  0  0  0  0  0
   21.3512   17.9243   21.9528 H   0  0  0  0  0  0  0  0  0  0  0  0
   19.7086   17.8571   23.3830 C   0  0  0  0  0  0  0  0  0  0  0  0
   18.9936   17.4955   22.6367 H   0  0  0  0  0  0  0  0  0  0  0  0
   20.1041   16.9487   23.8566 H   0  0  0  0  0  0  0  0  0  0  0  0
   18.9390   18.6869   24.4456 C   0  0  0  0  0  0  0  0  0  0  0  0
   18.2027   18.0380   24.9380 H   0  0  0  0  0  0  0  0  0  0  0  0
   18.3539   19.4614   23.9343 H   0  0  0  0  0  0  0  0  0  0  0  0
   19.8287   19.3546   25.5196 C   0  0  2  0  0  0  0  0  0  0  0  0
   20.5742   19.9741   25.0124 H   0  0  0  0  0  0  0  0  0  0  0  0
   20.5634   18.3151   26.3846 C   0  0  0  0  0  0  0  0  0  0  0  0
   21.2456   17.7054   25.7809 H   0  0  0  0  0  0  0  0  0  0  0  0
   21.1652   18.8105   27.1564 H   0  0  0  0  0  0  0  0  0  0  0  0
   19.8545   17.6433   26.8845 H   0  0  0  0  0  0  0  0  0  0  0  0
   19.0276   20.2836   26.3887 N   0  3  0  0  0  0  0  0  0  0  0  0
   19.6207   20.7559   27.0771 H   0  0  0  0  0  0  0  0  0  0  0  0
   18.3025   19.7791   26.9057 H   0  0  0  0  0  0  0  0  0  0  0  0
   18.5631   21.0103   25.8366 H   0  0  0  0  0  0  0  0  0  0  0  0
  1  2  1  0  0  0  0
  1  3  1  0  0  0  0
  1  4  1  0  0  0  0
  1  5  1  0  0  0  0
  5  6  1  0  0  0  0
  5  7  1  0  0  0  0
  5  8  1  0  0  0  0
  8  9  1  0  0  0  0
  8 10  1  0  0  0  0
  8 11  1  0  0  0  0
 11 12  1  0  0  0  0
 11 13  1  0  0  0  0
 11 14  1  0  0  0  0
 14 15  1  0  0  0  0
 14 16  1  0  0  0  0
 14 17  1  0  0  0  0
 17 18  1  0  0  0  0
 17 19  1  0  0  0  0
 17 20  1  0  0  0  0
 20 21  1  0  0  0  0
 20 22  1  0  0  0  0
 22 23  1  0  0  0  0
 22 24  1  0  0  0  0
 22 25  1  0  0  0  0
 20 26  1  0  0  0  0
 26 27  1  0  0  0  0
 26 28  1  0  0  0  0
 26 29  1  0  0  0  0
M  END
> <VM2 Rank>
176

> <Conf_Id>
688

> <Probability>
0.00

> <Sum Probability>
99.98

> <Delta G>
5.081

> <G>
38.783

> <E>
0.525

> <-TS>
38.258

> <U+W>
-23.619

> <U>
29.287

> <W>
-52.906

> <W(PB)>
-55.269

> <W(SA)>
2.363

> <Valence>
7.713

> <Coulomb>
20.704

> <VdW>
0.871

> <VdW6>
-11.817

> <VdW12>
12.687

> <Bond>
0.400

> <Angle>
3.243

> <Pdih>
4.070

> <Idih>
0.000

> <Tether>
0.000

$$$$
VeraChem MOL file


 29 28  0  0  0  0  0  0  0  0999 V2000     
   20.3033   19.0105   19.9001 C   0  0  0  0  0  0  0  0  0  0  0  0
   21.1728   18.7871   19.2684 H   0  0  0  0  0  0  0  0  0  0  0  0
   19.7746   18.0659   20.0786 H   0  0  0  0  0  0  0  0  0  0  0  0
   19.6392   19.6768   19.3346 H   0  0  0  0  0  0  0  0  0  0  0  0
   20.7519   19.6662   21.2254 C   0  0  0  0  0  0  0  0  0  0  0  0
   21.3892   20.5304   20.9917 H   0  0  0  0  0  0  0  0  0  0  0  0
   21.3892   18.9682   21.7824 H   0  0  0  0  0  0  0  0  0  0  0  0
   19.5725   20.1521   22.1077 C   0  0  0  0  0  0  0  0  0  0  0  0
   19.9767   20.6523   22.9947 H   0  0  0  0  0  0  0  0  0  0  0  0
   19.0290   20.9320   21.5568 H   0  0  0  0  0  0  0  0  0  0  0  0
   18.5537   19.0562   22.5269 C   0  0  0  0  0  0  0  0  0  0  0  0
   18.1163   18.6221   21.6185 H   0  0  0  0  0  0  0  0  0  0  0  0
   17.7105   19.5293   23.0485 H   0  0  0  0  0  0  0  0  0  0  0  0
   19.1168   17.9043   23.4042 C   0  0  0  0  0  0  0  0  0  0  0  0
   18.5163   17.0077   23.1976 H   0  0  0  0  0  0  0  0  0  0  0  0
   20.1362   17.6359   23.1042 H   0  0  0  0  0  0  0  0  0  0  0  0
   19.0393   18.1584   24.9343 C   0  0  0  0  0  0  0  0  0  0  0  0
   19.3538   17.2470   25.4598 H   0  0  0  0  0  0  0  0  0  0  0  0
   17.9861   18.3115   25.2042 H   0  0  0  0  0  0  0  0  0  0  0  0
   19.8640   19.3520   25.4660 C   0  0  2  0  0  0  0  0  0  0  0  0
   19.5616   20.2508   24.9229 H   0  0  0  0  0  0  0  0  0  0  0  0
   21.3759   19.1380   25.2755 C   0  0  0  0  0  0  0  0  0  0  0  0
   21.9404   19.9877   25.6787 H   0  0  0  0  0  0  0  0  0  0  0  0
   21.7150   18.2297   25.7889 H   0  0  0  0  0  0  0  0  0  0  0  0
   21.6362   19.0475   24.2156 H   0  0  0  0  0  0  0  0  0  0  0  0
   19.5586   19.6183   26.9138 N   0  3  0  0  0  0  0  0  0  0  0  0
   20.0750   20.4312   27.2617 H   0  0  0  0  0  0  0  0  0  0  0  0
   19.8130   18.8203   27.5022 H   0  0  0  0  0  0  0  0  0  0  0  0
   18.5623   19.8041   27.0612 H   0  0  0  0  0  0  0  0  0  0  0  0
  1  2  1  0  0  0  0
  1  3  1  0  0  0  0
  1  4  1  0  0  0  0
  1  5  1  0  0  0  0
  5  6  1  0  0  0  0
  5  7  1  0  0  0  0
  5  8  1  0  0  0  0
  8  9  1  0  0  0  0
  8 10  1  0  0  0  0
  8 11  1  0  0  0  0
 11 12  1  0  0  0  0
 11 13  1  0  0  0  0
 11 14  1  0  0  0  0
 14 15  1  0  0  0  0
 14 16  1  0  0  0  0
 14 17  1  0  0  0  0
 17 18  1  0  0  0  0
 17 19  1  0  0  0  0
 17 20  1  0  0  0  0
 20 21  1  0  0  0  0
 20 22  1  0  0  0  0
 22 23  1  0  0  0  0
 22 24  1  0  0  0  0
 22 25  1  0  0  0  0
 20 26  1  0  0  0  0
 26 27  1  0  0  0  0
 26 28  1  0  0  0  0
 26 29  1  0  0  0  0
M  END
> <VM2 Rank>
177

> <Conf_Id>
1331

> <Probability>
0.00

> <Sum Probability>
99.98

> <Delta G>
5.153

> <G>
38.855

> <E>
0.195

> <-TS>
38.661

> <U+W>
-23.950

> <U>
28.821

> <W>
-52.771

> <W(PB)>
-55.141

> <W(SA)>
2.370

> <Valence>
7.656

> <Coulomb>
20.424

> <VdW>
0.741

> <VdW6>
-11.945

> <VdW12>
12.686

> <Bond>
0.394

> <Angle>
3.129

> <Pdih>
4.133

> <Idih>
0.000

> <Tether>
0.000

$$$$
VeraChem MOL file


 29 28  0  0  0  0  0  0  0  0999 V2000     
   20.6739   18.7247   19.7782 C   0  0  0  0  0  0  0  0  0  0  0  0
   20.0189   17.9993   19.2784 H   0  0  0  0  0  0  0  0  0  0  0  0
   21.0611   19.4112   19.0141 H   0  0  0  0  0  0  0  0  0  0  0  0
   21.5260   18.1794   20.2045 H   0  0  0  0  0  0  0  0  0  0  0  0
   19.9101   19.5013   20.8715 C   0  0  0  0  0  0  0  0  0  0  0  0
   19.0831   20.0601   20.4118 H   0  0  0  0  0  0  0  0  0  0  0  0
   20.5852   20.2421   21.3200 H   0  0  0  0  0  0  0  0  0  0  0  0
   19.3578   18.5544   21.9624 C   0  0  0  0  0  0  0  0  0  0  0  0
   18.7420   17.7806   21.4839 H   0  0  0  0  0  0  0  0  0  0  0  0
   20.1891   18.0240   22.4430 H   0  0  0  0  0  0  0  0  0  0  0  0
   18.4930   19.2759   23.0285 C   0  0  0  0  0  0  0  0  0  0  0  0
   18.0678   18.5358   23.7165 H   0  0  0  0  0  0  0  0  0  0  0  0
   17.6275   19.7296   22.5262 H   0  0  0  0  0  0  0  0  0  0  0  0
   19.2225   20.3810   23.8364 C   0  0  0  0  0  0  0  0  0  0  0  0
   19.4769   21.2011   23.1522 H   0  0  0  0  0  0  0  0  0  0  0  0
   18.5148   20.8240   24.5493 H   0  0  0  0  0  0  0  0  0  0  0  0
   20.5202   19.9571   24.5861 C   0  0  0  0  0  0  0  0  0  0  0  0
   20.9591   20.8712   25.0066 H   0  0  0  0  0  0  0  0  0  0  0  0
   21.2681   19.5890   23.8726 H   0  0  0  0  0  0  0  0  0  0  0  0
   20.3727   18.9519   25.7585 C   0  0  2  0  0  0  0  0  0  0  0  0
   21.2467   19.0950   26.4014 H   0  0  0  0  0  0  0  0  0  0  0  0
   20.4077   17.4823   25.3031 C   0  0  0  0  0  0  0  0  0  0  0  0
   21.2938   17.2859   24.6870 H   0  0  0  0  0  0  0  0  0  0  0  0
   20.4592   16.8164   26.1732 H   0  0  0  0  0  0  0  0  0  0  0  0
   19.5203   17.2035   24.7275 H   0  0  0  0  0  0  0  0  0  0  0  0
   19.1780   19.2275   26.6293 N   0  3  0  0  0  0  0  0  0  0  0  0
   19.1407   18.5881   27.4282 H   0  0  0  0  0  0  0  0  0  0  0  0
   18.3075   19.1181   26.1031 H   0  0  0  0  0  0  0  0  0  0  0  0
   19.1979   20.1820   26.9996 H   0  0  0  0  0  0  0  0  0  0  0  0
  1  2  1  0  0  0  0
  1  3  1  0  0  0  0
  1  4  1  0  0  0  0
  1  5  1  0  0  0  0
  5  6  1  0  0  0  0
  5  7  1  0  0  0  0
  5  8  1  0  0  0  0
  8  9  1  0  0  0  0
  8 10  1  0  0  0  0
  8 11  1  0  0  0  0
 11 12  1  0  0  0  0
 11 13  1  0  0  0  0
 11 14  1  0  0  0  0
 14 15  1  0  0  0  0
 14 16  1  0  0  0  0
 14 17  1  0  0  0  0
 17 18  1  0  0  0  0
 17 19  1  0  0  0  0
 17 20  1  0  0  0  0
 20 21  1  0  0  0  0
 20 22  1  0  0  0  0
 22 23  1  0  0  0  0
 22 24  1  0  0  0  0
 22 25  1  0  0  0  0
 20 26  1  0  0  0  0
 26 27  1  0  0  0  0
 26 28  1  0  0  0  0
 26 29  1  0  0  0  0
M  END
> <VM2 Rank>
178

> <Conf_Id>
684

> <Probability>
0.00

> <Sum Probability>
99.99

> <Delta G>
5.237

> <G>
38.939

> <E>
0.260

> <-TS>
38.679

> <U+W>
-23.885

> <U>
28.683

> <W>
-52.567

> <W(PB)>
-54.935

> <W(SA)>
2.367

> <Valence>
7.340

> <Coulomb>
20.552

> <VdW>
0.790

> <VdW6>
-12.015

> <VdW12>
12.806

> <Bond>
0.401

> <Angle>
3.355

> <Pdih>
3.585

> <Idih>
0.000

> <Tether>
0.000

$$$$
VeraChem MOL file


 29 28  0  0  0  0  0  0  0  0999 V2000     
   20.0151   19.8031   19.7917 C   0  0  0  0  0  0  0  0  0  0  0  0
   20.3053   18.9462   19.1701 H   0  0  0  0  0  0  0  0  0  0  0  0
   19.6293   20.5860   19.1261 H   0  0  0  0  0  0  0  0  0  0  0  0
   20.9171   20.1960   20.2772 H   0  0  0  0  0  0  0  0  0  0  0  0
   18.9440   19.3978   20.8292 C   0  0  0  0  0  0  0  0  0  0  0  0
   18.0274   19.1088   20.2964 H   0  0  0  0  0  0  0  0  0  0  0  0
   18.6730   20.2667   21.4437 H   0  0  0  0  0  0  0  0  0  0  0  0
   19.3820   18.2185   21.7339 C   0  0  0  0  0  0  0  0  0  0  0  0
   18.5490   17.9480   22.3952 H   0  0  0  0  0  0  0  0  0  0  0  0
   19.5499   17.3347   21.1033 H   0  0  0  0  0  0  0  0  0  0  0  0
   20.6605   18.4685   22.5799 C   0  0  0  0  0  0  0  0  0  0  0  0
   21.5239   18.5317   21.9042 H   0  0  0  0  0  0  0  0  0  0  0  0
   20.8451   17.5816   23.1965 H   0  0  0  0  0  0  0  0  0  0  0  0
   20.6417   19.7435   23.4698 C   0  0  0  0  0  0  0  0  0  0  0  0
   21.6163   19.8556   23.9644 H   0  0  0  0  0  0  0  0  0  0  0  0
   20.5535   20.6206   22.8155 H   0  0  0  0  0  0  0  0  0  0  0  0
   19.5131   19.8081   24.5367 C   0  0  0  0  0  0  0  0  0  0  0  0
   18.6072   19.3026   24.1841 H   0  0  0  0  0  0  0  0  0  0  0  0
   19.2319   20.8632   24.6518 H   0  0  0  0  0  0  0  0  0  0  0  0
   19.9016   19.2835   25.9400 C   0  0  2  0  0  0  0  0  0  0  0  0
   20.7673   19.8540   26.2900 H   0  0  0  0  0  0  0  0  0  0  0  0
   20.2777   17.7928   25.9416 C   0  0  0  0  0  0  0  0  0  0  0  0
   19.4964   17.1839   25.4701 H   0  0  0  0  0  0  0  0  0  0  0  0
   21.2213   17.6275   25.4099 H   0  0  0  0  0  0  0  0  0  0  0  0
   20.4211   17.4302   26.9669 H   0  0  0  0  0  0  0  0  0  0  0  0
   18.8003   19.5402   26.9311 N   0  3  0  0  0  0  0  0  0  0  0  0
   19.0681   19.2411   27.8731 H   0  0  0  0  0  0  0  0  0  0  0  0
   17.9469   19.0335   26.6807 H   0  0  0  0  0  0  0  0  0  0  0  0
   18.5640   20.5353   26.9831 H   0  0  0  0  0  0  0  0  0  0  0  0
  1  2  1  0  0  0  0
  1  3  1  0  0  0  0
  1  4  1  0  0  0  0
  1  5  1  0  0  0  0
  5  6  1  0  0  0  0
  5  7  1  0  0  0  0
  5  8  1  0  0  0  0
  8  9  1  0  0  0  0
  8 10  1  0  0  0  0
  8 11  1  0  0  0  0
 11 12  1  0  0  0  0
 11 13  1  0  0  0  0
 11 14  1  0  0  0  0
 14 15  1  0  0  0  0
 14 16  1  0  0  0  0
 14 17  1  0  0  0  0
 17 18  1  0  0  0  0
 17 19  1  0  0  0  0
 17 20  1  0  0  0  0
 20 21  1  0  0  0  0
 20 22  1  0  0  0  0
 22 23  1  0  0  0  0
 22 24  1  0  0  0  0
 22 25  1  0  0  0  0
 20 26  1  0  0  0  0
 26 27  1  0  0  0  0
 26 28  1  0  0  0  0
 26 29  1  0  0  0  0
M  END
> <VM2 Rank>
179

> <Conf_Id>
150

> <Probability>
0.00

> <Sum Probability>
99.99

> <Delta G>
5.286

> <G>
38.989

> <E>
0.820

> <-TS>
38.169

> <U+W>
-23.325

> <U>
29.270

> <W>
-52.595

> <W(PB)>
-54.996

> <W(SA)>
2.401

> <Valence>
7.971

> <Coulomb>
20.084

> <VdW>
1.216

> <VdW6>
-11.598

> <VdW12>
12.814

> <Bond>
0.421

> <Angle>
3.121

> <Pdih>
4.428

> <Idih>
0.000

> <Tether>
0.000

$$$$
VeraChem MOL file


 29 28  0  0  0  0  0  0  0  0999 V2000     
   19.0738   19.2990   19.7573 C   0  0  0  0  0  0  0  0  0  0  0  0
   19.9410   19.8241   19.3365 H   0  0  0  0  0  0  0  0  0  0  0  0
   18.5542   18.7944   18.9325 H   0  0  0  0  0  0  0  0  0  0  0  0
   18.3859   20.0465   20.1713 H   0  0  0  0  0  0  0  0  0  0  0  0
   19.5108   18.2739   20.8281 C   0  0  0  0  0  0  0  0  0  0  0  0
   20.0912   17.4788   20.3396 H   0  0  0  0  0  0  0  0  0  0  0  0
   18.6241   17.7873   21.2579 H   0  0  0  0  0  0  0  0  0  0  0  0
   20.3691   18.8901   21.9590 C   0  0  0  0  0  0  0  0  0  0  0  0
   20.7312   18.0722   22.5938 H   0  0  0  0  0  0  0  0  0  0  0  0
   21.2618   19.3623   21.5265 H   0  0  0  0  0  0  0  0  0  0  0  0
   19.6006   19.9230   22.8219 C   0  0  0  0  0  0  0  0  0  0  0  0
   18.6730   19.4842   23.2070 H   0  0  0  0  0  0  0  0  0  0  0  0
   19.2884   20.7598   22.1838 H   0  0  0  0  0  0  0  0  0  0  0  0
   20.4421   20.5076   23.9840 C   0  0  0  0  0  0  0  0  0  0  0  0
   21.3040   21.0333   23.5505 H   0  0  0  0  0  0  0  0  0  0  0  0
   19.8557   21.2873   24.4881 H   0  0  0  0  0  0  0  0  0  0  0  0
   20.9765   19.4984   25.0435 C   0  0  0  0  0  0  0  0  0  0  0  0
   21.5815   20.0742   25.7560 H   0  0  0  0  0  0  0  0  0  0  0  0
   21.6826   18.7983   24.5799 H   0  0  0  0  0  0  0  0  0  0  0  0
   19.9289   18.7135   25.8757 C   0  0  2  0  0  0  0  0  0  0  0  0
   20.4238   18.4283   26.8092 H   0  0  0  0  0  0  0  0  0  0  0  0
   19.4878   17.4009   25.2029 C   0  0  0  0  0  0  0  0  0  0  0  0
   18.9073   17.5724   24.2918 H   0  0  0  0  0  0  0  0  0  0  0  0
   20.3577   16.7851   24.9434 H   0  0  0  0  0  0  0  0  0  0  0  0
   18.8633   16.8141   25.8875 H   0  0  0  0  0  0  0  0  0  0  0  0
   18.7465   19.5496   26.2816 N   0  3  0  0  0  0  0  0  0  0  0  0
   18.1001   19.0221   26.8753 H   0  0  0  0  0  0  0  0  0  0  0  0
   18.2252   19.8702   25.4620 H   0  0  0  0  0  0  0  0  0  0  0  0
   19.0387   20.3792   26.8061 H   0  0  0  0  0  0  0  0  0  0  0  0
  1  2  1  0  0  0  0
  1  3  1  0  0  0  0
  1  4  1  0  0  0  0
  1  5  1  0  0  0  0
  5  6  1  0  0  0  0
  5  7  1  0  0  0  0
  5  8  1  0  0  0  0
  8  9  1  0  0  0  0
  8 10  1  0  0  0  0
  8 11  1  0  0  0  0
 11 12  1  0  0  0  0
 11 13  1  0  0  0  0
 11 14  1  0  0  0  0
 14 15  1  0  0  0  0
 14 16  1  0  0  0  0
 14 17  1  0  0  0  0
 17 18  1  0  0  0  0
 17 19  1  0  0  0  0
 17 20  1  0  0  0  0
 20 21  1  0  0  0  0
 20 22  1  0  0  0  0
 22 23  1  0  0  0  0
 22 24  1  0  0  0  0
 22 25  1  0  0  0  0
 20 26  1  0  0  0  0
 26 27  1  0  0  0  0
 26 28  1  0  0  0  0
 26 29  1  0  0  0  0
M  END
> <VM2 Rank>
180

> <Conf_Id>
1684

> <Probability>
0.00

> <Sum Probability>
99.99

> <Delta G>
5.383

> <G>
39.085

> <E>
0.530

> <-TS>
38.555

> <U+W>
-23.614

> <U>
28.926

> <W>
-52.540

> <W(PB)>
-54.911

> <W(SA)>
2.371

> <Valence>
7.432

> <Coulomb>
20.573

> <VdW>
0.921

> <VdW6>
-11.861

> <VdW12>
12.782

> <Bond>
0.398

> <Angle>
3.290

> <Pdih>
3.744

> <Idih>
0.000

> <Tether>
0.000

$$$$
VeraChem MOL file


 29 28  0  0  0  0  0  0  0  0999 V2000     
   19.4659   20.0173   19.6998 C   0  0  0  0  0  0  0  0  0  0  0  0
   20.2842   20.6892   19.9868 H   0  0  0  0  0  0  0  0  0  0  0  0
   19.8978   19.1460   19.1905 H   0  0  0  0  0  0  0  0  0  0  0  0
   18.8389   20.5529   18.9753 H   0  0  0  0  0  0  0  0  0  0  0  0
   18.6281   19.5861   20.9247 C   0  0  0  0  0  0  0  0  0  0  0  0
   17.7525   19.0231   20.5725 H   0  0  0  0  0  0  0  0  0  0  0  0
   18.2356   20.4766   21.4349 H   0  0  0  0  0  0  0  0  0  0  0  0
   19.4112   18.7064   21.9290 C   0  0  0  0  0  0  0  0  0  0  0  0
   18.7068   18.3500   22.6902 H   0  0  0  0  0  0  0  0  0  0  0  0
   19.7847   17.8096   21.4157 H   0  0  0  0  0  0  0  0  0  0  0  0
   20.5947   19.4465   22.6033 C   0  0  0  0  0  0  0  0  0  0  0  0
   20.2568   20.3893   23.0498 H   0  0  0  0  0  0  0  0  0  0  0  0
   21.3212   19.7332   21.8317 H   0  0  0  0  0  0  0  0  0  0  0  0
   21.3453   18.5918   23.6568 C   0  0  0  0  0  0  0  0  0  0  0  0
   21.7905   17.7254   23.1485 H   0  0  0  0  0  0  0  0  0  0  0  0
   22.1925   19.1773   24.0401 H   0  0  0  0  0  0  0  0  0  0  0  0
   20.5130   18.0770   24.8638 C   0  0  0  0  0  0  0  0  0  0  0  0
   21.1889   17.4685   25.4794 H   0  0  0  0  0  0  0  0  0  0  0  0
   19.7255   17.3898   24.5300 H   0  0  0  0  0  0  0  0  0  0  0  0
   19.9082   19.1892   25.7528 C   0  0  2  0  0  0  0  0  0  0  0  0
   20.6445   19.9935   25.8450 H   0  0  0  0  0  0  0  0  0  0  0  0
   19.6062   18.6484   27.1600 C   0  0  0  0  0  0  0  0  0  0  0  0
   18.8826   17.8243   27.1214 H   0  0  0  0  0  0  0  0  0  0  0  0
   20.5202   18.2788   27.6413 H   0  0  0  0  0  0  0  0  0  0  0  0
   19.1919   19.4379   27.7992 H   0  0  0  0  0  0  0  0  0  0  0  0
   18.6633   19.7933   25.1637 N   0  3  0  0  0  0  0  0  0  0  0  0
   18.3318   20.5861   25.7210 H   0  0  0  0  0  0  0  0  0  0  0  0
   17.9039   19.1085   25.1225 H   0  0  0  0  0  0  0  0  0  0  0  0
   18.8305   20.1271   24.2108 H   0  0  0  0  0  0  0  0  0  0  0  0
  1  2  1  0  0  0  0
  1  3  1  0  0  0  0
  1  4  1  0  0  0  0
  1  5  1  0  0  0  0
  5  6  1  0  0  0  0
  5  7  1  0  0  0  0
  5  8  1  0  0  0  0
  8  9  1  0  0  0  0
  8 10  1  0  0  0  0
  8 11  1  0  0  0  0
 11 12  1  0  0  0  0
 11 13  1  0  0  0  0
 11 14  1  0  0  0  0
 14 15  1  0  0  0  0
 14 16  1  0  0  0  0
 14 17  1  0  0  0  0
 17 18  1  0  0  0  0
 17 19  1  0  0  0  0
 17 20  1  0  0  0  0
 20 21  1  0  0  0  0
 20 22  1  0  0  0  0
 22 23  1  0  0  0  0
 22 24  1  0  0  0  0
 22 25  1  0  0  0  0
 20 26  1  0  0  0  0
 26 27  1  0  0  0  0
 26 28  1  0  0  0  0
 26 29  1  0  0  0  0
M  END
> <VM2 Rank>
181

> <Conf_Id>
1486

> <Probability>
0.00

> <Sum Probability>
99.99

> <Delta G>
5.471

> <G>
39.173

> <E>
0.987

> <-TS>
38.187

> <U+W>
-23.158

> <U>
28.492

> <W>
-51.650

> <W(PB)>
-54.088

> <W(SA)>
2.439

> <Valence>
6.023

> <Coulomb>
21.518

> <VdW>
0.950

> <VdW6>
-11.102

> <VdW12>
12.053

> <Bond>
0.333

> <Angle>
2.459

> <Pdih>
3.230

> <Idih>
0.000

> <Tether>
0.000

$$$$
VeraChem MOL file


 29 28  0  0  0  0  0  0  0  0999 V2000     
   20.5440   18.6756   20.0232 C   0  0  0  0  0  0  0  0  0  0  0  0
   21.2748   18.4797   20.8178 H   0  0  0  0  0  0  0  0  0  0  0  0
   20.0565   17.7275   19.7614 H   0  0  0  0  0  0  0  0  0  0  0  0
   21.0990   19.0231   19.1423 H   0  0  0  0  0  0  0  0  0  0  0  0
   19.5045   19.7325   20.4596 C   0  0  0  0  0  0  0  0  0  0  0  0
   18.8749   19.9864   19.5955 H   0  0  0  0  0  0  0  0  0  0  0  0
   20.0165   20.6628   20.7386 H   0  0  0  0  0  0  0  0  0  0  0  0
   18.5856   19.2560   21.6138 C   0  0  0  0  0  0  0  0  0  0  0  0
   17.8742   20.0580   21.8541 H   0  0  0  0  0  0  0  0  0  0  0  0
   17.9780   18.4145   21.2535 H   0  0  0  0  0  0  0  0  0  0  0  0
   19.3118   18.8183   22.9127 C   0  0  0  0  0  0  0  0  0  0  0  0
   19.9623   17.9581   22.7071 H   0  0  0  0  0  0  0  0  0  0  0  0
   18.5445   18.4657   23.6111 H   0  0  0  0  0  0  0  0  0  0  0  0
   20.1298   19.9517   23.5796 C   0  0  0  0  0  0  0  0  0  0  0  0
   20.8333   20.3650   22.8460 H   0  0  0  0  0  0  0  0  0  0  0  0
   19.4610   20.7800   23.8490 H   0  0  0  0  0  0  0  0  0  0  0  0
   20.9658   19.5163   24.8168 C   0  0  0  0  0  0  0  0  0  0  0  0
   21.5303   20.3958   25.1530 H   0  0  0  0  0  0  0  0  0  0  0  0
   21.7270   18.7877   24.5078 H   0  0  0  0  0  0  0  0  0  0  0  0
   20.1951   18.9714   26.0474 C   0  0  2  0  0  0  0  0  0  0  0  0
   20.8215   19.1717   26.9222 H   0  0  0  0  0  0  0  0  0  0  0  0
   20.0007   17.4445   25.9968 C   0  0  0  0  0  0  0  0  0  0  0  0
   20.9646   16.9350   25.8762 H   0  0  0  0  0  0  0  0  0  0  0  0
   19.5553   17.0856   26.9327 H   0  0  0  0  0  0  0  0  0  0  0  0
   19.3479   17.1309   25.1769 H   0  0  0  0  0  0  0  0  0  0  0  0
   18.8987   19.6897   26.3041 N   0  3  0  0  0  0  0  0  0  0  0  0
   18.2502   19.5681   25.5223 H   0  0  0  0  0  0  0  0  0  0  0  0
   19.0481   20.6952   26.4274 H   0  0  0  0  0  0  0  0  0  0  0  0
   18.4374   19.3414   27.1494 H   0  0  0  0  0  0  0  0  0  0  0  0
  1  2  1  0  0  0  0
  1  3  1  0  0  0  0
  1  4  1  0  0  0  0
  1  5  1  0  0  0  0
  5  6  1  0  0  0  0
  5  7  1  0  0  0  0
  5  8  1  0  0  0  0
  8  9  1  0  0  0  0
  8 10  1  0  0  0  0
  8 11  1  0  0  0  0
 11 12  1  0  0  0  0
 11 13  1  0  0  0  0
 11 14  1  0  0  0  0
 14 15  1  0  0  0  0
 14 16  1  0  0  0  0
 14 17  1  0  0  0  0
 17 18  1  0  0  0  0
 17 19  1  0  0  0  0
 17 20  1  0  0  0  0
 20 21  1  0  0  0  0
 20 22  1  0  0  0  0
 22 23  1  0  0  0  0
 22 24  1  0  0  0  0
 22 25  1  0  0  0  0
 20 26  1  0  0  0  0
 26 27  1  0  0  0  0
 26 28  1  0  0  0  0
 26 29  1  0  0  0  0
M  END
> <VM2 Rank>
182

> <Conf_Id>
895

> <Probability>
0.00

> <Sum Probability>
99.99

> <Delta G>
5.485

> <G>
39.188

> <E>
0.911

> <-TS>
38.276

> <U+W>
-23.233

> <U>
29.228

> <W>
-52.461

> <W(PB)>
-54.865

> <W(SA)>
2.404

> <Valence>
7.394

> <Coulomb>
20.563

> <VdW>
1.270

> <VdW6>
-11.433

> <VdW12>
12.704

> <Bond>
0.391

> <Angle>
3.156

> <Pdih>
3.847

> <Idih>
0.000

> <Tether>
0.000

$$$$
VeraChem MOL file


 29 28  0  0  0  0  0  0  0  0999 V2000     
   19.0960   19.0064   19.7719 C   0  0  0  0  0  0  0  0  0  0  0  0
   20.0680   19.1982   19.2992 H   0  0  0  0  0  0  0  0  0  0  0  0
   19.0582   17.9502   20.0657 H   0  0  0  0  0  0  0  0  0  0  0  0
   18.3173   19.1658   19.0149 H   0  0  0  0  0  0  0  0  0  0  0  0
   18.8727   19.9414   20.9820 C   0  0  0  0  0  0  0  0  0  0  0  0
   17.9097   19.7069   21.4564 H   0  0  0  0  0  0  0  0  0  0  0  0
   18.7923   20.9755   20.6187 H   0  0  0  0  0  0  0  0  0  0  0  0
   20.0072   19.8724   22.0326 C   0  0  0  0  0  0  0  0  0  0  0  0
   20.9635   20.1272   21.5555 H   0  0  0  0  0  0  0  0  0  0  0  0
   19.8244   20.6510   22.7827 H   0  0  0  0  0  0  0  0  0  0  0  0
   20.1254   18.4889   22.7213 C   0  0  0  0  0  0  0  0  0  0  0  0
   20.3793   17.7349   21.9647 H   0  0  0  0  0  0  0  0  0  0  0  0
   19.1565   18.1793   23.1299 H   0  0  0  0  0  0  0  0  0  0  0  0
   21.2158   18.4337   23.8220 C   0  0  0  0  0  0  0  0  0  0  0  0
   21.2894   17.4030   24.1940 H   0  0  0  0  0  0  0  0  0  0  0  0
   22.1884   18.6412   23.3551 H   0  0  0  0  0  0  0  0  0  0  0  0
   21.0393   19.4030   25.0279 C   0  0  0  0  0  0  0  0  0  0  0  0
   21.1323   20.4421   24.6886 H   0  0  0  0  0  0  0  0  0  0  0  0
   21.8920   19.2480   25.7020 H   0  0  0  0  0  0  0  0  0  0  0  0
   19.7487   19.2576   25.8744 C   0  0  2  0  0  0  0  0  0  0  0  0
   19.8963   19.8501   26.7826 H   0  0  0  0  0  0  0  0  0  0  0  0
   19.4945   17.8049   26.3128 C   0  0  0  0  0  0  0  0  0  0  0  0
   18.6609   17.7587   27.0241 H   0  0  0  0  0  0  0  0  0  0  0  0
   19.2442   17.1619   25.4606 H   0  0  0  0  0  0  0  0  0  0  0  0
   20.3795   17.3888   26.8099 H   0  0  0  0  0  0  0  0  0  0  0  0
   18.5364   19.8478   25.2091 N   0  3  0  0  0  0  0  0  0  0  0  0
   17.7018   19.7443   25.7935 H   0  0  0  0  0  0  0  0  0  0  0  0
   18.3506   19.3915   24.3130 H   0  0  0  0  0  0  0  0  0  0  0  0
   18.6607   20.8476   25.0268 H   0  0  0  0  0  0  0  0  0  0  0  0
  1  2  1  0  0  0  0
  1  3  1  0  0  0  0
  1  4  1  0  0  0  0
  1  5  1  0  0  0  0
  5  6  1  0  0  0  0
  5  7  1  0  0  0  0
  5  8  1  0  0  0  0
  8  9  1  0  0  0  0
  8 10  1  0  0  0  0
  8 11  1  0  0  0  0
 11 12  1  0  0  0  0
 11 13  1  0  0  0  0
 11 14  1  0  0  0  0
 14 15  1  0  0  0  0
 14 16  1  0  0  0  0
 14 17  1  0  0  0  0
 17 18  1  0  0  0  0
 17 19  1  0  0  0  0
 17 20  1  0  0  0  0
 20 21  1  0  0  0  0
 20 22  1  0  0  0  0
 22 23  1  0  0  0  0
 22 24  1  0  0  0  0
 22 25  1  0  0  0  0
 20 26  1  0  0  0  0
 26 27  1  0  0  0  0
 26 28  1  0  0  0  0
 26 29  1  0  0  0  0
M  END
> <VM2 Rank>
183

> <Conf_Id>
1525

> <Probability>
0.00

> <Sum Probability>
99.99

> <Delta G>
5.589

> <G>
39.291

> <E>
0.689

> <-TS>
38.602

> <U+W>
-23.455

> <U>
28.746

> <W>
-52.201

> <W(PB)>
-54.565

> <W(SA)>
2.364

> <Valence>
6.147

> <Coulomb>
21.776

> <VdW>
0.823

> <VdW6>
-12.079

> <VdW12>
12.902

> <Bond>
0.393

> <Angle>
2.949

> <Pdih>
2.805

> <Idih>
0.000

> <Tether>
0.000

$$$$
VeraChem MOL file


 29 28  0  0  0  0  0  0  0  0999 V2000     
   19.8760   19.0718   19.8411 C   0  0  0  0  0  0  0  0  0  0  0  0
   20.2308   18.0875   20.1709 H   0  0  0  0  0  0  0  0  0  0  0  0
   18.8641   18.9538   19.4324 H   0  0  0  0  0  0  0  0  0  0  0  0
   20.5316   19.4033   19.0256 H   0  0  0  0  0  0  0  0  0  0  0  0
   19.8913   20.0960   20.9981 C   0  0  0  0  0  0  0  0  0  0  0  0
   19.6416   21.0874   20.5953 H   0  0  0  0  0  0  0  0  0  0  0  0
   20.9086   20.1830   21.4023 H   0  0  0  0  0  0  0  0  0  0  0  0
   18.8912   19.7585   22.1328 C   0  0  0  0  0  0  0  0  0  0  0  0
   18.9214   20.5643   22.8763 H   0  0  0  0  0  0  0  0  0  0  0  0
   17.8727   19.7736   21.7212 H   0  0  0  0  0  0  0  0  0  0  0  0
   19.1233   18.3907   22.8305 C   0  0  0  0  0  0  0  0  0  0  0  0
   18.9574   17.5865   22.1014 H   0  0  0  0  0  0  0  0  0  0  0  0
   18.3534   18.2359   23.5956 H   0  0  0  0  0  0  0  0  0  0  0  0
   20.5292   18.2007   23.4591 C   0  0  0  0  0  0  0  0  0  0  0  0
   20.5892   17.1949   23.8951 H   0  0  0  0  0  0  0  0  0  0  0  0
   21.2764   18.2017   22.6547 H   0  0  0  0  0  0  0  0  0  0  0  0
   20.9563   19.2541   24.5229 C   0  0  0  0  0  0  0  0  0  0  0  0
   20.9958   20.2505   24.0654 H   0  0  0  0  0  0  0  0  0  0  0  0
   21.9923   19.0307   24.8097 H   0  0  0  0  0  0  0  0  0  0  0  0
   20.1225   19.3249   25.8282 C   0  0  2  0  0  0  0  0  0  0  0  0
   20.6824   19.9535   26.5274 H   0  0  0  0  0  0  0  0  0  0  0  0
   19.9485   17.9472   26.4905 C   0  0  0  0  0  0  0  0  0  0  0  0
   20.9194   17.4539   26.6232 H   0  0  0  0  0  0  0  0  0  0  0  0
   19.4906   18.0528   27.4816 H   0  0  0  0  0  0  0  0  0  0  0  0
   19.3060   17.2894   25.8930 H   0  0  0  0  0  0  0  0  0  0  0  0
   18.7977   20.0122   25.6507 N   0  3  0  0  0  0  0  0  0  0  0  0
   18.2120   19.5129   24.9778 H   0  0  0  0  0  0  0  0  0  0  0  0
   18.9169   20.9697   25.3083 H   0  0  0  0  0  0  0  0  0  0  0  0
   18.2829   20.0645   26.5344 H   0  0  0  0  0  0  0  0  0  0  0  0
  1  2  1  0  0  0  0
  1  3  1  0  0  0  0
  1  4  1  0  0  0  0
  1  5  1  0  0  0  0
  5  6  1  0  0  0  0
  5  7  1  0  0  0  0
  5  8  1  0  0  0  0
  8  9  1  0  0  0  0
  8 10  1  0  0  0  0
  8 11  1  0  0  0  0
 11 12  1  0  0  0  0
 11 13  1  0  0  0  0
 11 14  1  0  0  0  0
 14 15  1  0  0  0  0
 14 16  1  0  0  0  0
 14 17  1  0  0  0  0
 17 18  1  0  0  0  0
 17 19  1  0  0  0  0
 17 20  1  0  0  0  0
 20 21  1  0  0  0  0
 20 22  1  0  0  0  0
 22 23  1  0  0  0  0
 22 24  1  0  0  0  0
 22 25  1  0  0  0  0
 20 26  1  0  0  0  0
 26 27  1  0  0  0  0
 26 28  1  0  0  0  0
 26 29  1  0  0  0  0
M  END
> <VM2 Rank>
184

> <Conf_Id>
952

> <Probability>
0.00

> <Sum Probability>
99.99

> <Delta G>
5.720

> <G>
39.423

> <E>
0.461

> <-TS>
38.962

> <U+W>
-23.684

> <U>
28.968

> <W>
-52.652

> <W(PB)>
-55.007

> <W(SA)>
2.355

> <Valence>
6.483

> <Coulomb>
21.800

> <VdW>
0.686

> <VdW6>
-13.002

> <VdW12>
13.687

> <Bond>
0.441

> <Angle>
3.285

> <Pdih>
2.757

> <Idih>
0.000

> <Tether>
0.000

$$$$
VeraChem MOL file


 29 28  0  0  0  0  0  0  0  0999 V2000     
   19.3478   21.0141   20.5449 C   0  0  0  0  0  0  0  0  0  0  0  0
   19.5449   21.7698   21.3164 H   0  0  0  0  0  0  0  0  0  0  0  0
   20.1744   21.0393   19.8229 H   0  0  0  0  0  0  0  0  0  0  0  0
   18.4304   21.3036   20.0160 H   0  0  0  0  0  0  0  0  0  0  0  0
   19.1977   19.6100   21.1674 C   0  0  0  0  0  0  0  0  0  0  0  0
   18.9727   18.8832   20.3743 H   0  0  0  0  0  0  0  0  0  0  0  0
   18.3348   19.6140   21.8441 H   0  0  0  0  0  0  0  0  0  0  0  0
   20.4823   19.1806   21.9159 C   0  0  0  0  0  0  0  0  0  0  0  0
   21.3234   19.2222   21.2101 H   0  0  0  0  0  0  0  0  0  0  0  0
   20.7215   19.9098   22.6964 H   0  0  0  0  0  0  0  0  0  0  0  0
   20.4187   17.7428   22.4970 C   0  0  0  0  0  0  0  0  0  0  0  0
   21.4101   17.4610   22.8773 H   0  0  0  0  0  0  0  0  0  0  0  0
   20.2188   17.0539   21.6646 H   0  0  0  0  0  0  0  0  0  0  0  0
   19.3565   17.4897   23.6027 C   0  0  0  0  0  0  0  0  0  0  0  0
   18.4033   17.9720   23.3575 H   0  0  0  0  0  0  0  0  0  0  0  0
   19.1343   16.4136   23.6023 H   0  0  0  0  0  0  0  0  0  0  0  0
   19.8014   17.8563   25.0450 C   0  0  0  0  0  0  0  0  0  0  0  0
   20.6963   17.2724   25.2980 H   0  0  0  0  0  0  0  0  0  0  0  0
   19.0197   17.5276   25.7427 H   0  0  0  0  0  0  0  0  0  0  0  0
   20.0946   19.3511   25.2952 C   0  0  2  0  0  0  0  0  0  0  0  0
   20.9359   19.6470   24.6636 H   0  0  0  0  0  0  0  0  0  0  0  0
   20.5029   19.5775   26.7593 C   0  0  0  0  0  0  0  0  0  0  0  0
   20.7571   20.6304   26.9329 H   0  0  0  0  0  0  0  0  0  0  0  0
   19.6914   19.3044   27.4454 H   0  0  0  0  0  0  0  0  0  0  0  0
   21.3839   18.9757   27.0153 H   0  0  0  0  0  0  0  0  0  0  0  0
   18.9343   20.2340   24.9265 N   0  3  0  0  0  0  0  0  0  0  0  0
   19.1509   21.2224   25.0844 H   0  0  0  0  0  0  0  0  0  0  0  0
   18.1045   20.0081   25.4819 H   0  0  0  0  0  0  0  0  0  0  0  0
   18.6899   20.1218   23.9386 H   0  0  0  0  0  0  0  0  0  0  0  0
  1  2  1  0  0  0  0
  1  3  1  0  0  0  0
  1  4  1  0  0  0  0
  1  5  1  0  0  0  0
  5  6  1  0  0  0  0
  5  7  1  0  0  0  0
  5  8  1  0  0  0  0
  8  9  1  0  0  0  0
  8 10  1  0  0  0  0
  8 11  1  0  0  0  0
 11 12  1  0  0  0  0
 11 13  1  0  0  0  0
 11 14  1  0  0  0  0
 14 15  1  0  0  0  0
 14 16  1  0  0  0  0
 14 17  1  0  0  0  0
 17 18  1  0  0  0  0
 17 19  1  0  0  0  0
 17 20  1  0  0  0  0
 20 21  1  0  0  0  0
 20 22  1  0  0  0  0
 22 23  1  0  0  0  0
 22 24  1  0  0  0  0
 22 25  1  0  0  0  0
 20 26  1  0  0  0  0
 26 27  1  0  0  0  0
 26 28  1  0  0  0  0
 26 29  1  0  0  0  0
M  END
> <VM2 Rank>
185

> <Conf_Id>
1663

> <Probability>
0.00

> <Sum Probability>
99.99

> <Delta G>
5.723

> <G>
39.425

> <E>
1.164

> <-TS>
38.261

> <U+W>
-22.980

> <U>
28.533

> <W>
-51.514

> <W(PB)>
-53.940

> <W(SA)>
2.426

> <Valence>
6.517

> <Coulomb>
21.462

> <VdW>
0.554

> <VdW6>
-11.293

> <VdW12>
11.847

> <Bond>
0.345

> <Angle>
2.712

> <Pdih>
3.461

> <Idih>
0.000

> <Tether>
0.000

$$$$
VeraChem MOL file


 29 28  0  0  0  0  0  0  0  0999 V2000     
   18.2555   19.8992   20.8902 C   0  0  0  0  0  0  0  0  0  0  0  0
   17.6663   19.0302   20.5694 H   0  0  0  0  0  0  0  0  0  0  0  0
   18.0517   20.0804   21.9522 H   0  0  0  0  0  0  0  0  0  0  0  0
   17.8967   20.7731   20.3313 H   0  0  0  0  0  0  0  0  0  0  0  0
   19.7623   19.6738   20.6321 C   0  0  0  0  0  0  0  0  0  0  0  0
   20.3328   20.5452   20.9805 H   0  0  0  0  0  0  0  0  0  0  0  0
   19.9303   19.6188   19.5475 H   0  0  0  0  0  0  0  0  0  0  0  0
   20.3123   18.3783   21.2815 C   0  0  0  0  0  0  0  0  0  0  0  0
   19.7994   17.5132   20.8393 H   0  0  0  0  0  0  0  0  0  0  0  0
   21.3717   18.2693   21.0114 H   0  0  0  0  0  0  0  0  0  0  0  0
   20.1753   18.3043   22.8239 C   0  0  0  0  0  0  0  0  0  0  0  0
   20.5859   17.3431   23.1622 H   0  0  0  0  0  0  0  0  0  0  0  0
   19.1121   18.2991   23.0892 H   0  0  0  0  0  0  0  0  0  0  0  0
   20.9050   19.4549   23.5590 C   0  0  0  0  0  0  0  0  0  0  0  0
   21.9127   19.5560   23.1330 H   0  0  0  0  0  0  0  0  0  0  0  0
   20.4004   20.4083   23.3566 H   0  0  0  0  0  0  0  0  0  0  0  0
   21.0590   19.2575   25.0938 C   0  0  0  0  0  0  0  0  0  0  0  0
   21.6435   20.1055   25.4740 H   0  0  0  0  0  0  0  0  0  0  0  0
   21.6765   18.3714   25.2914 H   0  0  0  0  0  0  0  0  0  0  0  0
   19.7598   19.1831   25.9374 C   0  0  2  0  0  0  0  0  0  0  0  0
   20.0289   19.4890   26.9532 H   0  0  0  0  0  0  0  0  0  0  0  0
   19.2037   17.7516   26.0496 C   0  0  0  0  0  0  0  0  0  0  0  0
   18.8378   17.3677   25.0929 H   0  0  0  0  0  0  0  0  0  0  0  0
   19.9735   17.0635   26.4205 H   0  0  0  0  0  0  0  0  0  0  0  0
   18.3684   17.7224   26.7599 H   0  0  0  0  0  0  0  0  0  0  0  0
   18.7030   20.1535   25.4863 N   0  3  0  0  0  0  0  0  0  0  0  0
   19.0522   21.1162   25.4976 H   0  0  0  0  0  0  0  0  0  0  0  0
   17.8785   20.1183   26.0927 H   0  0  0  0  0  0  0  0  0  0  0  0
   18.3986   19.9454   24.5323 H   0  0  0  0  0  0  0  0  0  0  0  0
  1  2  1  0  0  0  0
  1  3  1  0  0  0  0
  1  4  1  0  0  0  0
  1  5  1  0  0  0  0
  5  6  1  0  0  0  0
  5  7  1  0  0  0  0
  5  8  1  0  0  0  0
  8  9  1  0  0  0  0
  8 10  1  0  0  0  0
  8 11  1  0  0  0  0
 11 12  1  0  0  0  0
 11 13  1  0  0  0  0
 11 14  1  0  0  0  0
 14 15  1  0  0  0  0
 14 16  1  0  0  0  0
 14 17  1  0  0  0  0
 17 18  1  0  0  0  0
 17 19  1  0  0  0  0
 17 20  1  0  0  0  0
 20 21  1  0  0  0  0
 20 22  1  0  0  0  0
 22 23  1  0  0  0  0
 22 24  1  0  0  0  0
 22 25  1  0  0  0  0
 20 26  1  0  0  0  0
 26 27  1  0  0  0  0
 26 28  1  0  0  0  0
 26 29  1  0  0  0  0
M  END
> <VM2 Rank>
186

> <Conf_Id>
264

> <Probability>
0.00

> <Sum Probability>
99.99

> <Delta G>
5.839

> <G>
39.542

> <E>
1.245

> <-TS>
38.297

> <U+W>
-22.899

> <U>
29.417

> <W>
-52.316

> <W(PB)>
-54.671

> <W(SA)>
2.355

> <Valence>
7.176

> <Coulomb>
21.250

> <VdW>
0.991

> <VdW6>
-11.693

> <VdW12>
12.685

> <Bond>
0.376

> <Angle>
2.905

> <Pdih>
3.896

> <Idih>
0.000

> <Tether>
0.000

$$$$
VeraChem MOL file


 29 28  0  0  0  0  0  0  0  0999 V2000     
   21.0342   20.6087   21.0222 C   0  0  0  0  0  0  0  0  0  0  0  0
   20.4978   20.9621   20.1319 H   0  0  0  0  0  0  0  0  0  0  0  0
   20.9184   21.3617   21.8126 H   0  0  0  0  0  0  0  0  0  0  0  0
   22.1008   20.5458   20.7704 H   0  0  0  0  0  0  0  0  0  0  0  0
   20.5011   19.2357   21.4817 C   0  0  0  0  0  0  0  0  0  0  0  0
   21.0838   18.8913   22.3443 H   0  0  0  0  0  0  0  0  0  0  0  0
   20.6663   18.4968   20.6852 H   0  0  0  0  0  0  0  0  0  0  0  0
   18.9925   19.2940   21.8233 C   0  0  0  0  0  0  0  0  0  0  0  0
   18.7753   20.1260   22.5059 H   0  0  0  0  0  0  0  0  0  0  0  0
   18.4451   19.5193   20.8976 H   0  0  0  0  0  0  0  0  0  0  0  0
   18.4481   17.9655   22.4068 C   0  0  0  0  0  0  0  0  0  0  0  0
   19.0420   17.1176   22.0387 H   0  0  0  0  0  0  0  0  0  0  0  0
   17.4374   17.8097   22.0045 H   0  0  0  0  0  0  0  0  0  0  0  0
   18.3422   17.9076   23.9549 C   0  0  0  0  0  0  0  0  0  0  0  0
   17.6444   18.6769   24.3096 H   0  0  0  0  0  0  0  0  0  0  0  0
   17.8703   16.9491   24.2121 H   0  0  0  0  0  0  0  0  0  0  0  0
   19.6880   17.9902   24.7245 C   0  0  0  0  0  0  0  0  0  0  0  0
   20.4423   17.3950   24.1933 H   0  0  0  0  0  0  0  0  0  0  0  0
   19.5626   17.5088   25.7035 H   0  0  0  0  0  0  0  0  0  0  0  0
   20.2132   19.4261   24.9561 C   0  0  2  0  0  0  0  0  0  0  0  0
   20.2732   19.9394   23.9938 H   0  0  0  0  0  0  0  0  0  0  0  0
   21.6245   19.3862   25.5628 C   0  0  0  0  0  0  0  0  0  0  0  0
   21.6230   18.8856   26.5392 H   0  0  0  0  0  0  0  0  0  0  0  0
   22.3171   18.8480   24.9038 H   0  0  0  0  0  0  0  0  0  0  0  0
   22.0172   20.4013   25.6995 H   0  0  0  0  0  0  0  0  0  0  0  0
   19.2923   20.2420   25.8217 N   0  3  0  0  0  0  0  0  0  0  0  0
   19.1892   19.8258   26.7510 H   0  0  0  0  0  0  0  0  0  0  0  0
   18.3578   20.3134   25.4106 H   0  0  0  0  0  0  0  0  0  0  0  0
   19.6454   21.1946   25.9502 H   0  0  0  0  0  0  0  0  0  0  0  0
  1  2  1  0  0  0  0
  1  3  1  0  0  0  0
  1  4  1  0  0  0  0
  1  5  1  0  0  0  0
  5  6  1  0  0  0  0
  5  7  1  0  0  0  0
  5  8  1  0  0  0  0
  8  9  1  0  0  0  0
  8 10  1  0  0  0  0
  8 11  1  0  0  0  0
 11 12  1  0  0  0  0
 11 13  1  0  0  0  0
 11 14  1  0  0  0  0
 14 15  1  0  0  0  0
 14 16  1  0  0  0  0
 14 17  1  0  0  0  0
 17 18  1  0  0  0  0
 17 19  1  0  0  0  0
 17 20  1  0  0  0  0
 20 21  1  0  0  0  0
 20 22  1  0  0  0  0
 22 23  1  0  0  0  0
 22 24  1  0  0  0  0
 22 25  1  0  0  0  0
 20 26  1  0  0  0  0
 26 27  1  0  0  0  0
 26 28  1  0  0  0  0
 26 29  1  0  0  0  0
M  END
> <VM2 Rank>
187

> <Conf_Id>
695

> <Probability>
0.00

> <Sum Probability>
99.99

> <Delta G>
5.850

> <G>
39.553

> <E>
1.178

> <-TS>
38.375

> <U+W>
-22.966

> <U>
29.616

> <W>
-52.582

> <W(PB)>
-54.955

> <W(SA)>
2.373

> <Valence>
8.185

> <Coulomb>
21.112

> <VdW>
0.319

> <VdW6>
-11.889

> <VdW12>
12.208

> <Bond>
0.321

> <Angle>
2.380

> <Pdih>
5.484

> <Idih>
0.000

> <Tether>
0.000

$$$$
VeraChem MOL file


 29 28  0  0  0  0  0  0  0  0999 V2000     
   20.4470   20.6469   20.0463 C   0  0  0  0  0  0  0  0  0  0  0  0
   19.4554   21.0049   19.7400 H   0  0  0  0  0  0  0  0  0  0  0  0
   20.8773   21.3822   20.7387 H   0  0  0  0  0  0  0  0  0  0  0  0
   21.0837   20.6125   19.1527 H   0  0  0  0  0  0  0  0  0  0  0  0
   20.3548   19.2536   20.7035 C   0  0  0  0  0  0  0  0  0  0  0  0
   21.3641   18.9088   20.9688 H   0  0  0  0  0  0  0  0  0  0  0  0
   19.9543   18.5331   19.9766 H   0  0  0  0  0  0  0  0  0  0  0  0
   19.4629   19.2742   21.9642 C   0  0  0  0  0  0  0  0  0  0  0  0
   19.8604   20.0101   22.6717 H   0  0  0  0  0  0  0  0  0  0  0  0
   18.4551   19.6164   21.6911 H   0  0  0  0  0  0  0  0  0  0  0  0
   19.3690   17.8758   22.6226 C   0  0  0  0  0  0  0  0  0  0  0  0
   20.3698   17.4815   22.8443 H   0  0  0  0  0  0  0  0  0  0  0  0
   18.9316   17.1857   21.8878 H   0  0  0  0  0  0  0  0  0  0  0  0
   18.4895   17.8456   23.8987 C   0  0  0  0  0  0  0  0  0  0  0  0
   17.6574   18.5568   23.8026 H   0  0  0  0  0  0  0  0  0  0  0  0
   18.0217   16.8531   23.9598 H   0  0  0  0  0  0  0  0  0  0  0  0
   19.2413   18.0831   25.2360 C   0  0  0  0  0  0  0  0  0  0  0  0
   20.0218   17.3220   25.3686 H   0  0  0  0  0  0  0  0  0  0  0  0
   18.5208   17.9046   26.0452 H   0  0  0  0  0  0  0  0  0  0  0  0
   19.8374   19.5009   25.4040 C   0  0  2  0  0  0  0  0  0  0  0  0
   19.3235   20.1729   24.7108 H   0  0  0  0  0  0  0  0  0  0  0  0
   21.3465   19.5217   25.0985 C   0  0  0  0  0  0  0  0  0  0  0  0
   21.5597   19.1403   24.0940 H   0  0  0  0  0  0  0  0  0  0  0  0
   21.7379   20.5449   25.1545 H   0  0  0  0  0  0  0  0  0  0  0  0
   21.9029   18.9062   25.8164 H   0  0  0  0  0  0  0  0  0  0  0  0
   19.5876   20.0542   26.7803 N   0  3  0  0  0  0  0  0  0  0  0  0
   19.9586   21.0041   26.8745 H   0  0  0  0  0  0  0  0  0  0  0  0
   20.0333   19.4795   27.5008 H   0  0  0  0  0  0  0  0  0  0  0  0
   18.5867   20.0953   26.9938 H   0  0  0  0  0  0  0  0  0  0  0  0
  1  2  1  0  0  0  0
  1  3  1  0  0  0  0
  1  4  1  0  0  0  0
  1  5  1  0  0  0  0
  5  6  1  0  0  0  0
  5  7  1  0  0  0  0
  5  8  1  0  0  0  0
  8  9  1  0  0  0  0
  8 10  1  0  0  0  0
  8 11  1  0  0  0  0
 11 12  1  0  0  0  0
 11 13  1  0  0  0  0
 11 14  1  0  0  0  0
 14 15  1  0  0  0  0
 14 16  1  0  0  0  0
 14 17  1  0  0  0  0
 17 18  1  0  0  0  0
 17 19  1  0  0  0  0
 17 20  1  0  0  0  0
 20 21  1  0  0  0  0
 20 22  1  0  0  0  0
 22 23  1  0  0  0  0
 22 24  1  0  0  0  0
 22 25  1  0  0  0  0
 20 26  1  0  0  0  0
 26 27  1  0  0  0  0
 26 28  1  0  0  0  0
 26 29  1  0  0  0  0
M  END
> <VM2 Rank>
188

> <Conf_Id>
1307

> <Probability>
0.00

> <Sum Probability>
99.99

> <Delta G>
5.872

> <G>
39.574

> <E>
1.531

> <-TS>
38.044

> <U+W>
-22.614

> <U>
29.858

> <W>
-52.472

> <W(PB)>
-54.908

> <W(SA)>
2.436

> <Valence>
8.678

> <Coulomb>
20.336

> <VdW>
0.844

> <VdW6>
-10.507

> <VdW12>
11.351

> <Bond>
0.280

> <Angle>
2.113

> <Pdih>
6.285

> <Idih>
0.000

> <Tether>
0.000

$$$$
VeraChem MOL file


 29 28  0  0  0  0  0  0  0  0999 V2000     
   19.6939   19.6694   19.8782 C   0  0  0  0  0  0  0  0  0  0  0  0
   18.8715   19.1073   19.4172 H   0  0  0  0  0  0  0  0  0  0  0  0
   19.2775   20.5758   20.3350 H   0  0  0  0  0  0  0  0  0  0  0  0
   20.3754   19.9855   19.0780 H   0  0  0  0  0  0  0  0  0  0  0  0
   20.4429   18.8048   20.9171 C   0  0  0  0  0  0  0  0  0  0  0  0
   21.2485   19.3929   21.3767 H   0  0  0  0  0  0  0  0  0  0  0  0
   20.9370   17.9738   20.3947 H   0  0  0  0  0  0  0  0  0  0  0  0
   19.5166   18.2179   22.0122 C   0  0  0  0  0  0  0  0  0  0  0  0
   18.7794   17.5578   21.5351 H   0  0  0  0  0  0  0  0  0  0  0  0
   20.1124   17.5697   22.6667 H   0  0  0  0  0  0  0  0  0  0  0  0
   18.7590   19.2686   22.8684 C   0  0  0  0  0  0  0  0  0  0  0  0
   18.1191   18.7534   23.5940 H   0  0  0  0  0  0  0  0  0  0  0  0
   18.0620   19.8186   22.2225 H   0  0  0  0  0  0  0  0  0  0  0  0
   19.6608   20.2940   23.6038 C   0  0  0  0  0  0  0  0  0  0  0  0
   20.1669   20.9128   22.8511 H   0  0  0  0  0  0  0  0  0  0  0  0
   19.0225   20.9952   24.1570 H   0  0  0  0  0  0  0  0  0  0  0  0
   20.7447   19.7109   24.5581 C   0  0  0  0  0  0  0  0  0  0  0  0
   21.3567   20.5555   24.9003 H   0  0  0  0  0  0  0  0  0  0  0  0
   21.4378   19.0699   23.9989 H   0  0  0  0  0  0  0  0  0  0  0  0
   20.2544   18.9699   25.8298 C   0  0  2  0  0  0  0  0  0  0  0  0
   21.0757   19.0164   26.5516 H   0  0  0  0  0  0  0  0  0  0  0  0
   19.9756   17.4757   25.5891 C   0  0  0  0  0  0  0  0  0  0  0  0
   20.8396   16.9881   25.1213 H   0  0  0  0  0  0  0  0  0  0  0  0
   19.7879   16.9663   26.5422 H   0  0  0  0  0  0  0  0  0  0  0  0
   19.1021   17.3125   24.9512 H   0  0  0  0  0  0  0  0  0  0  0  0
   19.0880   19.6447   26.4973 N   0  3  0  0  0  0  0  0  0  0  0  0
   19.3040   20.6176   26.7326 H   0  0  0  0  0  0  0  0  0  0  0  0
   18.8258   19.1689   27.3652 H   0  0  0  0  0  0  0  0  0  0  0  0
   18.2680   19.6494   25.8856 H   0  0  0  0  0  0  0  0  0  0  0  0
  1  2  1  0  0  0  0
  1  3  1  0  0  0  0
  1  4  1  0  0  0  0
  1  5  1  0  0  0  0
  5  6  1  0  0  0  0
  5  7  1  0  0  0  0
  5  8  1  0  0  0  0
  8  9  1  0  0  0  0
  8 10  1  0  0  0  0
  8 11  1  0  0  0  0
 11 12  1  0  0  0  0
 11 13  1  0  0  0  0
 11 14  1  0  0  0  0
 14 15  1  0  0  0  0
 14 16  1  0  0  0  0
 14 17  1  0  0  0  0
 17 18  1  0  0  0  0
 17 19  1  0  0  0  0
 17 20  1  0  0  0  0
 20 21  1  0  0  0  0
 20 22  1  0  0  0  0
 22 23  1  0  0  0  0
 22 24  1  0  0  0  0
 22 25  1  0  0  0  0
 20 26  1  0  0  0  0
 26 27  1  0  0  0  0
 26 28  1  0  0  0  0
 26 29  1  0  0  0  0
M  END
> <VM2 Rank>
189

> <Conf_Id>
178

> <Probability>
0.00

> <Sum Probability>
100.00

> <Delta G>
5.943

> <G>
39.645

> <E>
0.660

> <-TS>
38.985

> <U+W>
-23.485

> <U>
29.136

> <W>
-52.620

> <W(PB)>
-54.965

> <W(SA)>
2.344

> <Valence>
7.786

> <Coulomb>
20.543

> <VdW>
0.806

> <VdW6>
-12.839

> <VdW12>
13.645

> <Bond>
0.443

> <Angle>
3.662

> <Pdih>
3.681

> <Idih>
0.000

> <Tether>
0.000

$$$$
VeraChem MOL file


 29 28  0  0  0  0  0  0  0  0999 V2000     
   19.0105   19.7001   20.0901 C   0  0  0  0  0  0  0  0  0  0  0  0
   19.8543   19.6590   19.3893 H   0  0  0  0  0  0  0  0  0  0  0  0
   18.6395   18.6790   20.2436 H   0  0  0  0  0  0  0  0  0  0  0  0
   18.2059   20.2755   19.6143 H   0  0  0  0  0  0  0  0  0  0  0  0
   19.4284   20.3560   21.4252 C   0  0  0  0  0  0  0  0  0  0  0  0
   18.5732   20.3634   22.1116 H   0  0  0  0  0  0  0  0  0  0  0  0
   19.6702   21.4115   21.2374 H   0  0  0  0  0  0  0  0  0  0  0  0
   20.6586   19.6814   22.0862 C   0  0  0  0  0  0  0  0  0  0  0  0
   21.5195   19.8053   21.4148 H   0  0  0  0  0  0  0  0  0  0  0  0
   20.9245   20.2329   22.9944 H   0  0  0  0  0  0  0  0  0  0  0  0
   20.5078   18.1662   22.3984 C   0  0  0  0  0  0  0  0  0  0  0  0
   21.4561   17.7852   22.8013 H   0  0  0  0  0  0  0  0  0  0  0  0
   20.3679   17.6319   21.4495 H   0  0  0  0  0  0  0  0  0  0  0  0
   19.3501   17.7725   23.3568 C   0  0  0  0  0  0  0  0  0  0  0  0
   18.4467   18.3578   23.1498 H   0  0  0  0  0  0  0  0  0  0  0  0
   19.0718   16.7348   23.1269 H   0  0  0  0  0  0  0  0  0  0  0  0
   19.7043   17.8203   24.8680 C   0  0  0  0  0  0  0  0  0  0  0  0
   20.5396   17.1326   25.0557 H   0  0  0  0  0  0  0  0  0  0  0  0
   18.8536   17.4248   25.4387 H   0  0  0  0  0  0  0  0  0  0  0  0
   20.0723   19.2135   25.4209 C   0  0  2  0  0  0  0  0  0  0  0  0
   20.9586   19.5711   24.8909 H   0  0  0  0  0  0  0  0  0  0  0  0
   20.4203   19.1209   26.9149 C   0  0  0  0  0  0  0  0  0  0  0  0
   21.2530   18.4255   27.0784 H   0  0  0  0  0  0  0  0  0  0  0  0
   20.7237   20.1007   27.3041 H   0  0  0  0  0  0  0  0  0  0  0  0
   19.5622   18.7707   27.5022 H   0  0  0  0  0  0  0  0  0  0  0  0
   18.9836   20.2250   25.1935 N   0  3  0  0  0  0  0  0  0  0  0  0
   19.2521   21.1496   25.5426 H   0  0  0  0  0  0  0  0  0  0  0  0
   18.1197   19.9543   25.6712 H   0  0  0  0  0  0  0  0  0  0  0  0
   18.7734   20.3162   24.1961 H   0  0  0  0  0  0  0  0  0  0  0  0
  1  2  1  0  0  0  0
  1  3  1  0  0  0  0
  1  4  1  0  0  0  0
  1  5  1  0  0  0  0
  5  6  1  0  0  0  0
  5  7  1  0  0  0  0
  5  8  1  0  0  0  0
  8  9  1  0  0  0  0
  8 10  1  0  0  0  0
  8 11  1  0  0  0  0
 11 12  1  0  0  0  0
 11 13  1  0  0  0  0
 11 14  1  0  0  0  0
 14 15  1  0  0  0  0
 14 16  1  0  0  0  0
 14 17  1  0  0  0  0
 17 18  1  0  0  0  0
 17 19  1  0  0  0  0
 17 20  1  0  0  0  0
 20 21  1  0  0  0  0
 20 22  1  0  0  0  0
 22 23  1  0  0  0  0
 22 24  1  0  0  0  0
 22 25  1  0  0  0  0
 20 26  1  0  0  0  0
 26 27  1  0  0  0  0
 26 28  1  0  0  0  0
 26 29  1  0  0  0  0
M  END
> <VM2 Rank>
190

> <Conf_Id>
652

> <Probability>
0.00

> <Sum Probability>
100.00

> <Delta G>
6.007

> <G>
39.709

> <E>
1.224

> <-TS>
38.485

> <U+W>
-22.920

> <U>
29.194

> <W>
-52.114

> <W(PB)>
-54.495

> <W(SA)>
2.380

> <Valence>
7.015

> <Coulomb>
21.616

> <VdW>
0.563

> <VdW6>
-12.007

> <VdW12>
12.570

> <Bond>
0.392

> <Angle>
2.976

> <Pdih>
3.646

> <Idih>
0.000

> <Tether>
0.000

$$$$
VeraChem MOL file


 29 28  0  0  0  0  0  0  0  0999 V2000     
   20.8291   19.3369   20.0252 C   0  0  0  0  0  0  0  0  0  0  0  0
   21.4990   20.0016   19.4645 H   0  0  0  0  0  0  0  0  0  0  0  0
   21.4198   18.8668   20.8187 H   0  0  0  0  0  0  0  0  0  0  0  0
   20.4931   18.5481   19.3397 H   0  0  0  0  0  0  0  0  0  0  0  0
   19.6265   20.1313   20.5856 C   0  0  0  0  0  0  0  0  0  0  0  0
   19.1200   20.6164   19.7395 H   0  0  0  0  0  0  0  0  0  0  0  0
   19.9765   20.9454   21.2352 H   0  0  0  0  0  0  0  0  0  0  0  0
   18.5939   19.2498   21.3348 C   0  0  0  0  0  0  0  0  0  0  0  0
   17.5971   19.6824   21.1718 H   0  0  0  0  0  0  0  0  0  0  0  0
   18.5561   18.2459   20.8899 H   0  0  0  0  0  0  0  0  0  0  0  0
   18.8111   19.1496   22.8668 C   0  0  0  0  0  0  0  0  0  0  0  0
   17.9689   18.5891   23.2954 H   0  0  0  0  0  0  0  0  0  0  0  0
   18.7699   20.1605   23.2906 H   0  0  0  0  0  0  0  0  0  0  0  0
   20.1365   18.4625   23.2749 C   0  0  0  0  0  0  0  0  0  0  0  0
   20.2761   17.5686   22.6516 H   0  0  0  0  0  0  0  0  0  0  0  0
   20.9801   19.1306   23.0568 H   0  0  0  0  0  0  0  0  0  0  0  0
   20.2108   18.0247   24.7615 C   0  0  0  0  0  0  0  0  0  0  0  0
   21.1327   17.4396   24.8791 H   0  0  0  0  0  0  0  0  0  0  0  0
   19.3878   17.3369   24.9963 H   0  0  0  0  0  0  0  0  0  0  0  0
   20.2350   19.1887   25.7803 C   0  0  2  0  0  0  0  0  0  0  0  0
   20.8843   19.9773   25.3880 H   0  0  0  0  0  0  0  0  0  0  0  0
   20.8140   18.7119   27.1225 C   0  0  0  0  0  0  0  0  0  0  0  0
   20.2055   17.9069   27.5535 H   0  0  0  0  0  0  0  0  0  0  0  0
   21.8372   18.3368   26.9959 H   0  0  0  0  0  0  0  0  0  0  0  0
   20.8513   19.5368   27.8448 H   0  0  0  0  0  0  0  0  0  0  0  0
   18.8792   19.8006   26.0024 N   0  3  0  0  0  0  0  0  0  0  0  0
   18.2259   19.1208   26.4006 H   0  0  0  0  0  0  0  0  0  0  0  0
   18.4752   20.1402   25.1266 H   0  0  0  0  0  0  0  0  0  0  0  0
   18.9283   20.5934   26.6487 H   0  0  0  0  0  0  0  0  0  0  0  0
  1  2  1  0  0  0  0
  1  3  1  0  0  0  0
  1  4  1  0  0  0  0
  1  5  1  0  0  0  0
  5  6  1  0  0  0  0
  5  7  1  0  0  0  0
  5  8  1  0  0  0  0
  8  9  1  0  0  0  0
  8 10  1  0  0  0  0
  8 11  1  0  0  0  0
 11 12  1  0  0  0  0
 11 13  1  0  0  0  0
 11 14  1  0  0  0  0
 14 15  1  0  0  0  0
 14 16  1  0  0  0  0
 14 17  1  0  0  0  0
 17 18  1  0  0  0  0
 17 19  1  0  0  0  0
 17 20  1  0  0  0  0
 20 21  1  0  0  0  0
 20 22  1  0  0  0  0
 22 23  1  0  0  0  0
 22 24  1  0  0  0  0
 22 25  1  0  0  0  0
 20 26  1  0  0  0  0
 26 27  1  0  0  0  0
 26 28  1  0  0  0  0
 26 29  1  0  0  0  0
M  END
> <VM2 Rank>
191

> <Conf_Id>
1322

> <Probability>
0.00

> <Sum Probability>
100.00

> <Delta G>
6.079

> <G>
39.781

> <E>
2.059

> <-TS>
37.722

> <U+W>
-22.086

> <U>
30.184

> <W>
-52.270

> <W(PB)>
-54.706

> <W(SA)>
2.436

> <Valence>
7.816

> <Coulomb>
21.246

> <VdW>
1.122

> <VdW6>
-10.606

> <VdW12>
11.728

> <Bond>
0.328

> <Angle>
2.364

> <Pdih>
5.124

> <Idih>
0.000

> <Tether>
0.000

$$$$
VeraChem MOL file


 29 28  0  0  0  0  0  0  0  0999 V2000     
   19.3838   18.3792   19.6302 C   0  0  0  0  0  0  0  0  0  0  0  0
   20.2817   18.7189   19.0978 H   0  0  0  0  0  0  0  0  0  0  0  0
   19.2706   17.3027   19.4477 H   0  0  0  0  0  0  0  0  0  0  0  0
   18.5144   18.8880   19.1939 H   0  0  0  0  0  0  0  0  0  0  0  0
   19.4942   18.6667   21.1425 C   0  0  0  0  0  0  0  0  0  0  0  0
   20.3506   18.1119   21.5482 H   0  0  0  0  0  0  0  0  0  0  0  0
   18.5953   18.2910   21.6506 H   0  0  0  0  0  0  0  0  0  0  0  0
   19.6614   20.1774   21.4248 C   0  0  0  0  0  0  0  0  0  0  0  0
   20.5895   20.5366   20.9591 H   0  0  0  0  0  0  0  0  0  0  0  0
   18.8432   20.7240   20.9358 H   0  0  0  0  0  0  0  0  0  0  0  0
   19.6636   20.5458   22.9306 C   0  0  0  0  0  0  0  0  0  0  0  0
   18.7008   20.2671   23.3756 H   0  0  0  0  0  0  0  0  0  0  0  0
   19.7224   21.6406   23.0042 H   0  0  0  0  0  0  0  0  0  0  0  0
   20.8475   19.9410   23.7339 C   0  0  0  0  0  0  0  0  0  0  0  0
   21.7000   19.7943   23.0564 H   0  0  0  0  0  0  0  0  0  0  0  0
   21.1946   20.6707   24.4786 H   0  0  0  0  0  0  0  0  0  0  0  0
   20.5278   18.6020   24.4531 C   0  0  0  0  0  0  0  0  0  0  0  0
   21.4545   18.0149   24.5019 H   0  0  0  0  0  0  0  0  0  0  0  0
   19.8201   18.0030   23.8675 H   0  0  0  0  0  0  0  0  0  0  0  0
   20.0020   18.7783   25.8964 C   0  0  2  0  0  0  0  0  0  0  0  0
   20.7444   19.3522   26.4595 H   0  0  0  0  0  0  0  0  0  0  0  0
   19.8377   17.4092   26.5754 C   0  0  0  0  0  0  0  0  0  0  0  0
   19.5065   17.5282   27.6144 H   0  0  0  0  0  0  0  0  0  0  0  0
   19.0989   16.7915   26.0496 H   0  0  0  0  0  0  0  0  0  0  0  0
   20.7899   16.8644   26.5904 H   0  0  0  0  0  0  0  0  0  0  0  0
   18.7181   19.5564   25.9672 N   0  3  0  0  0  0  0  0  0  0  0  0
   18.4180   19.6964   26.9362 H   0  0  0  0  0  0  0  0  0  0  0  0
   17.9619   19.0712   25.4774 H   0  0  0  0  0  0  0  0  0  0  0  0
   18.8244   20.4804   25.5393 H   0  0  0  0  0  0  0  0  0  0  0  0
  1  2  1  0  0  0  0
  1  3  1  0  0  0  0
  1  4  1  0  0  0  0
  1  5  1  0  0  0  0
  5  6  1  0  0  0  0
  5  7  1  0  0  0  0
  5  8  1  0  0  0  0
  8  9  1  0  0  0  0
  8 10  1  0  0  0  0
  8 11  1  0  0  0  0
 11 12  1  0  0  0  0
 11 13  1  0  0  0  0
 11 14  1  0  0  0  0
 14 15  1  0  0  0  0
 14 16  1  0  0  0  0
 14 17  1  0  0  0  0
 17 18  1  0  0  0  0
 17 19  1  0  0  0  0
 17 20  1  0  0  0  0
 20 21  1  0  0  0  0
 20 22  1  0  0  0  0
 22 23  1  0  0  0  0
 22 24  1  0  0  0  0
 22 25  1  0  0  0  0
 20 26  1  0  0  0  0
 26 27  1  0  0  0  0
 26 28  1  0  0  0  0
 26 29  1  0  0  0  0
M  END
> <VM2 Rank>
192

> <Conf_Id>
689

> <Probability>
0.00

> <Sum Probability>
100.00

> <Delta G>
6.114

> <G>
39.816

> <E>
1.853

> <-TS>
37.963

> <U+W>
-22.292

> <U>
30.054

> <W>
-52.345

> <W(PB)>
-54.788

> <W(SA)>
2.442

> <Valence>
8.013

> <Coulomb>
20.944

> <VdW>
1.097

> <VdW6>
-10.535

> <VdW12>
11.631

> <Bond>
0.334

> <Angle>
1.816

> <Pdih>
5.864

> <Idih>
0.000

> <Tether>
0.000

$$$$
VeraChem MOL file


 29 28  0  0  0  0  0  0  0  0999 V2000     
   18.7012   20.7184   20.9177 C   0  0  0  0  0  0  0  0  0  0  0  0
   19.4948   21.3389   21.3515 H   0  0  0  0  0  0  0  0  0  0  0  0
   18.3423   21.2301   20.0153 H   0  0  0  0  0  0  0  0  0  0  0  0
   17.8662   20.6733   21.6286 H   0  0  0  0  0  0  0  0  0  0  0  0
   19.2110   19.3024   20.5650 C   0  0  0  0  0  0  0  0  0  0  0  0
   20.0541   19.3755   19.8639 H   0  0  0  0  0  0  0  0  0  0  0  0
   18.4149   18.7633   20.0326 H   0  0  0  0  0  0  0  0  0  0  0  0
   19.6284   18.4743   21.8032 C   0  0  0  0  0  0  0  0  0  0  0  0
   18.7780   18.4084   22.4925 H   0  0  0  0  0  0  0  0  0  0  0  0
   19.8392   17.4451   21.4812 H   0  0  0  0  0  0  0  0  0  0  0  0
   20.8813   19.0369   22.5217 C   0  0  0  0  0  0  0  0  0  0  0  0
   20.7219   20.0715   22.8448 H   0  0  0  0  0  0  0  0  0  0  0  0
   21.7070   19.0825   21.7982 H   0  0  0  0  0  0  0  0  0  0  0  0
   21.3416   18.1774   23.7262 C   0  0  0  0  0  0  0  0  0  0  0  0
   21.6363   17.1857   23.3561 H   0  0  0  0  0  0  0  0  0  0  0  0
   22.2560   18.6221   24.1428 H   0  0  0  0  0  0  0  0  0  0  0  0
   20.3134   17.9874   24.8757 C   0  0  0  0  0  0  0  0  0  0  0  0
   20.7869   17.3366   25.6227 H   0  0  0  0  0  0  0  0  0  0  0  0
   19.4334   17.4351   24.5227 H   0  0  0  0  0  0  0  0  0  0  0  0
   19.8752   19.2979   25.5718 C   0  0  2  0  0  0  0  0  0  0  0  0
   20.7509   19.9481   25.6613 H   0  0  0  0  0  0  0  0  0  0  0  0
   19.3451   19.0057   26.9850 C   0  0  0  0  0  0  0  0  0  0  0  0
   18.4734   18.3401   26.9520 H   0  0  0  0  0  0  0  0  0  0  0  0
   20.1171   18.5278   27.6010 H   0  0  0  0  0  0  0  0  0  0  0  0
   19.0481   19.9340   27.4884 H   0  0  0  0  0  0  0  0  0  0  0  0
   18.8388   20.0555   24.7878 N   0  3  0  0  0  0  0  0  0  0  0  0
   18.6390   20.9657   25.2133 H   0  0  0  0  0  0  0  0  0  0  0  0
   17.9574   19.5369   24.7450 H   0  0  0  0  0  0  0  0  0  0  0  0
   19.1500   20.2173   23.8257 H   0  0  0  0  0  0  0  0  0  0  0  0
  1  2  1  0  0  0  0
  1  3  1  0  0  0  0
  1  4  1  0  0  0  0
  1  5  1  0  0  0  0
  5  6  1  0  0  0  0
  5  7  1  0  0  0  0
  5  8  1  0  0  0  0
  8  9  1  0  0  0  0
  8 10  1  0  0  0  0
  8 11  1  0  0  0  0
 11 12  1  0  0  0  0
 11 13  1  0  0  0  0
 11 14  1  0  0  0  0
 14 15  1  0  0  0  0
 14 16  1  0  0  0  0
 14 17  1  0  0  0  0
 17 18  1  0  0  0  0
 17 19  1  0  0  0  0
 17 20  1  0  0  0  0
 20 21  1  0  0  0  0
 20 22  1  0  0  0  0
 22 23  1  0  0  0  0
 22 24  1  0  0  0  0
 22 25  1  0  0  0  0
 20 26  1  0  0  0  0
 26 27  1  0  0  0  0
 26 28  1  0  0  0  0
 26 29  1  0  0  0  0
M  END
> <VM2 Rank>
193

> <Conf_Id>
1355

> <Probability>
0.00

> <Sum Probability>
100.00

> <Delta G>
6.249

> <G>
39.951

> <E>
1.609

> <-TS>
38.342

> <U+W>
-22.535

> <U>
28.370

> <W>
-50.905

> <W(PB)>
-53.306

> <W(SA)>
2.400

> <Valence>
5.939

> <Coulomb>
21.711

> <VdW>
0.720

> <VdW6>
-11.570

> <VdW12>
12.290

> <Bond>
0.321

> <Angle>
2.349

> <Pdih>
3.270

> <Idih>
0.000

> <Tether>
0.000

$$$$
VeraChem MOL file


 29 28  0  0  0  0  0  0  0  0999 V2000     
   21.2928   19.9372   21.3351 C   0  0  0  0  0  0  0  0  0  0  0  0
   22.3421   19.6472   21.1952 H   0  0  0  0  0  0  0  0  0  0  0  0
   21.1243   20.8610   20.7667 H   0  0  0  0  0  0  0  0  0  0  0  0
   21.1504   20.1656   22.3964 H   0  0  0  0  0  0  0  0  0  0  0  0
   20.3511   18.8115   20.8471 C   0  0  0  0  0  0  0  0  0  0  0  0
   20.5762   17.8664   21.3590 H   0  0  0  0  0  0  0  0  0  0  0  0
   20.5671   18.6330   19.7843 H   0  0  0  0  0  0  0  0  0  0  0  0
   18.8471   19.1578   20.9881 C   0  0  0  0  0  0  0  0  0  0  0  0
   18.6927   20.2369   20.8510 H   0  0  0  0  0  0  0  0  0  0  0  0
   18.3152   18.6788   20.1544 H   0  0  0  0  0  0  0  0  0  0  0  0
   18.1636   18.6837   22.2995 C   0  0  0  0  0  0  0  0  0  0  0  0
   18.2474   17.5925   22.3957 H   0  0  0  0  0  0  0  0  0  0  0  0
   17.0885   18.8856   22.1959 H   0  0  0  0  0  0  0  0  0  0  0  0
   18.6514   19.3773   23.5967 C   0  0  0  0  0  0  0  0  0  0  0  0
   19.0109   20.3898   23.3695 H   0  0  0  0  0  0  0  0  0  0  0  0
   17.7859   19.5062   24.2603 H   0  0  0  0  0  0  0  0  0  0  0  0
   19.7335   18.5648   24.3540 C   0  0  0  0  0  0  0  0  0  0  0  0
   20.5478   18.3034   23.6693 H   0  0  0  0  0  0  0  0  0  0  0  0
   19.3055   17.6137   24.6974 H   0  0  0  0  0  0  0  0  0  0  0  0
   20.3252   19.3306   25.5567 C   0  0  2  0  0  0  0  0  0  0  0  0
   20.7206   20.2845   25.1944 H   0  0  0  0  0  0  0  0  0  0  0  0
   21.4825   18.5346   26.1804 C   0  0  0  0  0  0  0  0  0  0  0  0
   21.9310   19.0899   27.0135 H   0  0  0  0  0  0  0  0  0  0  0  0
   21.1375   17.5654   26.5619 H   0  0  0  0  0  0  0  0  0  0  0  0
   22.2715   18.3496   25.4409 H   0  0  0  0  0  0  0  0  0  0  0  0
   19.2887   19.6584   26.5963 N   0  3  0  0  0  0  0  0  0  0  0  0
   19.6938   20.1848   27.3757 H   0  0  0  0  0  0  0  0  0  0  0  0
   18.8689   18.8096   26.9847 H   0  0  0  0  0  0  0  0  0  0  0  0
   18.5322   20.2252   26.2037 H   0  0  0  0  0  0  0  0  0  0  0  0
  1  2  1  0  0  0  0
  1  3  1  0  0  0  0
  1  4  1  0  0  0  0
  1  5  1  0  0  0  0
  5  6  1  0  0  0  0
  5  7  1  0  0  0  0
  5  8  1  0  0  0  0
  8  9  1  0  0  0  0
  8 10  1  0  0  0  0
  8 11  1  0  0  0  0
 11 12  1  0  0  0  0
 11 13  1  0  0  0  0
 11 14  1  0  0  0  0
 14 15  1  0  0  0  0
 14 16  1  0  0  0  0
 14 17  1  0  0  0  0
 17 18  1  0  0  0  0
 17 19  1  0  0  0  0
 17 20  1  0  0  0  0
 20 21  1  0  0  0  0
 20 22  1  0  0  0  0
 22 23  1  0  0  0  0
 22 24  1  0  0  0  0
 22 25  1  0  0  0  0
 20 26  1  0  0  0  0
 26 27  1  0  0  0  0
 26 28  1  0  0  0  0
 26 29  1  0  0  0  0
M  END
> <VM2 Rank>
194

> <Conf_Id>
1294

> <Probability>
0.00

> <Sum Probability>
100.00

> <Delta G>
6.256

> <G>
39.958

> <E>
1.673

> <-TS>
38.285

> <U+W>
-22.471

> <U>
30.008

> <W>
-52.480

> <W(PB)>
-54.891

> <W(SA)>
2.411

> <Valence>
8.778

> <Coulomb>
20.386

> <VdW>
0.844

> <VdW6>
-10.989

> <VdW12>
11.834

> <Bond>
0.330

> <Angle>
2.382

> <Pdih>
6.067

> <Idih>
0.000

> <Tether>
0.000

$$$$
VeraChem MOL file


 29 28  0  0  0  0  0  0  0  0999 V2000     
   18.0809   19.7612   20.9364 C   0  0  0  0  0  0  0  0  0  0  0  0
   17.5077   19.9097   20.0121 H   0  0  0  0  0  0  0  0  0  0  0  0
   17.6810   18.8666   21.4291 H   0  0  0  0  0  0  0  0  0  0  0  0
   17.8972   20.6276   21.5846 H   0  0  0  0  0  0  0  0  0  0  0  0
   19.5861   19.6129   20.6168 C   0  0  0  0  0  0  0  0  0  0  0  0
   19.9081   20.4804   20.0240 H   0  0  0  0  0  0  0  0  0  0  0  0
   19.7452   18.7305   19.9813 H   0  0  0  0  0  0  0  0  0  0  0  0
   20.4752   19.5173   21.8792 C   0  0  0  0  0  0  0  0  0  0  0  0
   21.5286   19.5547   21.5692 H   0  0  0  0  0  0  0  0  0  0  0  0
   20.3098   20.4049   22.5016 H   0  0  0  0  0  0  0  0  0  0  0  0
   20.2421   18.2206   22.6954 C   0  0  0  0  0  0  0  0  0  0  0  0
   20.4153   17.3580   22.0373 H   0  0  0  0  0  0  0  0  0  0  0  0
   19.1978   18.1389   23.0148 H   0  0  0  0  0  0  0  0  0  0  0  0
   21.1780   18.0878   23.9235 C   0  0  0  0  0  0  0  0  0  0  0  0
   21.0029   17.1129   24.3979 H   0  0  0  0  0  0  0  0  0  0  0  0
   22.2164   18.0522   23.5662 H   0  0  0  0  0  0  0  0  0  0  0  0
   21.0710   19.2099   24.9979 C   0  0  0  0  0  0  0  0  0  0  0  0
   21.4060   20.1646   24.5736 H   0  0  0  0  0  0  0  0  0  0  0  0
   21.7975   18.9799   25.7884 H   0  0  0  0  0  0  0  0  0  0  0  0
   19.6932   19.4121   25.6795 C   0  0  2  0  0  0  0  0  0  0  0  0
   19.8572   20.0685   26.5396 H   0  0  0  0  0  0  0  0  0  0  0  0
   19.1044   18.0956   26.2159 C   0  0  0  0  0  0  0  0  0  0  0  0
   19.8277   17.5812   26.8606 H   0  0  0  0  0  0  0  0  0  0  0  0
   18.2064   18.2923   26.8142 H   0  0  0  0  0  0  0  0  0  0  0  0
   18.8234   17.4155   25.4031 H   0  0  0  0  0  0  0  0  0  0  0  0
   18.7051   20.1386   24.8094 N   0  3  0  0  0  0  0  0  0  0  0  0
   19.0422   21.0743   24.5657 H   0  0  0  0  0  0  0  0  0  0  0  0
   17.8033   20.2512   25.2819 H   0  0  0  0  0  0  0  0  0  0  0  0
   18.5432   19.6313   23.9358 H   0  0  0  0  0  0  0  0  0  0  0  0
  1  2  1  0  0  0  0
  1  3  1  0  0  0  0
  1  4  1  0  0  0  0
  1  5  1  0  0  0  0
  5  6  1  0  0  0  0
  5  7  1  0  0  0  0
  5  8  1  0  0  0  0
  8  9  1  0  0  0  0
  8 10  1  0  0  0  0
  8 11  1  0  0  0  0
 11 12  1  0  0  0  0
 11 13  1  0  0  0  0
 11 14  1  0  0  0  0
 14 15  1  0  0  0  0
 14 16  1  0  0  0  0
 14 17  1  0  0  0  0
 17 18  1  0  0  0  0
 17 19  1  0  0  0  0
 17 20  1  0  0  0  0
 20 21  1  0  0  0  0
 20 22  1  0  0  0  0
 22 23  1  0  0  0  0
 22 24  1  0  0  0  0
 22 25  1  0  0  0  0
 20 26  1  0  0  0  0
 26 27  1  0  0  0  0
 26 28  1  0  0  0  0
 26 29  1  0  0  0  0
M  END
> <VM2 Rank>
195

> <Conf_Id>
282

> <Probability>
0.00

> <Sum Probability>
100.00

> <Delta G>
6.289

> <G>
39.991

> <E>
1.248

> <-TS>
38.744

> <U+W>
-22.897

> <U>
28.640

> <W>
-51.537

> <W(PB)>
-53.873

> <W(SA)>
2.335

> <Valence>
6.059

> <Coulomb>
21.999

> <VdW>
0.582

> <VdW6>
-12.550

> <VdW12>
13.132

> <Bond>
0.383

> <Angle>
2.850

> <Pdih>
2.826

> <Idih>
0.000

> <Tether>
0.000

$$$$
VeraChem MOL file


 29 28  0  0  0  0  0  0  0  0999 V2000     
   20.5554   18.5246   20.1644 C   0  0  0  0  0  0  0  0  0  0  0  0
   20.8270   19.3512   19.4951 H   0  0  0  0  0  0  0  0  0  0  0  0
   21.3124   18.4664   20.9538 H   0  0  0  0  0  0  0  0  0  0  0  0
   20.6105   17.5947   19.5838 H   0  0  0  0  0  0  0  0  0  0  0  0
   19.1315   18.7211   20.7348 C   0  0  0  0  0  0  0  0  0  0  0  0
   18.8489   17.8624   21.3595 H   0  0  0  0  0  0  0  0  0  0  0  0
   18.4279   18.7252   19.8906 H   0  0  0  0  0  0  0  0  0  0  0  0
   18.9580   20.0437   21.5255 C   0  0  0  0  0  0  0  0  0  0  0  0
   19.6157   20.8221   21.1150 H   0  0  0  0  0  0  0  0  0  0  0  0
   17.9337   20.4060   21.3613 H   0  0  0  0  0  0  0  0  0  0  0  0
   19.1666   19.9187   23.0566 C   0  0  0  0  0  0  0  0  0  0  0  0
   18.4423   19.1949   23.4498 H   0  0  0  0  0  0  0  0  0  0  0  0
   18.9284   20.8883   23.5151 H   0  0  0  0  0  0  0  0  0  0  0  0
   20.5994   19.5037   23.4690 C   0  0  0  0  0  0  0  0  0  0  0  0
   20.7813   18.4607   23.1812 H   0  0  0  0  0  0  0  0  0  0  0  0
   21.3176   20.1070   22.8972 H   0  0  0  0  0  0  0  0  0  0  0  0
   20.9173   19.6896   24.9794 C   0  0  0  0  0  0  0  0  0  0  0  0
   20.8439   20.7541   25.2375 H   0  0  0  0  0  0  0  0  0  0  0  0
   21.9718   19.4253   25.1334 H   0  0  0  0  0  0  0  0  0  0  0  0
   20.0773   18.8675   25.9901 C   0  0  2  0  0  0  0  0  0  0  0  0
   20.5708   18.9632   26.9622 H   0  0  0  0  0  0  0  0  0  0  0  0
   20.0380   17.3696   25.6411 C   0  0  0  0  0  0  0  0  0  0  0  0
   19.5633   16.7994   26.4490 H   0  0  0  0  0  0  0  0  0  0  0  0
   19.4714   17.1828   24.7210 H   0  0  0  0  0  0  0  0  0  0  0  0
   21.0529   16.9751   25.5069 H   0  0  0  0  0  0  0  0  0  0  0  0
   18.6925   19.4175   26.1931 N   0  3  0  0  0  0  0  0  0  0  0  0
   18.7191   20.3950   26.4972 H   0  0  0  0  0  0  0  0  0  0  0  0
   18.1818   18.8891   26.9063 H   0  0  0  0  0  0  0  0  0  0  0  0
   18.1477   19.3776   25.3292 H   0  0  0  0  0  0  0  0  0  0  0  0
  1  2  1  0  0  0  0
  1  3  1  0  0  0  0
  1  4  1  0  0  0  0
  1  5  1  0  0  0  0
  5  6  1  0  0  0  0
  5  7  1  0  0  0  0
  5  8  1  0  0  0  0
  8  9  1  0  0  0  0
  8 10  1  0  0  0  0
  8 11  1  0  0  0  0
 11 12  1  0  0  0  0
 11 13  1  0  0  0  0
 11 14  1  0  0  0  0
 14 15  1  0  0  0  0
 14 16  1  0  0  0  0
 14 17  1  0  0  0  0
 17 18  1  0  0  0  0
 17 19  1  0  0  0  0
 17 20  1  0  0  0  0
 20 21  1  0  0  0  0
 20 22  1  0  0  0  0
 22 23  1  0  0  0  0
 22 24  1  0  0  0  0
 22 25  1  0  0  0  0
 20 26  1  0  0  0  0
 26 27  1  0  0  0  0
 26 28  1  0  0  0  0
 26 29  1  0  0  0  0
M  END
> <VM2 Rank>
196

> <Conf_Id>
1641

> <Probability>
0.00

> <Sum Probability>
100.00

> <Delta G>
6.381

> <G>
40.083

> <E>
1.766

> <-TS>
38.318

> <U+W>
-22.379

> <U>
30.296

> <W>
-52.675

> <W(PB)>
-55.072

> <W(SA)>
2.397

> <Valence>
7.940

> <Coulomb>
21.395

> <VdW>
0.961

> <VdW6>
-11.719

> <VdW12>
12.679

> <Bond>
0.376

> <Angle>
2.869

> <Pdih>
4.695

> <Idih>
0.000

> <Tether>
0.000

$$$$
VeraChem MOL file


 29 28  0  0  0  0  0  0  0  0999 V2000     
   20.4921   19.7848   19.5626 C   0  0  0  0  0  0  0  0  0  0  0  0
   21.3619   20.4279   19.3761 H   0  0  0  0  0  0  0  0  0  0  0  0
   20.6307   18.8570   18.9924 H   0  0  0  0  0  0  0  0  0  0  0  0
   19.6036   20.2973   19.1712 H   0  0  0  0  0  0  0  0  0  0  0  0
   20.3439   19.4927   21.0708 C   0  0  0  0  0  0  0  0  0  0  0  0
   20.2453   20.4447   21.6092 H   0  0  0  0  0  0  0  0  0  0  0  0
   21.2578   19.0059   21.4384 H   0  0  0  0  0  0  0  0  0  0  0  0
   19.1202   18.5932   21.3597 C   0  0  0  0  0  0  0  0  0  0  0  0
   18.2041   19.1070   21.0374 H   0  0  0  0  0  0  0  0  0  0  0  0
   19.1930   17.6851   20.7455 H   0  0  0  0  0  0  0  0  0  0  0  0
   18.9780   18.1686   22.8441 C   0  0  0  0  0  0  0  0  0  0  0  0
   19.8526   17.5784   23.1448 H   0  0  0  0  0  0  0  0  0  0  0  0
   18.1203   17.4853   22.9129 H   0  0  0  0  0  0  0  0  0  0  0  0
   18.7388   19.3459   23.8281 C   0  0  0  0  0  0  0  0  0  0  0  0
   18.2211   20.1548   23.2946 H   0  0  0  0  0  0  0  0  0  0  0  0
   18.0373   19.0244   24.6085 H   0  0  0  0  0  0  0  0  0  0  0  0
   20.0302   19.9120   24.4873 C   0  0  0  0  0  0  0  0  0  0  0  0
   19.9071   20.9955   24.6142 H   0  0  0  0  0  0  0  0  0  0  0  0
   20.8865   19.7933   23.8130 H   0  0  0  0  0  0  0  0  0  0  0  0
   20.3961   19.3174   25.8699 C   0  0  2  0  0  0  0  0  0  0  0  0
   21.3185   19.8067   26.1977 H   0  0  0  0  0  0  0  0  0  0  0  0
   20.6701   17.8056   25.8121 C   0  0  0  0  0  0  0  0  0  0  0  0
   21.0341   17.4439   26.7815 H   0  0  0  0  0  0  0  0  0  0  0  0
   19.7636   17.2414   25.5622 H   0  0  0  0  0  0  0  0  0  0  0  0
   21.4388   17.5779   25.0634 H   0  0  0  0  0  0  0  0  0  0  0  0
   19.3666   19.6359   26.9195 N   0  3  0  0  0  0  0  0  0  0  0  0
   19.6539   19.2937   27.8409 H   0  0  0  0  0  0  0  0  0  0  0  0
   18.4653   19.2052   26.6994 H   0  0  0  0  0  0  0  0  0  0  0  0
   19.2142   20.6452   27.0018 H   0  0  0  0  0  0  0  0  0  0  0  0
  1  2  1  0  0  0  0
  1  3  1  0  0  0  0
  1  4  1  0  0  0  0
  1  5  1  0  0  0  0
  5  6  1  0  0  0  0
  5  7  1  0  0  0  0
  5  8  1  0  0  0  0
  8  9  1  0  0  0  0
  8 10  1  0  0  0  0
  8 11  1  0  0  0  0
 11 12  1  0  0  0  0
 11 13  1  0  0  0  0
 11 14  1  0  0  0  0
 14 15  1  0  0  0  0
 14 16  1  0  0  0  0
 14 17  1  0  0  0  0
 17 18  1  0  0  0  0
 17 19  1  0  0  0  0
 17 20  1  0  0  0  0
 20 21  1  0  0  0  0
 20 22  1  0  0  0  0
 22 23  1  0  0  0  0
 22 24  1  0  0  0  0
 22 25  1  0  0  0  0
 20 26  1  0  0  0  0
 26 27  1  0  0  0  0
 26 28  1  0  0  0  0
 26 29  1  0  0  0  0
M  END
> <VM2 Rank>
197

> <Conf_Id>
303

> <Probability>
0.00

> <Sum Probability>
100.00

> <Delta G>
6.393

> <G>
40.095

> <E>
1.857

> <-TS>
38.238

> <U+W>
-22.288

> <U>
30.254

> <W>
-52.542

> <W(PB)>
-54.955

> <W(SA)>
2.414

> <Valence>
8.874

> <Coulomb>
20.220

> <VdW>
1.159

> <VdW6>
-11.236

> <VdW12>
12.395

> <Bond>
0.376

> <Angle>
2.276

> <Pdih>
6.222

> <Idih>
0.000

> <Tether>
0.000

$$$$
VeraChem MOL file


 29 28  0  0  0  0  0  0  0  0999 V2000     
   19.7086   18.2253   20.1335 C   0  0  0  0  0  0  0  0  0  0  0  0
   19.4030   17.6079   20.9873 H   0  0  0  0  0  0  0  0  0  0  0  0
   19.3014   17.7581   19.2275 H   0  0  0  0  0  0  0  0  0  0  0  0
   20.8035   18.2028   20.0595 H   0  0  0  0  0  0  0  0  0  0  0  0
   19.1901   19.6732   20.2737 C   0  0  0  0  0  0  0  0  0  0  0  0
   18.0969   19.6590   20.3849 H   0  0  0  0  0  0  0  0  0  0  0  0
   19.3937   20.2127   19.3382 H   0  0  0  0  0  0  0  0  0  0  0  0
   19.8203   20.4659   21.4473 C   0  0  0  0  0  0  0  0  0  0  0  0
   20.9034   20.5706   21.2952 H   0  0  0  0  0  0  0  0  0  0  0  0
   19.4162   21.4871   21.4106 H   0  0  0  0  0  0  0  0  0  0  0  0
   19.5274   19.8791   22.8526 C   0  0  0  0  0  0  0  0  0  0  0  0
   18.5723   19.3361   22.8386 H   0  0  0  0  0  0  0  0  0  0  0  0
   19.4039   20.7206   23.5454 H   0  0  0  0  0  0  0  0  0  0  0  0
   20.6644   18.9689   23.3826 C   0  0  0  0  0  0  0  0  0  0  0  0
   20.9687   18.2668   22.5973 H   0  0  0  0  0  0  0  0  0  0  0  0
   21.5516   19.5822   23.5926 H   0  0  0  0  0  0  0  0  0  0  0  0
   20.3007   18.1416   24.6436 C   0  0  0  0  0  0  0  0  0  0  0  0
   21.1434   17.4651   24.8390 H   0  0  0  0  0  0  0  0  0  0  0  0
   19.4390   17.4937   24.4354 H   0  0  0  0  0  0  0  0  0  0  0  0
   20.0365   18.9793   25.9172 C   0  0  2  0  0  0  0  0  0  0  0  0
   20.7682   19.7922   25.9536 H   0  0  0  0  0  0  0  0  0  0  0  0
   20.2169   18.1125   27.1743 C   0  0  0  0  0  0  0  0  0  0  0  0
   19.5139   17.2699   27.1794 H   0  0  0  0  0  0  0  0  0  0  0  0
   21.2355   17.7085   27.2279 H   0  0  0  0  0  0  0  0  0  0  0  0
   20.0478   18.7046   28.0822 H   0  0  0  0  0  0  0  0  0  0  0  0
   18.6712   19.6103   25.9292 N   0  3  0  0  0  0  0  0  0  0  0  0
   17.9342   18.9000   25.9314 H   0  0  0  0  0  0  0  0  0  0  0  0
   18.5263   20.2023   25.1081 H   0  0  0  0  0  0  0  0  0  0  0  0
   18.5365   20.1940   26.7598 H   0  0  0  0  0  0  0  0  0  0  0  0
  1  2  1  0  0  0  0
  1  3  1  0  0  0  0
  1  4  1  0  0  0  0
  1  5  1  0  0  0  0
  5  6  1  0  0  0  0
  5  7  1  0  0  0  0
  5  8  1  0  0  0  0
  8  9  1  0  0  0  0
  8 10  1  0  0  0  0
  8 11  1  0  0  0  0
 11 12  1  0  0  0  0
 11 13  1  0  0  0  0
 11 14  1  0  0  0  0
 14 15  1  0  0  0  0
 14 16  1  0  0  0  0
 14 17  1  0  0  0  0
 17 18  1  0  0  0  0
 17 19  1  0  0  0  0
 17 20  1  0  0  0  0
 20 21  1  0  0  0  0
 20 22  1  0  0  0  0
 22 23  1  0  0  0  0
 22 24  1  0  0  0  0
 22 25  1  0  0  0  0
 20 26  1  0  0  0  0
 26 27  1  0  0  0  0
 26 28  1  0  0  0  0
 26 29  1  0  0  0  0
M  END
> <VM2 Rank>
198

> <Conf_Id>
1035

> <Probability>
0.00

> <Sum Probability>
100.00

> <Delta G>
6.428

> <G>
40.131

> <E>
2.283

> <-TS>
37.848

> <U+W>
-21.861

> <U>
30.313

> <W>
-52.174

> <W(PB)>
-54.607

> <W(SA)>
2.433

> <Valence>
7.950

> <Coulomb>
21.217

> <VdW>
1.146

> <VdW6>
-10.650

> <VdW12>
11.796

> <Bond>
0.329

> <Angle>
2.264

> <Pdih>
5.357

> <Idih>
0.000

> <Tether>
0.000

$$$$
VeraChem MOL file


 29 28  0  0  0  0  0  0  0  0999 V2000     
   20.6601   19.0527   19.8071 C   0  0  0  0  0  0  0  0  0  0  0  0
   21.0378   20.0074   19.4184 H   0  0  0  0  0  0  0  0  0  0  0  0
   21.3469   18.7141   20.5910 H   0  0  0  0  0  0  0  0  0  0  0  0
   20.6991   18.3214   18.9895 H   0  0  0  0  0  0  0  0  0  0  0  0
   19.2125   19.2053   20.3292 C   0  0  0  0  0  0  0  0  0  0  0  0
   18.8096   18.2281   20.6300 H   0  0  0  0  0  0  0  0  0  0  0  0
   18.5844   19.5462   19.4943 H   0  0  0  0  0  0  0  0  0  0  0  0
   19.0879   20.2229   21.4923 C   0  0  0  0  0  0  0  0  0  0  0  0
   19.9015   20.9596   21.4424 H   0  0  0  0  0  0  0  0  0  0  0  0
   18.1619   20.7964   21.3467 H   0  0  0  0  0  0  0  0  0  0  0  0
   19.0287   19.5921   22.9077 C   0  0  0  0  0  0  0  0  0  0  0  0
   18.1499   18.9363   22.9775 H   0  0  0  0  0  0  0  0  0  0  0  0
   18.8722   20.4111   23.6188 H   0  0  0  0  0  0  0  0  0  0  0  0
   20.2999   18.8016   23.3040 C   0  0  0  0  0  0  0  0  0  0  0  0
   20.4744   18.0130   22.5619 H   0  0  0  0  0  0  0  0  0  0  0  0
   21.1736   19.4665   23.2631 H   0  0  0  0  0  0  0  0  0  0  0  0
   20.2361   18.1148   24.6939 C   0  0  0  0  0  0  0  0  0  0  0  0
   21.1476   17.5103   24.7937 H   0  0  0  0  0  0  0  0  0  0  0  0
   19.4013   17.4023   24.7265 H   0  0  0  0  0  0  0  0  0  0  0  0
   20.1509   19.0837   25.8972 C   0  0  2  0  0  0  0  0  0  0  0  0
   20.7618   19.9644   25.6762 H   0  0  0  0  0  0  0  0  0  0  0  0
   20.7099   18.4161   27.1647 C   0  0  0  0  0  0  0  0  0  0  0  0
   20.6645   19.1035   28.0184 H   0  0  0  0  0  0  0  0  0  0  0  0
   20.1411   17.5135   27.4213 H   0  0  0  0  0  0  0  0  0  0  0  0
   21.7601   18.1308   27.0256 H   0  0  0  0  0  0  0  0  0  0  0  0
   18.7501   19.5667   26.1579 N   0  3  0  0  0  0  0  0  0  0  0  0
   18.7247   20.2412   26.9282 H   0  0  0  0  0  0  0  0  0  0  0  0
   18.1314   18.7914   26.4101 H   0  0  0  0  0  0  0  0  0  0  0  0
   18.3509   20.0229   25.3346 H   0  0  0  0  0  0  0  0  0  0  0  0
  1  2  1  0  0  0  0
  1  3  1  0  0  0  0
  1  4  1  0  0  0  0
  1  5  1  0  0  0  0
  5  6  1  0  0  0  0
  5  7  1  0  0  0  0
  5  8  1  0  0  0  0
  8  9  1  0  0  0  0
  8 10  1  0  0  0  0
  8 11  1  0  0  0  0
 11 12  1  0  0  0  0
 11 13  1  0  0  0  0
 11 14  1  0  0  0  0
 14 15  1  0  0  0  0
 14 16  1  0  0  0  0
 14 17  1  0  0  0  0
 17 18  1  0  0  0  0
 17 19  1  0  0  0  0
 17 20  1  0  0  0  0
 20 21  1  0  0  0  0
 20 22  1  0  0  0  0
 22 23  1  0  0  0  0
 22 24  1  0  0  0  0
 22 25  1  0  0  0  0
 20 26  1  0  0  0  0
 26 27  1  0  0  0  0
 26 28  1  0  0  0  0
 26 29  1  0  0  0  0
M  END
> <VM2 Rank>
199

> <Conf_Id>
851

> <Probability>
0.00

> <Sum Probability>
100.00

> <Delta G>
6.437

> <G>
40.139

> <E>
2.576

> <-TS>
37.564

> <U+W>
-21.569

> <U>
30.680

> <W>
-52.249

> <W(PB)>
-54.674

> <W(SA)>
2.425

> <Valence>
8.266

> <Coulomb>
21.123

> <VdW>
1.291

> <VdW6>
-10.406

> <VdW12>
11.698

> <Bond>
0.334

> <Angle>
2.443

> <Pdih>
5.489

> <Idih>
0.000

> <Tether>
0.000

$$$$
VeraChem MOL file


 29 28  0  0  0  0  0  0  0  0999 V2000     
   20.7439   20.0038   20.0875 C   0  0  0  0  0  0  0  0  0  0  0  0
   20.4605   21.0550   19.9470 H   0  0  0  0  0  0  0  0  0  0  0  0
   21.4087   19.9469   20.9562 H   0  0  0  0  0  0  0  0  0  0  0  0
   21.3215   19.6944   19.2068 H   0  0  0  0  0  0  0  0  0  0  0  0
   19.4912   19.1120   20.2524 C   0  0  0  0  0  0  0  0  0  0  0  0
   19.7818   18.0550   20.3287 H   0  0  0  0  0  0  0  0  0  0  0  0
   18.8942   19.1955   19.3334 H   0  0  0  0  0  0  0  0  0  0  0  0
   18.6008   19.5147   21.4562 C   0  0  0  0  0  0  0  0  0  0  0  0
   18.6795   20.5946   21.6424 H   0  0  0  0  0  0  0  0  0  0  0  0
   17.5525   19.3388   21.1777 H   0  0  0  0  0  0  0  0  0  0  0  0
   18.8732   18.7260   22.7630 C   0  0  0  0  0  0  0  0  0  0  0  0
   18.6977   17.6564   22.5829 H   0  0  0  0  0  0  0  0  0  0  0  0
   18.1241   19.0302   23.5023 H   0  0  0  0  0  0  0  0  0  0  0  0
   20.2996   18.9177   23.3363 C   0  0  0  0  0  0  0  0  0  0  0  0
   21.0113   18.4482   22.6447 H   0  0  0  0  0  0  0  0  0  0  0  0
   20.5604   19.9844   23.3732 H   0  0  0  0  0  0  0  0  0  0  0  0
   20.5014   18.2739   24.7332 C   0  0  0  0  0  0  0  0  0  0  0  0
   21.5478   17.9480   24.8047 H   0  0  0  0  0  0  0  0  0  0  0  0
   19.8952   17.3629   24.8249 H   0  0  0  0  0  0  0  0  0  0  0  0
   20.2252   19.2289   25.9179 C   0  0  2  0  0  0  0  0  0  0  0  0
   20.8636   20.1097   25.7989 H   0  0  0  0  0  0  0  0  0  0  0  0
   20.5910   18.5479   27.2465 C   0  0  0  0  0  0  0  0  0  0  0  0
   20.4395   19.2336   28.0892 H   0  0  0  0  0  0  0  0  0  0  0  0
   19.9762   17.6552   27.4172 H   0  0  0  0  0  0  0  0  0  0  0  0
   21.6449   18.2429   27.2516 H   0  0  0  0  0  0  0  0  0  0  0  0
   18.8097   19.7310   25.9612 N   0  3  0  0  0  0  0  0  0  0  0  0
   18.6670   20.3818   26.7389 H   0  0  0  0  0  0  0  0  0  0  0  0
   18.1455   18.9612   26.0775 H   0  0  0  0  0  0  0  0  0  0  0  0
   18.5681   20.2242   25.0972 H   0  0  0  0  0  0  0  0  0  0  0  0
  1  2  1  0  0  0  0
  1  3  1  0  0  0  0
  1  4  1  0  0  0  0
  1  5  1  0  0  0  0
  5  6  1  0  0  0  0
  5  7  1  0  0  0  0
  5  8  1  0  0  0  0
  8  9  1  0  0  0  0
  8 10  1  0  0  0  0
  8 11  1  0  0  0  0
 11 12  1  0  0  0  0
 11 13  1  0  0  0  0
 11 14  1  0  0  0  0
 14 15  1  0  0  0  0
 14 16  1  0  0  0  0
 14 17  1  0  0  0  0
 17 18  1  0  0  0  0
 17 19  1  0  0  0  0
 17 20  1  0  0  0  0
 20 21  1  0  0  0  0
 20 22  1  0  0  0  0
 22 23  1  0  0  0  0
 22 24  1  0  0  0  0
 22 25  1  0  0  0  0
 20 26  1  0  0  0  0
 26 27  1  0  0  0  0
 26 28  1  0  0  0  0
 26 29  1  0  0  0  0
M  END
> <VM2 Rank>
200

> <Conf_Id>
373

> <Probability>
0.00

> <Sum Probability>
100.00

> <Delta G>
6.518

> <G>
40.220

> <E>
2.431

> <-TS>
37.790

> <U+W>
-21.714

> <U>
30.319

> <W>
-52.033

> <W(PB)>
-54.491

> <W(SA)>
2.459

> <Valence>
8.319

> <Coulomb>
20.774

> <VdW>
1.226

> <VdW6>
-10.363

> <VdW12>
11.589

> <Bond>
0.335

> <Angle>
2.135

> <Pdih>
5.849

> <Idih>
0.000

> <Tether>
0.000

$$$$
VeraChem MOL file


 29 28  0  0  0  0  0  0  0  0999 V2000     
   19.5206   21.1213   21.1047 C   0  0  0  0  0  0  0  0  0  0  0  0
   20.0787   21.6398   21.8952 H   0  0  0  0  0  0  0  0  0  0  0  0
   20.1282   21.1371   20.1905 H   0  0  0  0  0  0  0  0  0  0  0  0
   18.6034   21.6921   20.9098 H   0  0  0  0  0  0  0  0  0  0  0  0
   19.1836   19.6743   21.5210 C   0  0  0  0  0  0  0  0  0  0  0  0
   18.5933   19.1958   20.7270 H   0  0  0  0  0  0  0  0  0  0  0  0
   18.5423   19.6923   22.4102 H   0  0  0  0  0  0  0  0  0  0  0  0
   20.4621   18.8423   21.7824 C   0  0  0  0  0  0  0  0  0  0  0  0
   20.9991   18.7381   20.8294 H   0  0  0  0  0  0  0  0  0  0  0  0
   21.1492   19.3752   22.4530 H   0  0  0  0  0  0  0  0  0  0  0  0
   20.1615   17.4274   22.3381 C   0  0  0  0  0  0  0  0  0  0  0  0
   20.8622   16.7241   21.8672 H   0  0  0  0  0  0  0  0  0  0  0  0
   19.1620   17.0988   22.0213 H   0  0  0  0  0  0  0  0  0  0  0  0
   20.3106   17.2681   23.8753 C   0  0  0  0  0  0  0  0  0  0  0  0
   20.1503   16.2061   24.1069 H   0  0  0  0  0  0  0  0  0  0  0  0
   21.3468   17.4713   24.1716 H   0  0  0  0  0  0  0  0  0  0  0  0
   19.3143   18.0898   24.7388 C   0  0  0  0  0  0  0  0  0  0  0  0
   19.2187   17.6042   25.7191 H   0  0  0  0  0  0  0  0  0  0  0  0
   18.3192   18.0285   24.2794 H   0  0  0  0  0  0  0  0  0  0  0  0
   19.6891   19.5744   24.9696 C   0  0  2  0  0  0  0  0  0  0  0  0
   19.8796   20.0456   24.0030 H   0  0  0  0  0  0  0  0  0  0  0  0
   20.9502   19.7285   25.8386 C   0  0  0  0  0  0  0  0  0  0  0  0
   21.1578   20.7882   26.0320 H   0  0  0  0  0  0  0  0  0  0  0  0
   20.8302   19.2245   26.8056 H   0  0  0  0  0  0  0  0  0  0  0  0
   21.8337   19.3126   25.3419 H   0  0  0  0  0  0  0  0  0  0  0  0
   18.5441   20.3298   25.5855 N   0  3  0  0  0  0  0  0  0  0  0  0
   17.7018   20.2795   25.0053 H   0  0  0  0  0  0  0  0  0  0  0  0
   18.7724   21.3206   25.7073 H   0  0  0  0  0  0  0  0  0  0  0  0
   18.3048   19.9567   26.5082 H   0  0  0  0  0  0  0  0  0  0  0  0
  1  2  1  0  0  0  0
  1  3  1  0  0  0  0
  1  4  1  0  0  0  0
  1  5  1  0  0  0  0
  5  6  1  0  0  0  0
  5  7  1  0  0  0  0
  5  8  1  0  0  0  0
  8  9  1  0  0  0  0
  8 10  1  0  0  0  0
  8 11  1  0  0  0  0
 11 12  1  0  0  0  0
 11 13  1  0  0  0  0
 11 14  1  0  0  0  0
 14 15  1  0  0  0  0
 14 16  1  0  0  0  0
 14 17  1  0  0  0  0
 17 18  1  0  0  0  0
 17 19  1  0  0  0  0
 17 20  1  0  0  0  0
 20 21  1  0  0  0  0
 20 22  1  0  0  0  0
 22 23  1  0  0  0  0
 22 24  1  0  0  0  0
 22 25  1  0  0  0  0
 20 26  1  0  0  0  0
 26 27  1  0  0  0  0
 26 28  1  0  0  0  0
 26 29  1  0  0  0  0
M  END
> <VM2 Rank>
201

> <Conf_Id>
84

> <Probability>
0.00

> <Sum Probability>
100.00

> <Delta G>
6.526

> <G>
40.228

> <E>
1.928

> <-TS>
38.300

> <U+W>
-22.216

> <U>
30.677

> <W>
-52.893

> <W(PB)>
-55.271

> <W(SA)>
2.378

> <Valence>
8.876

> <Coulomb>
21.328

> <VdW>
0.472

> <VdW6>
-11.982

> <VdW12>
12.454

> <Bond>
0.338

> <Angle>
2.800

> <Pdih>
5.739

> <Idih>
0.000

> <Tether>
0.000

$$$$
VeraChem MOL file


 29 28  0  0  0  0  0  0  0  0999 V2000     
   18.4723   18.0969   21.4331 C   0  0  0  0  0  0  0  0  0  0  0  0
   17.3756   18.1385   21.4199 H   0  0  0  0  0  0  0  0  0  0  0  0
   18.7836   17.2954   20.7507 H   0  0  0  0  0  0  0  0  0  0  0  0
   18.7838   17.8150   22.4441 H   0  0  0  0  0  0  0  0  0  0  0  0
   19.0717   19.4539   20.9964 C   0  0  0  0  0  0  0  0  0  0  0  0
   18.6777   20.2711   21.6153 H   0  0  0  0  0  0  0  0  0  0  0  0
   18.7246   19.6603   19.9743 H   0  0  0  0  0  0  0  0  0  0  0  0
   20.6210   19.4702   21.0021 C   0  0  0  0  0  0  0  0  0  0  0  0
   21.0112   18.4655   20.7889 H   0  0  0  0  0  0  0  0  0  0  0  0
   20.9525   20.0962   20.1622 H   0  0  0  0  0  0  0  0  0  0  0  0
   21.2839   20.0373   22.2867 C   0  0  0  0  0  0  0  0  0  0  0  0
   20.9694   21.0781   22.4439 H   0  0  0  0  0  0  0  0  0  0  0  0
   22.3654   20.0852   22.0988 H   0  0  0  0  0  0  0  0  0  0  0  0
   21.0654   19.2071   23.5777 C   0  0  0  0  0  0  0  0  0  0  0  0
   20.9585   18.1464   23.3193 H   0  0  0  0  0  0  0  0  0  0  0  0
   21.9748   19.2774   24.1905 H   0  0  0  0  0  0  0  0  0  0  0  0
   19.8734   19.7069   24.4361 C   0  0  0  0  0  0  0  0  0  0  0  0
   18.9361   19.6485   23.8721 H   0  0  0  0  0  0  0  0  0  0  0  0
   20.0310   20.7708   24.6571 H   0  0  0  0  0  0  0  0  0  0  0  0
   19.7158   18.9511   25.7750 C   0  0  2  0  0  0  0  0  0  0  0  0
   20.6797   18.9660   26.2931 H   0  0  0  0  0  0  0  0  0  0  0  0
   19.2950   17.4852   25.5671 C   0  0  0  0  0  0  0  0  0  0  0  0
   20.0593   16.9230   25.0188 H   0  0  0  0  0  0  0  0  0  0  0  0
   19.1547   16.9839   26.5328 H   0  0  0  0  0  0  0  0  0  0  0  0
   18.3522   17.4181   25.0103 H   0  0  0  0  0  0  0  0  0  0  0  0
   18.7376   19.6475   26.6798 N   0  3  0  0  0  0  0  0  0  0  0  0
   17.8013   19.6762   26.2672 H   0  0  0  0  0  0  0  0  0  0  0  0
   19.0208   20.6133   26.8690 H   0  0  0  0  0  0  0  0  0  0  0  0
   18.6593   19.1708   27.5827 H   0  0  0  0  0  0  0  0  0  0  0  0
  1  2  1  0  0  0  0
  1  3  1  0  0  0  0
  1  4  1  0  0  0  0
  1  5  1  0  0  0  0
  5  6  1  0  0  0  0
  5  7  1  0  0  0  0
  5  8  1  0  0  0  0
  8  9  1  0  0  0  0
  8 10  1  0  0  0  0
  8 11  1  0  0  0  0
 11 12  1  0  0  0  0
 11 13  1  0  0  0  0
 11 14  1  0  0  0  0
 14 15  1  0  0  0  0
 14 16  1  0  0  0  0
 14 17  1  0  0  0  0
 17 18  1  0  0  0  0
 17 19  1  0  0  0  0
 17 20  1  0  0  0  0
 20 21  1  0  0  0  0
 20 22  1  0  0  0  0
 22 23  1  0  0  0  0
 22 24  1  0  0  0  0
 22 25  1  0  0  0  0
 20 26  1  0  0  0  0
 26 27  1  0  0  0  0
 26 28  1  0  0  0  0
 26 29  1  0  0  0  0
M  END
> <VM2 Rank>
202

> <Conf_Id>
1325

> <Probability>
0.00

> <Sum Probability>
100.00

> <Delta G>
6.624

> <G>
40.326

> <E>
1.884

> <-TS>
38.442

> <U+W>
-22.261

> <U>
30.536

> <W>
-52.796

> <W(PB)>
-55.157

> <W(SA)>
2.360

> <Valence>
9.319

> <Coulomb>
20.399

> <VdW>
0.817

> <VdW6>
-11.400

> <VdW12>
12.217

> <Bond>
0.345

> <Angle>
2.705

> <Pdih>
6.269

> <Idih>
0.000

> <Tether>
0.000

$$$$
VeraChem MOL file


 29 28  0  0  0  0  0  0  0  0999 V2000     
   18.6839   20.2506   20.5821 C   0  0  0  0  0  0  0  0  0  0  0  0
   19.2839   20.6840   19.7713 H   0  0  0  0  0  0  0  0  0  0  0  0
   17.6271   20.3444   20.3007 H   0  0  0  0  0  0  0  0  0  0  0  0
   18.8441   20.8572   21.4802 H   0  0  0  0  0  0  0  0  0  0  0  0
   19.0540   18.7662   20.8080 C   0  0  0  0  0  0  0  0  0  0  0  0
   18.8546   18.2217   19.8744 H   0  0  0  0  0  0  0  0  0  0  0  0
   18.3949   18.3190   21.5650 H   0  0  0  0  0  0  0  0  0  0  0  0
   20.5406   18.5563   21.1952 C   0  0  0  0  0  0  0  0  0  0  0  0
   20.8909   17.6309   20.7175 H   0  0  0  0  0  0  0  0  0  0  0  0
   21.1611   19.3593   20.7741 H   0  0  0  0  0  0  0  0  0  0  0  0
   20.8013   18.4226   22.7176 C   0  0  0  0  0  0  0  0  0  0  0  0
   21.8686   18.2056   22.8621 H   0  0  0  0  0  0  0  0  0  0  0  0
   20.2610   17.5467   23.0951 H   0  0  0  0  0  0  0  0  0  0  0  0
   20.4291   19.6833   23.5381 C   0  0  0  0  0  0  0  0  0  0  0  0
   20.9266   20.5478   23.0775 H   0  0  0  0  0  0  0  0  0  0  0  0
   19.3522   19.8766   23.4719 H   0  0  0  0  0  0  0  0  0  0  0  0
   20.8663   19.6068   25.0280 C   0  0  0  0  0  0  0  0  0  0  0  0
   21.1591   20.6142   25.3519 H   0  0  0  0  0  0  0  0  0  0  0  0
   21.7759   18.9992   25.1215 H   0  0  0  0  0  0  0  0  0  0  0  0
   19.8003   19.0917   26.0269 C   0  0  2  0  0  0  0  0  0  0  0  0
   20.2665   19.0846   27.0170 H   0  0  0  0  0  0  0  0  0  0  0  0
   19.3380   17.6573   25.7249 C   0  0  0  0  0  0  0  0  0  0  0  0
   18.7207   17.2738   26.5464 H   0  0  0  0  0  0  0  0  0  0  0  0
   18.7370   17.6138   24.8090 H   0  0  0  0  0  0  0  0  0  0  0  0
   20.1975   16.9850   25.6124 H   0  0  0  0  0  0  0  0  0  0  0  0
   18.6224   20.0212   26.1333 N   0  3  0  0  0  0  0  0  0  0  0  0
   17.9582   19.7024   26.8445 H   0  0  0  0  0  0  0  0  0  0  0  0
   18.1166   20.0836   25.2464 H   0  0  0  0  0  0  0  0  0  0  0  0
   18.9140   20.9687   26.3899 H   0  0  0  0  0  0  0  0  0  0  0  0
  1  2  1  0  0  0  0
  1  3  1  0  0  0  0
  1  4  1  0  0  0  0
  1  5  1  0  0  0  0
  5  6  1  0  0  0  0
  5  7  1  0  0  0  0
  5  8  1  0  0  0  0
  8  9  1  0  0  0  0
  8 10  1  0  0  0  0
  8 11  1  0  0  0  0
 11 12  1  0  0  0  0
 11 13  1  0  0  0  0
 11 14  1  0  0  0  0
 14 15  1  0  0  0  0
 14 16  1  0  0  0  0
 14 17  1  0  0  0  0
 17 18  1  0  0  0  0
 17 19  1  0  0  0  0
 17 20  1  0  0  0  0
 20 21  1  0  0  0  0
 20 22  1  0  0  0  0
 22 23  1  0  0  0  0
 22 24  1  0  0  0  0
 22 25  1  0  0  0  0
 20 26  1  0  0  0  0
 26 27  1  0  0  0  0
 26 28  1  0  0  0  0
 26 29  1  0  0  0  0
M  END
> <VM2 Rank>
203

> <Conf_Id>
1650

> <Probability>
0.00

> <Sum Probability>
100.00

> <Delta G>
6.647

> <G>
40.350

> <E>
2.326

> <-TS>
38.024

> <U+W>
-21.819

> <U>
30.957

> <W>
-52.775

> <W(PB)>
-55.160

> <W(SA)>
2.385

> <Valence>
9.252

> <Coulomb>
20.527

> <VdW>
1.177

> <VdW6>
-11.186

> <VdW12>
12.363

> <Bond>
0.373

> <Angle>
2.560

> <Pdih>
6.320

> <Idih>
0.000

> <Tether>
0.000

$$$$
VeraChem MOL file


 29 28  0  0  0  0  0  0  0  0999 V2000     
   19.8246   20.5340   20.1561 C   0  0  0  0  0  0  0  0  0  0  0  0
   19.5186   21.0304   21.0833 H   0  0  0  0  0  0  0  0  0  0  0  0
   20.8704   20.8026   19.9579 H   0  0  0  0  0  0  0  0  0  0  0  0
   19.2150   20.9471   19.3421 H   0  0  0  0  0  0  0  0  0  0  0  0
   19.6542   18.9988   20.2327 C   0  0  0  0  0  0  0  0  0  0  0  0
   19.9431   18.5784   19.2592 H   0  0  0  0  0  0  0  0  0  0  0  0
   18.5958   18.7384   20.3720 H   0  0  0  0  0  0  0  0  0  0  0  0
   20.5220   18.3345   21.3325 C   0  0  0  0  0  0  0  0  0  0  0  0
   20.8400   17.3487   20.9659 H   0  0  0  0  0  0  0  0  0  0  0  0
   21.4479   18.9063   21.4834 H   0  0  0  0  0  0  0  0  0  0  0  0
   19.8030   18.1160   22.6887 C   0  0  0  0  0  0  0  0  0  0  0  0
   20.4801   17.5579   23.3464 H   0  0  0  0  0  0  0  0  0  0  0  0
   18.9311   17.4650   22.5361 H   0  0  0  0  0  0  0  0  0  0  0  0
   19.3479   19.4217   23.3866 C   0  0  0  0  0  0  0  0  0  0  0  0
   20.1617   20.1598   23.3920 H   0  0  0  0  0  0  0  0  0  0  0  0
   18.5343   19.8612   22.7948 H   0  0  0  0  0  0  0  0  0  0  0  0
   18.8240   19.1960   24.8296 C   0  0  0  0  0  0  0  0  0  0  0  0
   18.4257   18.1782   24.9358 H   0  0  0  0  0  0  0  0  0  0  0  0
   17.9703   19.8688   24.9852 H   0  0  0  0  0  0  0  0  0  0  0  0
   19.8554   19.4874   25.9462 C   0  0  2  0  0  0  0  0  0  0  0  0
   20.1947   20.5217   25.8336 H   0  0  0  0  0  0  0  0  0  0  0  0
   21.0871   18.5689   25.8768 C   0  0  0  0  0  0  0  0  0  0  0  0
   21.7604   18.7606   26.7213 H   0  0  0  0  0  0  0  0  0  0  0  0
   20.7965   17.5115   25.9061 H   0  0  0  0  0  0  0  0  0  0  0  0
   21.6606   18.7481   24.9599 H   0  0  0  0  0  0  0  0  0  0  0  0
   19.2179   19.3986   27.3049 N   0  3  0  0  0  0  0  0  0  0  0  0
   19.8831   19.6365   28.0463 H   0  0  0  0  0  0  0  0  0  0  0  0
   18.8737   18.4536   27.4951 H   0  0  0  0  0  0  0  0  0  0  0  0
   18.4234   20.0390   27.3915 H   0  0  0  0  0  0  0  0  0  0  0  0
  1  2  1  0  0  0  0
  1  3  1  0  0  0  0
  1  4  1  0  0  0  0
  1  5  1  0  0  0  0
  5  6  1  0  0  0  0
  5  7  1  0  0  0  0
  5  8  1  0  0  0  0
  8  9  1  0  0  0  0
  8 10  1  0  0  0  0
  8 11  1  0  0  0  0
 11 12  1  0  0  0  0
 11 13  1  0  0  0  0
 11 14  1  0  0  0  0
 14 15  1  0  0  0  0
 14 16  1  0  0  0  0
 14 17  1  0  0  0  0
 17 18  1  0  0  0  0
 17 19  1  0  0  0  0
 17 20  1  0  0  0  0
 20 21  1  0  0  0  0
 20 22  1  0  0  0  0
 22 23  1  0  0  0  0
 22 24  1  0  0  0  0
 22 25  1  0  0  0  0
 20 26  1  0  0  0  0
 26 27  1  0  0  0  0
 26 28  1  0  0  0  0
 26 29  1  0  0  0  0
M  END
> <VM2 Rank>
204

> <Conf_Id>
1532

> <Probability>
0.00

> <Sum Probability>
100.00

> <Delta G>
6.701

> <G>
40.403

> <E>
2.337

> <-TS>
38.066

> <U+W>
-21.807

> <U>
30.372

> <W>
-52.180

> <W(PB)>
-54.600

> <W(SA)>
2.420

> <Valence>
9.265

> <Coulomb>
19.847

> <VdW>
1.260

> <VdW6>
-10.647

> <VdW12>
11.908

> <Bond>
0.333

> <Angle>
2.435

> <Pdih>
6.497

> <Idih>
0.000

> <Tether>
0.000

$$$$
VeraChem MOL file


 29 28  0  0  0  0  0  0  0  0999 V2000     
   18.9830   20.4262   20.4037 C   0  0  0  0  0  0  0  0  0  0  0  0
   17.9242   20.1665   20.2751 H   0  0  0  0  0  0  0  0  0  0  0  0
   19.0862   20.9618   21.3536 H   0  0  0  0  0  0  0  0  0  0  0  0
   19.2548   21.1221   19.5995 H   0  0  0  0  0  0  0  0  0  0  0  0
   19.8720   19.1620   20.3472 C   0  0  0  0  0  0  0  0  0  0  0  0
   20.9334   19.4378   20.4165 H   0  0  0  0  0  0  0  0  0  0  0  0
   19.7432   18.7030   19.3570 H   0  0  0  0  0  0  0  0  0  0  0  0
   19.5173   18.1083   21.4279 C   0  0  0  0  0  0  0  0  0  0  0  0
   18.4465   18.1568   21.6692 H   0  0  0  0  0  0  0  0  0  0  0  0
   19.6778   17.1107   20.9962 H   0  0  0  0  0  0  0  0  0  0  0  0
   20.3609   18.1940   22.7259 C   0  0  0  0  0  0  0  0  0  0  0  0
   21.4215   18.0474   22.4794 H   0  0  0  0  0  0  0  0  0  0  0  0
   20.0833   17.3487   23.3665 H   0  0  0  0  0  0  0  0  0  0  0  0
   20.1972   19.5221   23.5057 C   0  0  0  0  0  0  0  0  0  0  0  0
   20.6465   20.3261   22.9083 H   0  0  0  0  0  0  0  0  0  0  0  0
   19.1338   19.7722   23.6102 H   0  0  0  0  0  0  0  0  0  0  0  0
   20.8975   19.5126   24.8932 C   0  0  0  0  0  0  0  0  0  0  0  0
   21.3224   20.5091   25.0721 H   0  0  0  0  0  0  0  0  0  0  0  0
   21.7583   18.8312   24.8729 H   0  0  0  0  0  0  0  0  0  0  0  0
   19.9963   19.1682   26.1050 C   0  0  2  0  0  0  0  0  0  0  0  0
   20.6311   19.1945   26.9961 H   0  0  0  0  0  0  0  0  0  0  0  0
   19.3849   17.7607   26.0147 C   0  0  0  0  0  0  0  0  0  0  0  0
   18.8684   17.5066   26.9484 H   0  0  0  0  0  0  0  0  0  0  0  0
   18.6550   17.6911   25.1992 H   0  0  0  0  0  0  0  0  0  0  0  0
   20.1647   17.0068   25.8508 H   0  0  0  0  0  0  0  0  0  0  0  0
   18.9269   20.2018   26.3306 N   0  3  0  0  0  0  0  0  0  0  0  0
   18.3803   19.9964   27.1718 H   0  0  0  0  0  0  0  0  0  0  0  0
   18.2756   20.2411   25.5429 H   0  0  0  0  0  0  0  0  0  0  0  0
   19.3275   21.1371   26.4468 H   0  0  0  0  0  0  0  0  0  0  0  0
  1  2  1  0  0  0  0
  1  3  1  0  0  0  0
  1  4  1  0  0  0  0
  1  5  1  0  0  0  0
  5  6  1  0  0  0  0
  5  7  1  0  0  0  0
  5  8  1  0  0  0  0
  8  9  1  0  0  0  0
  8 10  1  0  0  0  0
  8 11  1  0  0  0  0
 11 12  1  0  0  0  0
 11 13  1  0  0  0  0
 11 14  1  0  0  0  0
 14 15  1  0  0  0  0
 14 16  1  0  0  0  0
 14 17  1  0  0  0  0
 17 18  1  0  0  0  0
 17 19  1  0  0  0  0
 17 20  1  0  0  0  0
 20 21  1  0  0  0  0
 20 22  1  0  0  0  0
 22 23  1  0  0  0  0
 22 24  1  0  0  0  0
 22 25  1  0  0  0  0
 20 26  1  0  0  0  0
 26 27  1  0  0  0  0
 26 28  1  0  0  0  0
 26 29  1  0  0  0  0
M  END
> <VM2 Rank>
205

> <Conf_Id>
527

> <Probability>
0.00

> <Sum Probability>
100.00

> <Delta G>
6.758

> <G>
40.461

> <E>
2.312

> <-TS>
38.148

> <U+W>
-21.832

> <U>
30.788

> <W>
-52.620

> <W(PB)>
-55.023

> <W(SA)>
2.402

> <Valence>
9.278

> <Coulomb>
20.293

> <VdW>
1.217

> <VdW6>
-11.113

> <VdW12>
12.330

> <Bond>
0.365

> <Angle>
2.560

> <Pdih>
6.353

> <Idih>
0.000

> <Tether>
0.000

$$$$
VeraChem MOL file


 29 28  0  0  0  0  0  0  0  0999 V2000     
   20.6281   18.8509   19.9486 C   0  0  0  0  0  0  0  0  0  0  0  0
   21.3606   18.6484   20.7381 H   0  0  0  0  0  0  0  0  0  0  0  0
   20.2958   17.8867   19.5425 H   0  0  0  0  0  0  0  0  0  0  0  0
   21.1442   19.3909   19.1444 H   0  0  0  0  0  0  0  0  0  0  0  0
   19.4257   19.6730   20.4684 C   0  0  0  0  0  0  0  0  0  0  0  0
   18.7386   19.8385   19.6267 H   0  0  0  0  0  0  0  0  0  0  0  0
   19.7549   20.6710   20.7895 H   0  0  0  0  0  0  0  0  0  0  0  0
   18.6508   18.9661   21.6101 C   0  0  0  0  0  0  0  0  0  0  0  0
   17.5780   19.1503   21.4598 H   0  0  0  0  0  0  0  0  0  0  0  0
   18.7759   17.8769   21.5373 H   0  0  0  0  0  0  0  0  0  0  0  0
   19.0111   19.4477   23.0393 C   0  0  0  0  0  0  0  0  0  0  0  0
   18.3490   18.9200   23.7346 H   0  0  0  0  0  0  0  0  0  0  0  0
   18.7806   20.5179   23.1324 H   0  0  0  0  0  0  0  0  0  0  0  0
   20.4856   19.1983   23.4408 C   0  0  0  0  0  0  0  0  0  0  0  0
   20.7210   18.1300   23.3452 H   0  0  0  0  0  0  0  0  0  0  0  0
   21.1376   19.7171   22.7274 H   0  0  0  0  0  0  0  0  0  0  0  0
   20.8707   19.7073   24.8589 C   0  0  0  0  0  0  0  0  0  0  0  0
   20.7417   20.7967   24.9007 H   0  0  0  0  0  0  0  0  0  0  0  0
   21.9475   19.5378   24.9897 H   0  0  0  0  0  0  0  0  0  0  0  0
   20.1511   19.0679   26.0741 C   0  0  2  0  0  0  0  0  0  0  0  0
   20.7200   19.3569   26.9633 H   0  0  0  0  0  0  0  0  0  0  0  0
   20.1449   17.5305   26.0150 C   0  0  0  0  0  0  0  0  0  0  0  0
   19.7604   17.1115   26.9529 H   0  0  0  0  0  0  0  0  0  0  0  0
   19.5145   17.1593   25.1982 H   0  0  0  0  0  0  0  0  0  0  0  0
   21.1610   17.1434   25.8691 H   0  0  0  0  0  0  0  0  0  0  0  0
   18.7680   19.6144   26.2986 N   0  3  0  0  0  0  0  0  0  0  0  0
   18.3444   19.2215   27.1441 H   0  0  0  0  0  0  0  0  0  0  0  0
   18.1496   19.3973   25.5146 H   0  0  0  0  0  0  0  0  0  0  0  0
   18.7813   20.6325   26.4087 H   0  0  0  0  0  0  0  0  0  0  0  0
  1  2  1  0  0  0  0
  1  3  1  0  0  0  0
  1  4  1  0  0  0  0
  1  5  1  0  0  0  0
  5  6  1  0  0  0  0
  5  7  1  0  0  0  0
  5  8  1  0  0  0  0
  8  9  1  0  0  0  0
  8 10  1  0  0  0  0
  8 11  1  0  0  0  0
 11 12  1  0  0  0  0
 11 13  1  0  0  0  0
 11 14  1  0  0  0  0
 14 15  1  0  0  0  0
 14 16  1  0  0  0  0
 14 17  1  0  0  0  0
 17 18  1  0  0  0  0
 17 19  1  0  0  0  0
 17 20  1  0  0  0  0
 20 21  1  0  0  0  0
 20 22  1  0  0  0  0
 22 23  1  0  0  0  0
 22 24  1  0  0  0  0
 22 25  1  0  0  0  0
 20 26  1  0  0  0  0
 26 27  1  0  0  0  0
 26 28  1  0  0  0  0
 26 29  1  0  0  0  0
M  END
> <VM2 Rank>
206

> <Conf_Id>
525

> <Probability>
0.00

> <Sum Probability>
100.00

> <Delta G>
6.813

> <G>
40.515

> <E>
2.307

> <-TS>
38.209

> <U+W>
-21.838

> <U>
30.732

> <W>
-52.570

> <W(PB)>
-54.995

> <W(SA)>
2.425

> <Valence>
8.311

> <Coulomb>
21.302

> <VdW>
1.120

> <VdW6>
-11.478

> <VdW12>
12.598

> <Bond>
0.388

> <Angle>
3.090

> <Pdih>
4.832

> <Idih>
0.000

> <Tether>
0.000

$$$$
VeraChem MOL file


 29 28  0  0  0  0  0  0  0  0999 V2000     
   19.4725   20.8863   21.4399 C   0  0  0  0  0  0  0  0  0  0  0  0
   19.7870   20.8515   22.4880 H   0  0  0  0  0  0  0  0  0  0  0  0
   20.2965   21.3159   20.8556 H   0  0  0  0  0  0  0  0  0  0  0  0
   18.6211   21.5756   21.3710 H   0  0  0  0  0  0  0  0  0  0  0  0
   19.0833   19.4907   20.8988 C   0  0  0  0  0  0  0  0  0  0  0  0
   18.7637   19.6151   19.8546 H   0  0  0  0  0  0  0  0  0  0  0  0
   18.2082   19.0965   21.4326 H   0  0  0  0  0  0  0  0  0  0  0  0
   20.2452   18.4657   20.9345 C   0  0  0  0  0  0  0  0  0  0  0  0
   20.1211   17.7916   20.0757 H   0  0  0  0  0  0  0  0  0  0  0  0
   21.2044   18.9752   20.7692 H   0  0  0  0  0  0  0  0  0  0  0  0
   20.3254   17.5770   22.2056 C   0  0  0  0  0  0  0  0  0  0  0  0
   21.1059   16.8247   22.0261 H   0  0  0  0  0  0  0  0  0  0  0  0
   19.3939   17.0072   22.3275 H   0  0  0  0  0  0  0  0  0  0  0  0
   20.6782   18.3192   23.5196 C   0  0  0  0  0  0  0  0  0  0  0  0
   21.3225   17.6614   24.1179 H   0  0  0  0  0  0  0  0  0  0  0  0
   21.2794   19.2112   23.2987 H   0  0  0  0  0  0  0  0  0  0  0  0
   19.4320   18.6887   24.3659 C   0  0  0  0  0  0  0  0  0  0  0  0
   18.9480   17.7706   24.7242 H   0  0  0  0  0  0  0  0  0  0  0  0
   18.6949   19.1912   23.7302 H   0  0  0  0  0  0  0  0  0  0  0  0
   19.7492   19.6097   25.5657 C   0  0  2  0  0  0  0  0  0  0  0  0
   20.2615   20.5000   25.1882 H   0  0  0  0  0  0  0  0  0  0  0  0
   20.6619   18.9242   26.5981 C   0  0  0  0  0  0  0  0  0  0  0  0
   20.2168   17.9901   26.9628 H   0  0  0  0  0  0  0  0  0  0  0  0
   21.6443   18.6932   26.1701 H   0  0  0  0  0  0  0  0  0  0  0  0
   20.8303   19.5804   27.4609 H   0  0  0  0  0  0  0  0  0  0  0  0
   18.4883   20.0943   26.2258 N   0  3  0  0  0  0  0  0  0  0  0  0
   18.6932   20.7364   26.9969 H   0  0  0  0  0  0  0  0  0  0  0  0
   17.9463   19.3167   26.6121 H   0  0  0  0  0  0  0  0  0  0  0  0
   17.8845   20.5932   25.5660 H   0  0  0  0  0  0  0  0  0  0  0  0
  1  2  1  0  0  0  0
  1  3  1  0  0  0  0
  1  4  1  0  0  0  0
  1  5  1  0  0  0  0
  5  6  1  0  0  0  0
  5  7  1  0  0  0  0
  5  8  1  0  0  0  0
  8  9  1  0  0  0  0
  8 10  1  0  0  0  0
  8 11  1  0  0  0  0
 11 12  1  0  0  0  0
 11 13  1  0  0  0  0
 11 14  1  0  0  0  0
 14 15  1  0  0  0  0
 14 16  1  0  0  0  0
 14 17  1  0  0  0  0
 17 18  1  0  0  0  0
 17 19  1  0  0  0  0
 17 20  1  0  0  0  0
 20 21  1  0  0  0  0
 20 22  1  0  0  0  0
 22 23  1  0  0  0  0
 22 24  1  0  0  0  0
 22 25  1  0  0  0  0
 20 26  1  0  0  0  0
 26 27  1  0  0  0  0
 26 28  1  0  0  0  0
 26 29  1  0  0  0  0
M  END
> <VM2 Rank>
207

> <Conf_Id>
122

> <Probability>
0.00

> <Sum Probability>
100.00

> <Delta G>
6.814

> <G>
40.516

> <E>
2.189

> <-TS>
38.328

> <U+W>
-21.956

> <U>
30.891

> <W>
-52.847

> <W(PB)>
-55.241

> <W(SA)>
2.393

> <Valence>
9.315

> <Coulomb>
20.615

> <VdW>
0.961

> <VdW6>
-11.161

> <VdW12>
12.122

> <Bond>
0.342

> <Angle>
2.654

> <Pdih>
6.319

> <Idih>
0.000

> <Tether>
0.000

$$$$
VeraChem MOL file


 29 28  0  0  0  0  0  0  0  0999 V2000     
   18.0362   19.4512   21.5585 C   0  0  0  0  0  0  0  0  0  0  0  0
   18.1998   19.7491   22.5989 H   0  0  0  0  0  0  0  0  0  0  0  0
   17.8359   20.3603   20.9767 H   0  0  0  0  0  0  0  0  0  0  0  0
   17.1325   18.8290   21.5261 H   0  0  0  0  0  0  0  0  0  0  0  0
   19.2449   18.6820   20.9767 C   0  0  0  0  0  0  0  0  0  0  0  0
   19.0099   18.4278   19.9337 H   0  0  0  0  0  0  0  0  0  0  0  0
   19.3816   17.7226   21.4934 H   0  0  0  0  0  0  0  0  0  0  0  0
   20.5608   19.4998   20.9986 C   0  0  0  0  0  0  0  0  0  0  0  0
   21.1326   19.2377   20.0976 H   0  0  0  0  0  0  0  0  0  0  0  0
   20.3422   20.5723   20.9035 H   0  0  0  0  0  0  0  0  0  0  0  0
   21.4884   19.2513   22.2188 C   0  0  0  0  0  0  0  0  0  0  0  0
   22.4184   19.8076   22.0371 H   0  0  0  0  0  0  0  0  0  0  0  0
   21.7844   18.1940   22.2572 H   0  0  0  0  0  0  0  0  0  0  0  0
   20.9282   19.7042   23.5915 C   0  0  0  0  0  0  0  0  0  0  0  0
   21.7660   20.0703   24.2012 H   0  0  0  0  0  0  0  0  0  0  0  0
   20.2591   20.5628   23.4534 H   0  0  0  0  0  0  0  0  0  0  0  0
   20.2307   18.5634   24.3776 C   0  0  0  0  0  0  0  0  0  0  0  0
   20.9436   17.7377   24.5033 H   0  0  0  0  0  0  0  0  0  0  0  0
   19.3883   18.1566   23.8077 H   0  0  0  0  0  0  0  0  0  0  0  0
   19.7408   19.0081   25.7725 C   0  0  2  0  0  0  0  0  0  0  0  0
   20.5932   19.4236   26.3188 H   0  0  0  0  0  0  0  0  0  0  0  0
   19.2038   17.8023   26.5598 C   0  0  0  0  0  0  0  0  0  0  0  0
   18.8873   18.1050   27.5656 H   0  0  0  0  0  0  0  0  0  0  0  0
   18.3433   17.3482   26.0526 H   0  0  0  0  0  0  0  0  0  0  0  0
   19.9787   17.0338   26.6723 H   0  0  0  0  0  0  0  0  0  0  0  0
   18.7021   20.0938   25.7000 N   0  3  0  0  0  0  0  0  0  0  0  0
   18.4115   20.3943   26.6349 H   0  0  0  0  0  0  0  0  0  0  0  0
   17.8642   19.7755   25.2061 H   0  0  0  0  0  0  0  0  0  0  0  0
   19.0582   20.9189   25.2102 H   0  0  0  0  0  0  0  0  0  0  0  0
  1  2  1  0  0  0  0
  1  3  1  0  0  0  0
  1  4  1  0  0  0  0
  1  5  1  0  0  0  0
  5  6  1  0  0  0  0
  5  7  1  0  0  0  0
  5  8  1  0  0  0  0
  8  9  1  0  0  0  0
  8 10  1  0  0  0  0
  8 11  1  0  0  0  0
 11 12  1  0  0  0  0
 11 13  1  0  0  0  0
 11 14  1  0  0  0  0
 14 15  1  0  0  0  0
 14 16  1  0  0  0  0
 14 17  1  0  0  0  0
 17 18  1  0  0  0  0
 17 19  1  0  0  0  0
 17 20  1  0  0  0  0
 20 21  1  0  0  0  0
 20 22  1  0  0  0  0
 22 23  1  0  0  0  0
 22 24  1  0  0  0  0
 22 25  1  0  0  0  0
 20 26  1  0  0  0  0
 26 27  1  0  0  0  0
 26 28  1  0  0  0  0
 26 29  1  0  0  0  0
M  END
> <VM2 Rank>
208

> <Conf_Id>
1526

> <Probability>
0.00

> <Sum Probability>
100.00

> <Delta G>
6.823

> <G>
40.526

> <E>
2.176

> <-TS>
38.350

> <U+W>
-21.969

> <U>
30.725

> <W>
-52.693

> <W(PB)>
-55.086

> <W(SA)>
2.393

> <Valence>
8.746

> <Coulomb>
21.258

> <VdW>
0.720

> <VdW6>
-11.141

> <VdW12>
11.861

> <Bond>
0.332

> <Angle>
2.430

> <Pdih>
5.984

> <Idih>
0.000

> <Tether>
0.000

$$$$
VeraChem MOL file


 29 28  0  0  0  0  0  0  0  0999 V2000     
   20.6054   17.7307   21.2722 C   0  0  0  0  0  0  0  0  0  0  0  0
   21.6413   17.4158   21.0915 H   0  0  0  0  0  0  0  0  0  0  0  0
   20.3847   17.5631   22.3311 H   0  0  0  0  0  0  0  0  0  0  0  0
   19.9501   17.0743   20.6851 H   0  0  0  0  0  0  0  0  0  0  0  0
   20.4090   19.2093   20.8657 C   0  0  0  0  0  0  0  0  0  0  0  0
   20.6335   19.2951   19.7933 H   0  0  0  0  0  0  0  0  0  0  0  0
   21.1381   19.8535   21.3751 H   0  0  0  0  0  0  0  0  0  0  0  0
   18.9687   19.7252   21.1097 C   0  0  0  0  0  0  0  0  0  0  0  0
   18.7238   20.4280   20.3013 H   0  0  0  0  0  0  0  0  0  0  0  0
   18.2484   18.9018   21.0085 H   0  0  0  0  0  0  0  0  0  0  0  0
   18.7394   20.4721   22.4515 C   0  0  0  0  0  0  0  0  0  0  0  0
   17.7180   20.8765   22.4256 H   0  0  0  0  0  0  0  0  0  0  0  0
   19.3978   21.3496   22.5108 H   0  0  0  0  0  0  0  0  0  0  0  0
   18.8729   19.6105   23.7336 C   0  0  0  0  0  0  0  0  0  0  0  0
   18.1324   19.9714   24.4594 H   0  0  0  0  0  0  0  0  0  0  0  0
   18.5966   18.5721   23.5119 H   0  0  0  0  0  0  0  0  0  0  0  0
   20.2814   19.6953   24.3855 C   0  0  0  0  0  0  0  0  0  0  0  0
   20.5110   20.7473   24.5996 H   0  0  0  0  0  0  0  0  0  0  0  0
   21.0482   19.3638   23.6768 H   0  0  0  0  0  0  0  0  0  0  0  0
   20.4419   18.8906   25.6971 C   0  0  2  0  0  0  0  0  0  0  0  0
   21.4491   19.0871   26.0775 H   0  0  0  0  0  0  0  0  0  0  0  0
   20.3218   17.3743   25.4661 C   0  0  0  0  0  0  0  0  0  0  0  0
   19.3122   17.0899   25.1473 H   0  0  0  0  0  0  0  0  0  0  0  0
   21.0329   17.0394   24.7011 H   0  0  0  0  0  0  0  0  0  0  0  0
   20.5479   16.8271   26.3894 H   0  0  0  0  0  0  0  0  0  0  0  0
   19.4954   19.3479   26.7727 N   0  3  0  0  0  0  0  0  0  0  0  0
   19.6593   18.8494   27.6520 H   0  0  0  0  0  0  0  0  0  0  0  0
   18.5220   19.1846   26.5038 H   0  0  0  0  0  0  0  0  0  0  0  0
   19.5996   20.3486   26.9636 H   0  0  0  0  0  0  0  0  0  0  0  0
  1  2  1  0  0  0  0
  1  3  1  0  0  0  0
  1  4  1  0  0  0  0
  1  5  1  0  0  0  0
  5  6  1  0  0  0  0
  5  7  1  0  0  0  0
  5  8  1  0  0  0  0
  8  9  1  0  0  0  0
  8 10  1  0  0  0  0
  8 11  1  0  0  0  0
 11 12  1  0  0  0  0
 11 13  1  0  0  0  0
 11 14  1  0  0  0  0
 14 15  1  0  0  0  0
 14 16  1  0  0  0  0
 14 17  1  0  0  0  0
 17 18  1  0  0  0  0
 17 19  1  0  0  0  0
 17 20  1  0  0  0  0
 20 21  1  0  0  0  0
 20 22  1  0  0  0  0
 22 23  1  0  0  0  0
 22 24  1  0  0  0  0
 22 25  1  0  0  0  0
 20 26  1  0  0  0  0
 26 27  1  0  0  0  0
 26 28  1  0  0  0  0
 26 29  1  0  0  0  0
M  END
> <VM2 Rank>
209

> <Conf_Id>
314

> <Probability>
0.00

> <Sum Probability>
100.00

> <Delta G>
6.895

> <G>
40.597

> <E>
1.974

> <-TS>
38.623

> <U+W>
-22.170

> <U>
30.488

> <W>
-52.658

> <W(PB)>
-55.024

> <W(SA)>
2.365

> <Valence>
9.346

> <Coulomb>
20.316

> <VdW>
0.826

> <VdW6>
-11.863

> <VdW12>
12.689

> <Bond>
0.377

> <Angle>
2.762

> <Pdih>
6.207

> <Idih>
0.000

> <Tether>
0.000

$$$$
VeraChem MOL file


 29 28  0  0  0  0  0  0  0  0999 V2000     
   19.3355   20.9582   20.1894 C   0  0  0  0  0  0  0  0  0  0  0  0
   19.3677   21.7712   20.9264 H   0  0  0  0  0  0  0  0  0  0  0  0
   20.3003   20.9326   19.6661 H   0  0  0  0  0  0  0  0  0  0  0  0
   18.5591   21.2021   19.4525 H   0  0  0  0  0  0  0  0  0  0  0  0
   19.0366   19.6047   20.8677 C   0  0  0  0  0  0  0  0  0  0  0  0
   18.9764   18.8185   20.1020 H   0  0  0  0  0  0  0  0  0  0  0  0
   18.0511   19.6507   21.3515 H   0  0  0  0  0  0  0  0  0  0  0  0
   20.1177   19.2365   21.9073 C   0  0  0  0  0  0  0  0  0  0  0  0
   21.0956   19.1809   21.4089 H   0  0  0  0  0  0  0  0  0  0  0  0
   20.2035   20.0392   22.6489 H   0  0  0  0  0  0  0  0  0  0  0  0
   19.8218   17.8782   22.5902 C   0  0  0  0  0  0  0  0  0  0  0  0
   19.9149   17.0916   21.8284 H   0  0  0  0  0  0  0  0  0  0  0  0
   18.7827   17.8254   22.9411 H   0  0  0  0  0  0  0  0  0  0  0  0
   20.7972   17.5563   23.7509 C   0  0  0  0  0  0  0  0  0  0  0  0
   21.0071   16.4780   23.7266 H   0  0  0  0  0  0  0  0  0  0  0  0
   21.7656   18.0462   23.5785 H   0  0  0  0  0  0  0  0  0  0  0  0
   20.2801   17.8941   25.1763 C   0  0  0  0  0  0  0  0  0  0  0  0
   21.0414   17.5425   25.8856 H   0  0  0  0  0  0  0  0  0  0  0  0
   19.3772   17.3092   25.3958 H   0  0  0  0  0  0  0  0  0  0  0  0
   20.0089   19.3925   25.4471 C   0  0  2  0  0  0  0  0  0  0  0  0
   20.8010   19.9788   24.9715 H   0  0  0  0  0  0  0  0  0  0  0  0
   20.0377   19.6791   26.9573 C   0  0  0  0  0  0  0  0  0  0  0  0
   19.8605   20.7436   27.1543 H   0  0  0  0  0  0  0  0  0  0  0  0
   19.2693   19.1007   27.4856 H   0  0  0  0  0  0  0  0  0  0  0  0
   21.0145   19.4215   27.3855 H   0  0  0  0  0  0  0  0  0  0  0  0
   18.7004   19.8564   24.8679 N   0  3  0  0  0  0  0  0  0  0  0  0
   18.5606   20.8603   25.0151 H   0  0  0  0  0  0  0  0  0  0  0  0
   17.9103   19.3694   25.2997 H   0  0  0  0  0  0  0  0  0  0  0  0
   18.6641   19.6780   23.8597 H   0  0  0  0  0  0  0  0  0  0  0  0
  1  2  1  0  0  0  0
  1  3  1  0  0  0  0
  1  4  1  0  0  0  0
  1  5  1  0  0  0  0
  5  6  1  0  0  0  0
  5  7  1  0  0  0  0
  5  8  1  0  0  0  0
  8  9  1  0  0  0  0
  8 10  1  0  0  0  0
  8 11  1  0  0  0  0
 11 12  1  0  0  0  0
 11 13  1  0  0  0  0
 11 14  1  0  0  0  0
 14 15  1  0  0  0  0
 14 16  1  0  0  0  0
 14 17  1  0  0  0  0
 17 18  1  0  0  0  0
 17 19  1  0  0  0  0
 17 20  1  0  0  0  0
 20 21  1  0  0  0  0
 20 22  1  0  0  0  0
 22 23  1  0  0  0  0
 22 24  1  0  0  0  0
 22 25  1  0  0  0  0
 20 26  1  0  0  0  0
 26 27  1  0  0  0  0
 26 28  1  0  0  0  0
 26 29  1  0  0  0  0
M  END
> <VM2 Rank>
210

> <Conf_Id>
1528

> <Probability>
0.00

> <Sum Probability>
100.00

> <Delta G>
7.120

> <G>
40.822

> <E>
2.728

> <-TS>
38.094

> <U+W>
-21.416

> <U>
29.728

> <W>
-51.144

> <W(PB)>
-53.597

> <W(SA)>
2.453

> <Valence>
7.447

> <Coulomb>
21.445

> <VdW>
0.835

> <VdW6>
-10.815

> <VdW12>
11.650

> <Bond>
0.282

> <Angle>
2.109

> <Pdih>
5.057

> <Idih>
0.000

> <Tether>
0.000

$$$$
VeraChem MOL file


 29 28  0  0  0  0  0  0  0  0999 V2000     
   18.2475   19.3822   20.0626 C   0  0  0  0  0  0  0  0  0  0  0  0
   18.4541   20.4142   19.7503 H   0  0  0  0  0  0  0  0  0  0  0  0
   18.0064   18.8000   19.1638 H   0  0  0  0  0  0  0  0  0  0  0  0
   17.3585   19.3911   20.7068 H   0  0  0  0  0  0  0  0  0  0  0  0
   19.4594   18.7721   20.7978 C   0  0  0  0  0  0  0  0  0  0  0  0
   20.3225   18.7439   20.1179 H   0  0  0  0  0  0  0  0  0  0  0  0
   19.2347   17.7309   21.0684 H   0  0  0  0  0  0  0  0  0  0  0  0
   19.8210   19.5744   22.0668 C   0  0  0  0  0  0  0  0  0  0  0  0
   20.0484   20.6127   21.7879 H   0  0  0  0  0  0  0  0  0  0  0  0
   18.9493   19.6122   22.7295 H   0  0  0  0  0  0  0  0  0  0  0  0
   21.0371   18.9638   22.8046 C   0  0  0  0  0  0  0  0  0  0  0  0
   21.9007   19.0041   22.1262 H   0  0  0  0  0  0  0  0  0  0  0  0
   20.8748   17.8978   23.0112 H   0  0  0  0  0  0  0  0  0  0  0  0
   21.4031   19.7179   24.1086 C   0  0  0  0  0  0  0  0  0  0  0  0
   22.4937   19.8519   24.1142 H   0  0  0  0  0  0  0  0  0  0  0  0
   20.9957   20.7375   24.0958 H   0  0  0  0  0  0  0  0  0  0  0  0
   21.0310   18.9920   25.4344 C   0  0  0  0  0  0  0  0  0  0  0  0
   21.5061   19.5494   26.2523 H   0  0  0  0  0  0  0  0  0  0  0  0
   21.4992   17.9991   25.4558 H   0  0  0  0  0  0  0  0  0  0  0  0
   19.5284   18.8637   25.7923 C   0  0  2  0  0  0  0  0  0  0  0  0
   19.4812   18.6809   26.8702 H   0  0  0  0  0  0  0  0  0  0  0  0
   18.8506   17.6552   25.1217 C   0  0  0  0  0  0  0  0  0  0  0  0
   18.7729   17.7669   24.0370 H   0  0  0  0  0  0  0  0  0  0  0  0
   19.4070   16.7331   25.3299 H   0  0  0  0  0  0  0  0  0  0  0  0
   17.8352   17.5220   25.5146 H   0  0  0  0  0  0  0  0  0  0  0  0
   18.7579   20.1347   25.5652 N   0  3  0  0  0  0  0  0  0  0  0  0
   17.7803   20.0372   25.8542 H   0  0  0  0  0  0  0  0  0  0  0  0
   18.7680   20.3980   24.5772 H   0  0  0  0  0  0  0  0  0  0  0  0
   19.1590   20.9130   26.0964 H   0  0  0  0  0  0  0  0  0  0  0  0
  1  2  1  0  0  0  0
  1  3  1  0  0  0  0
  1  4  1  0  0  0  0
  1  5  1  0  0  0  0
  5  6  1  0  0  0  0
  5  7  1  0  0  0  0
  5  8  1  0  0  0  0
  8  9  1  0  0  0  0
  8 10  1  0  0  0  0
  8 11  1  0  0  0  0
 11 12  1  0  0  0  0
 11 13  1  0  0  0  0
 11 14  1  0  0  0  0
 14 15  1  0  0  0  0
 14 16  1  0  0  0  0
 14 17  1  0  0  0  0
 17 18  1  0  0  0  0
 17 19  1  0  0  0  0
 17 20  1  0  0  0  0
 20 21  1  0  0  0  0
 20 22  1  0  0  0  0
 22 23  1  0  0  0  0
 22 24  1  0  0  0  0
 22 25  1  0  0  0  0
 20 26  1  0  0  0  0
 26 27  1  0  0  0  0
 26 28  1  0  0  0  0
 26 29  1  0  0  0  0
M  END
> <VM2 Rank>
211

> <Conf_Id>
1349

> <Probability>
0.00

> <Sum Probability>
100.00

> <Delta G>
7.405

> <G>
41.108

> <E>
2.873

> <-TS>
38.234

> <U+W>
-21.271

> <U>
31.279

> <W>
-52.551

> <W(PB)>
-54.968

> <W(SA)>
2.418

> <Valence>
9.217

> <Coulomb>
21.424

> <VdW>
0.639

> <VdW6>
-11.253

> <VdW12>
11.891

> <Bond>
0.349

> <Angle>
3.017

> <Pdih>
5.852

> <Idih>
0.000

> <Tether>
0.000

$$$$
VeraChem MOL file


 29 28  0  0  0  0  0  0  0  0999 V2000     
   18.4127   18.5546   20.2856 C   0  0  0  0  0  0  0  0  0  0  0  0
   18.9587   17.6122   20.1477 H   0  0  0  0  0  0  0  0  0  0  0  0
   17.3407   18.3211   20.3211 H   0  0  0  0  0  0  0  0  0  0  0  0
   18.5910   19.1851   19.4047 H   0  0  0  0  0  0  0  0  0  0  0  0
   18.8583   19.2688   21.5789 C   0  0  0  0  0  0  0  0  0  0  0  0
   18.6246   18.6265   22.4347 H   0  0  0  0  0  0  0  0  0  0  0  0
   18.2722   20.1902   21.7020 H   0  0  0  0  0  0  0  0  0  0  0  0
   20.3669   19.6111   21.5480 C   0  0  0  0  0  0  0  0  0  0  0  0
   20.9626   18.6990   21.4058 H   0  0  0  0  0  0  0  0  0  0  0  0
   20.5545   20.2339   20.6623 H   0  0  0  0  0  0  0  0  0  0  0  0
   20.8625   20.3849   22.7980 C   0  0  0  0  0  0  0  0  0  0  0  0
   20.0585   20.9975   23.2197 H   0  0  0  0  0  0  0  0  0  0  0  0
   21.6153   21.1101   22.4587 H   0  0  0  0  0  0  0  0  0  0  0  0
   21.5455   19.5075   23.8832 C   0  0  0  0  0  0  0  0  0  0  0  0
   22.4215   19.0299   23.4230 H   0  0  0  0  0  0  0  0  0  0  0  0
   21.9502   20.1608   24.6685 H   0  0  0  0  0  0  0  0  0  0  0  0
   20.6886   18.3956   24.5471 C   0  0  0  0  0  0  0  0  0  0  0  0
   21.3883   17.7052   25.0368 H   0  0  0  0  0  0  0  0  0  0  0  0
   20.1735   17.7922   23.7917 H   0  0  0  0  0  0  0  0  0  0  0  0
   19.6989   18.8928   25.6276 C   0  0  2  0  0  0  0  0  0  0  0  0
   20.2536   19.5193   26.3328 H   0  0  0  0  0  0  0  0  0  0  0  0
   19.1171   17.6992   26.4022 C   0  0  0  0  0  0  0  0  0  0  0  0
   18.4421   18.0425   27.1958 H   0  0  0  0  0  0  0  0  0  0  0  0
   18.5530   17.0322   25.7381 H   0  0  0  0  0  0  0  0  0  0  0  0
   19.9151   17.1142   26.8762 H   0  0  0  0  0  0  0  0  0  0  0  0
   18.5854   19.7415   25.0835 N   0  3  0  0  0  0  0  0  0  0  0  0
   18.9534   20.5582   24.5904 H   0  0  0  0  0  0  0  0  0  0  0  0
   17.9764   20.0820   25.8333 H   0  0  0  0  0  0  0  0  0  0  0  0
   18.0030   19.2151   24.4280 H   0  0  0  0  0  0  0  0  0  0  0  0
  1  2  1  0  0  0  0
  1  3  1  0  0  0  0
  1  4  1  0  0  0  0
  1  5  1  0  0  0  0
  5  6  1  0  0  0  0
  5  7  1  0  0  0  0
  5  8  1  0  0  0  0
  8  9  1  0  0  0  0
  8 10  1  0  0  0  0
  8 11  1  0  0  0  0
 11 12  1  0  0  0  0
 11 13  1  0  0  0  0
 11 14  1  0  0  0  0
 14 15  1  0  0  0  0
 14 16  1  0  0  0  0
 14 17  1  0  0  0  0
 17 18  1  0  0  0  0
 17 19  1  0  0  0  0
 17 20  1  0  0  0  0
 20 21  1  0  0  0  0
 20 22  1  0  0  0  0
 22 23  1  0  0  0  0
 22 24  1  0  0  0  0
 22 25  1  0  0  0  0
 20 26  1  0  0  0  0
 26 27  1  0  0  0  0
 26 28  1  0  0  0  0
 26 29  1  0  0  0  0
M  END
> <VM2 Rank>
212

> <Conf_Id>
690

> <Probability>
0.00

> <Sum Probability>
100.00

> <Delta G>
7.653

> <G>
41.356

> <E>
3.419

> <-TS>
37.937

> <U+W>
-20.726

> <U>
31.271

> <W>
-51.997

> <W(PB)>
-54.399

> <W(SA)>
2.402

> <Valence>
8.407

> <Coulomb>
22.353

> <VdW>
0.511

> <VdW6>
-11.245

> <VdW12>
11.756

> <Bond>
0.373

> <Angle>
3.094

> <Pdih>
4.940

> <Idih>
0.000

> <Tether>
0.000

$$$$
VeraChem MOL file


 29 28  0  0  0  0  0  0  0  0999 V2000     
   19.2341   20.8569   21.4926 C   0  0  0  0  0  0  0  0  0  0  0  0
   18.2602   20.8891   20.9872 H   0  0  0  0  0  0  0  0  0  0  0  0
   19.0520   20.7083   22.5610 H   0  0  0  0  0  0  0  0  0  0  0  0
   19.7078   21.8390   21.3663 H   0  0  0  0  0  0  0  0  0  0  0  0
   20.1261   19.7440   20.8962 C   0  0  0  0  0  0  0  0  0  0  0  0
   21.1339   19.7776   21.3313 H   0  0  0  0  0  0  0  0  0  0  0  0
   20.2564   19.9565   19.8258 H   0  0  0  0  0  0  0  0  0  0  0  0
   19.5203   18.3258   21.0450 C   0  0  0  0  0  0  0  0  0  0  0  0
   18.4231   18.3774   21.0226 H   0  0  0  0  0  0  0  0  0  0  0  0
   19.8033   17.7470   20.1549 H   0  0  0  0  0  0  0  0  0  0  0  0
   19.9912   17.5181   22.2849 C   0  0  0  0  0  0  0  0  0  0  0  0
   21.0828   17.3960   22.2626 H   0  0  0  0  0  0  0  0  0  0  0  0
   19.5830   16.5030   22.1832 H   0  0  0  0  0  0  0  0  0  0  0  0
   19.5393   18.0719   23.6607 C   0  0  0  0  0  0  0  0  0  0  0  0
   18.5854   18.6033   23.5535 H   0  0  0  0  0  0  0  0  0  0  0  0
   19.3354   17.2144   24.3153 H   0  0  0  0  0  0  0  0  0  0  0  0
   20.6116   18.9665   24.3423 C   0  0  0  0  0  0  0  0  0  0  0  0
   20.8994   19.7847   23.6734 H   0  0  0  0  0  0  0  0  0  0  0  0
   21.5245   18.3764   24.4965 H   0  0  0  0  0  0  0  0  0  0  0  0
   20.1854   19.5750   25.6995 C   0  0  2  0  0  0  0  0  0  0  0  0
   21.0183   20.1891   26.0558 H   0  0  0  0  0  0  0  0  0  0  0  0
   19.9186   18.4942   26.7616 C   0  0  0  0  0  0  0  0  0  0  0  0
   19.0295   17.8995   26.5209 H   0  0  0  0  0  0  0  0  0  0  0  0
   20.7748   17.8139   26.8494 H   0  0  0  0  0  0  0  0  0  0  0  0
   19.7574   18.9541   27.7442 H   0  0  0  0  0  0  0  0  0  0  0  0
   19.0094   20.5035   25.5712 N   0  3  0  0  0  0  0  0  0  0  0  0
   19.2004   21.2622   24.9109 H   0  0  0  0  0  0  0  0  0  0  0  0
   18.7743   20.9327   26.4709 H   0  0  0  0  0  0  0  0  0  0  0  0
   18.1785   20.0054   25.2426 H   0  0  0  0  0  0  0  0  0  0  0  0
  1  2  1  0  0  0  0
  1  3  1  0  0  0  0
  1  4  1  0  0  0  0
  1  5  1  0  0  0  0
  5  6  1  0  0  0  0
  5  7  1  0  0  0  0
  5  8  1  0  0  0  0
  8  9  1  0  0  0  0
  8 10  1  0  0  0  0
  8 11  1  0  0  0  0
 11 12  1  0  0  0  0
 11 13  1  0  0  0  0
 11 14  1  0  0  0  0
 14 15  1  0  0  0  0
 14 16  1  0  0  0  0
 14 17  1  0  0  0  0
 17 18  1  0  0  0  0
 17 19  1  0  0  0  0
 17 20  1  0  0  0  0
 20 21  1  0  0  0  0
 20 22  1  0  0  0  0
 22 23  1  0  0  0  0
 22 24  1  0  0  0  0
 22 25  1  0  0  0  0
 20 26  1  0  0  0  0
 26 27  1  0  0  0  0
 26 28  1  0  0  0  0
 26 29  1  0  0  0  0
M  END
> <VM2 Rank>
213

> <Conf_Id>
224

> <Probability>
0.00

> <Sum Probability>
100.00

> <Delta G>
7.686

> <G>
41.388

> <E>
2.824

> <-TS>
38.564

> <U+W>
-21.321

> <U>
31.481

> <W>
-52.802

> <W(PB)>
-55.148

> <W(SA)>
2.346

> <Valence>
9.332

> <Coulomb>
21.340

> <VdW>
0.810

> <VdW6>
-11.777

> <VdW12>
12.587

> <Bond>
0.375

> <Angle>
2.763

> <Pdih>
6.194

> <Idih>
0.000

> <Tether>
0.000

$$$$
VeraChem MOL file


 29 28  0  0  0  0  0  0  0  0999 V2000     
   19.0408   19.6609   19.7811 C   0  0  0  0  0  0  0  0  0  0  0  0
   18.3402   20.2016   19.1316 H   0  0  0  0  0  0  0  0  0  0  0  0
   20.0026   19.5946   19.2562 H   0  0  0  0  0  0  0  0  0  0  0  0
   18.6506   18.6441   19.9140 H   0  0  0  0  0  0  0  0  0  0  0  0
   19.1962   20.3897   21.1348 C   0  0  0  0  0  0  0  0  0  0  0  0
   18.2246   20.4236   21.6467 H   0  0  0  0  0  0  0  0  0  0  0  0
   19.4803   21.4342   20.9447 H   0  0  0  0  0  0  0  0  0  0  0  0
   20.2579   19.7450   22.0578 C   0  0  0  0  0  0  0  0  0  0  0  0
   21.2319   19.7515   21.5490 H   0  0  0  0  0  0  0  0  0  0  0  0
   20.3869   20.3780   22.9438 H   0  0  0  0  0  0  0  0  0  0  0  0
   19.9115   18.2913   22.4722 C   0  0  0  0  0  0  0  0  0  0  0  0
   20.0329   17.6475   21.5904 H   0  0  0  0  0  0  0  0  0  0  0  0
   18.8564   18.1992   22.7617 H   0  0  0  0  0  0  0  0  0  0  0  0
   20.8277   17.7460   23.5974 C   0  0  0  0  0  0  0  0  0  0  0  0
   21.0251   16.6855   23.3879 H   0  0  0  0  0  0  0  0  0  0  0  0
   21.8091   18.2388   23.5585 H   0  0  0  0  0  0  0  0  0  0  0  0
   20.2484   17.8319   25.0363 C   0  0  0  0  0  0  0  0  0  0  0  0
   20.9684   17.3381   25.7026 H   0  0  0  0  0  0  0  0  0  0  0  0
   19.3260   17.2401   25.1048 H   0  0  0  0  0  0  0  0  0  0  0  0
   19.9902   19.2623   25.5640 C   0  0  2  0  0  0  0  0  0  0  0  0
   20.8199   19.9022   25.2483 H   0  0  0  0  0  0  0  0  0  0  0  0
   19.9359   19.2664   27.1005 C   0  0  0  0  0  0  0  0  0  0  0  0
   19.1268   18.6242   27.4706 H   0  0  0  0  0  0  0  0  0  0  0  0
   20.8807   18.9058   27.5260 H   0  0  0  0  0  0  0  0  0  0  0  0
   19.7680   20.2816   27.4808 H   0  0  0  0  0  0  0  0  0  0  0  0
   18.7275   19.8625   25.0098 N   0  3  0  0  0  0  0  0  0  0  0  0
   18.7459   19.8661   23.9854 H   0  0  0  0  0  0  0  0  0  0  0  0
   18.6008   20.8282   25.3267 H   0  0  0  0  0  0  0  0  0  0  0  0
   17.9038   19.3312   25.3052 H   0  0  0  0  0  0  0  0  0  0  0  0
  1  2  1  0  0  0  0
  1  3  1  0  0  0  0
  1  4  1  0  0  0  0
  1  5  1  0  0  0  0
  5  6  1  0  0  0  0
  5  7  1  0  0  0  0
  5  8  1  0  0  0  0
  8  9  1  0  0  0  0
  8 10  1  0  0  0  0
  8 11  1  0  0  0  0
 11 12  1  0  0  0  0
 11 13  1  0  0  0  0
 11 14  1  0  0  0  0
 14 15  1  0  0  0  0
 14 16  1  0  0  0  0
 14 17  1  0  0  0  0
 17 18  1  0  0  0  0
 17 19  1  0  0  0  0
 17 20  1  0  0  0  0
 20 21  1  0  0  0  0
 20 22  1  0  0  0  0
 22 23  1  0  0  0  0
 22 24  1  0  0  0  0
 22 25  1  0  0  0  0
 20 26  1  0  0  0  0
 26 27  1  0  0  0  0
 26 28  1  0  0  0  0
 26 29  1  0  0  0  0
M  END
> <VM2 Rank>
214

> <Conf_Id>
616

> <Probability>
0.00

> <Sum Probability>
100.00

> <Delta G>
7.691

> <G>
41.393

> <E>
3.121

> <-TS>
38.272

> <U+W>
-21.023

> <U>
30.361

> <W>
-51.385

> <W(PB)>
-53.824

> <W(SA)>
2.439

> <Valence>
7.956

> <Coulomb>
21.427

> <VdW>
0.978

> <VdW6>
-11.470

> <VdW12>
12.448

> <Bond>
0.321

> <Angle>
2.290

> <Pdih>
5.345

> <Idih>
0.000

> <Tether>
0.000

$$$$
VeraChem MOL file


 29 28  0  0  0  0  0  0  0  0999 V2000     
   18.1741   19.3272   20.1251 C   0  0  0  0  0  0  0  0  0  0  0  0
   18.3688   18.3493   19.6658 H   0  0  0  0  0  0  0  0  0  0  0  0
   17.3050   19.2266   20.7883 H   0  0  0  0  0  0  0  0  0  0  0  0
   17.9070   20.0284   19.3239 H   0  0  0  0  0  0  0  0  0  0  0  0
   19.4095   19.8314   20.9005 C   0  0  0  0  0  0  0  0  0  0  0  0
   19.1959   20.8250   21.3186 H   0  0  0  0  0  0  0  0  0  0  0  0
   20.2512   19.9554   20.2046 H   0  0  0  0  0  0  0  0  0  0  0  0
   19.8087   18.8596   22.0324 C   0  0  0  0  0  0  0  0  0  0  0  0
   18.9555   18.7147   22.7038 H   0  0  0  0  0  0  0  0  0  0  0  0
   20.0309   17.8730   21.6022 H   0  0  0  0  0  0  0  0  0  0  0  0
   21.0474   19.3635   22.8124 C   0  0  0  0  0  0  0  0  0  0  0  0
   20.9111   20.4033   23.1377 H   0  0  0  0  0  0  0  0  0  0  0  0
   21.8982   19.3840   22.1170 H   0  0  0  0  0  0  0  0  0  0  0  0
   21.4229   18.4634   24.0189 C   0  0  0  0  0  0  0  0  0  0  0  0
   21.0135   17.4524   23.8927 H   0  0  0  0  0  0  0  0  0  0  0  0
   22.5135   18.3303   24.0043 H   0  0  0  0  0  0  0  0  0  0  0  0
   21.0549   19.0384   25.4176 C   0  0  0  0  0  0  0  0  0  0  0  0
   21.5233   20.0242   25.5371 H   0  0  0  0  0  0  0  0  0  0  0  0
   21.5265   18.4009   26.1772 H   0  0  0  0  0  0  0  0  0  0  0  0
   19.5520   19.1516   25.7741 C   0  0  2  0  0  0  0  0  0  0  0  0
   19.4971   19.4702   26.8196 H   0  0  0  0  0  0  0  0  0  0  0  0
   18.8259   17.7982   25.6769 C   0  0  0  0  0  0  0  0  0  0  0  0
   17.7987   17.8859   26.0515 H   0  0  0  0  0  0  0  0  0  0  0  0
   18.7769   17.4306   24.6463 H   0  0  0  0  0  0  0  0  0  0  0  0
   19.3369   17.0411   26.2845 H   0  0  0  0  0  0  0  0  0  0  0  0
   18.8406   20.2227   24.9960 N   0  3  0  0  0  0  0  0  0  0  0  0
   17.8493   20.2740   25.2481 H   0  0  0  0  0  0  0  0  0  0  0  0
   18.9040   20.0448   23.9903 H   0  0  0  0  0  0  0  0  0  0  0  0
   19.2503   21.1446   25.1725 H   0  0  0  0  0  0  0  0  0  0  0  0
  1  2  1  0  0  0  0
  1  3  1  0  0  0  0
  1  4  1  0  0  0  0
  1  5  1  0  0  0  0
  5  6  1  0  0  0  0
  5  7  1  0  0  0  0
  5  8  1  0  0  0  0
  8  9  1  0  0  0  0
  8 10  1  0  0  0  0
  8 11  1  0  0  0  0
 11 12  1  0  0  0  0
 11 13  1  0  0  0  0
 11 14  1  0  0  0  0
 14 15  1  0  0  0  0
 14 16  1  0  0  0  0
 14 17  1  0  0  0  0
 17 18  1  0  0  0  0
 17 19  1  0  0  0  0
 17 20  1  0  0  0  0
 20 21  1  0  0  0  0
 20 22  1  0  0  0  0
 22 23  1  0  0  0  0
 22 24  1  0  0  0  0
 22 25  1  0  0  0  0
 20 26  1  0  0  0  0
 26 27  1  0  0  0  0
 26 28  1  0  0  0  0
 26 29  1  0  0  0  0
M  END
> <VM2 Rank>
215

> <Conf_Id>
1530

> <Probability>
0.00

> <Sum Probability>
100.00

> <Delta G>
7.851

> <G>
41.553

> <E>
3.007

> <-TS>
38.546

> <U+W>
-21.138

> <U>
30.269

> <W>
-51.406

> <W(PB)>
-53.817

> <W(SA)>
2.411

> <Valence>
8.045

> <Coulomb>
21.611

> <VdW>
0.612

> <VdW6>
-11.609

> <VdW12>
12.221

> <Bond>
0.344

> <Angle>
2.670

> <Pdih>
5.031

> <Idih>
0.000

> <Tether>
0.000

$$$$
VeraChem MOL file


 29 28  0  0  0  0  0  0  0  0999 V2000     
   19.9541   20.3235   20.0306 C   0  0  0  0  0  0  0  0  0  0  0  0
   18.9986   20.7619   19.7147 H   0  0  0  0  0  0  0  0  0  0  0  0
   20.3369   20.9192   20.8668 H   0  0  0  0  0  0  0  0  0  0  0  0
   20.6598   20.4266   19.1961 H   0  0  0  0  0  0  0  0  0  0  0  0
   19.7778   18.8347   20.4101 C   0  0  0  0  0  0  0  0  0  0  0  0
   20.7521   18.3799   20.6372 H   0  0  0  0  0  0  0  0  0  0  0  0
   19.3949   18.3025   19.5281 H   0  0  0  0  0  0  0  0  0  0  0  0
   18.7925   18.6176   21.5873 C   0  0  0  0  0  0  0  0  0  0  0  0
   18.0712   19.4449   21.6370 H   0  0  0  0  0  0  0  0  0  0  0  0
   18.1967   17.7196   21.3728 H   0  0  0  0  0  0  0  0  0  0  0  0
   19.4631   18.4128   22.9704 C   0  0  0  0  0  0  0  0  0  0  0  0
   20.1008   17.5187   22.9386 H   0  0  0  0  0  0  0  0  0  0  0  0
   18.6638   18.2027   23.6897 H   0  0  0  0  0  0  0  0  0  0  0  0
   20.2936   19.6237   23.4601 C   0  0  0  0  0  0  0  0  0  0  0  0
   21.0736   19.8380   22.7192 H   0  0  0  0  0  0  0  0  0  0  0  0
   19.6582   20.5184   23.4975 H   0  0  0  0  0  0  0  0  0  0  0  0
   21.0122   19.4199   24.8247 C   0  0  0  0  0  0  0  0  0  0  0  0
   21.6018   20.3254   25.0188 H   0  0  0  0  0  0  0  0  0  0  0  0
   21.7497   18.6115   24.7345 H   0  0  0  0  0  0  0  0  0  0  0  0
   20.1254   19.1776   26.0738 C   0  0  2  0  0  0  0  0  0  0  0  0
   20.6892   19.5503   26.9346 H   0  0  0  0  0  0  0  0  0  0  0  0
   19.8736   17.6815   26.3390 C   0  0  0  0  0  0  0  0  0  0  0  0
   19.2855   17.2072   25.5479 H   0  0  0  0  0  0  0  0  0  0  0  0
   20.8231   17.1389   26.4258 H   0  0  0  0  0  0  0  0  0  0  0  0
   19.3322   17.5470   27.2834 H   0  0  0  0  0  0  0  0  0  0  0  0
   18.8436   19.9647   26.0579 N   0  3  0  0  0  0  0  0  0  0  0  0
   19.0245   20.9692   25.9752 H   0  0  0  0  0  0  0  0  0  0  0  0
   18.3029   19.8193   26.9153 H   0  0  0  0  0  0  0  0  0  0  0  0
   18.2546   19.6916   25.2673 H   0  0  0  0  0  0  0  0  0  0  0  0
  1  2  1  0  0  0  0
  1  3  1  0  0  0  0
  1  4  1  0  0  0  0
  1  5  1  0  0  0  0
  5  6  1  0  0  0  0
  5  7  1  0  0  0  0
  5  8  1  0  0  0  0
  8  9  1  0  0  0  0
  8 10  1  0  0  0  0
  8 11  1  0  0  0  0
 11 12  1  0  0  0  0
 11 13  1  0  0  0  0
 11 14  1  0  0  0  0
 14 15  1  0  0  0  0
 14 16  1  0  0  0  0
 14 17  1  0  0  0  0
 17 18  1  0  0  0  0
 17 19  1  0  0  0  0
 17 20  1  0  0  0  0
 20 21  1  0  0  0  0
 20 22  1  0  0  0  0
 22 23  1  0  0  0  0
 22 24  1  0  0  0  0
 22 25  1  0  0  0  0
 20 26  1  0  0  0  0
 26 27  1  0  0  0  0
 26 28  1  0  0  0  0
 26 29  1  0  0  0  0
M  END
> <VM2 Rank>
216

> <Conf_Id>
93

> <Probability>
0.00

> <Sum Probability>
100.00

> <Delta G>
7.860

> <G>
41.562

> <E>
3.398

> <-TS>
38.164

> <U+W>
-20.747

> <U>
31.583

> <W>
-52.329

> <W(PB)>
-54.755

> <W(SA)>
2.425

> <Valence>
9.577

> <Coulomb>
20.656

> <VdW>
1.349

> <VdW6>
-11.328

> <VdW12>
12.677

> <Bond>
0.393

> <Angle>
3.220

> <Pdih>
5.965

> <Idih>
0.000

> <Tether>
0.000

$$$$
VeraChem MOL file


 29 28  0  0  0  0  0  0  0  0999 V2000     
   18.3538   18.8491   20.1284 C   0  0  0  0  0  0  0  0  0  0  0  0
   17.5471   18.4496   20.7567 H   0  0  0  0  0  0  0  0  0  0  0  0
   18.0433   19.8351   19.7587 H   0  0  0  0  0  0  0  0  0  0  0  0
   18.4665   18.1848   19.2618 H   0  0  0  0  0  0  0  0  0  0  0  0
   19.6766   18.9436   20.9178 C   0  0  0  0  0  0  0  0  0  0  0  0
   20.4700   19.3138   20.2536 H   0  0  0  0  0  0  0  0  0  0  0  0
   19.9762   17.9364   21.2354 H   0  0  0  0  0  0  0  0  0  0  0  0
   19.5429   19.8797   22.1423 C   0  0  0  0  0  0  0  0  0  0  0  0
   19.2267   20.8718   21.7908 H   0  0  0  0  0  0  0  0  0  0  0  0
   18.7413   19.5128   22.7931 H   0  0  0  0  0  0  0  0  0  0  0  0
   20.8664   20.0373   22.9349 C   0  0  0  0  0  0  0  0  0  0  0  0
   20.8039   20.9074   23.6016 H   0  0  0  0  0  0  0  0  0  0  0  0
   21.6644   20.2855   22.2213 H   0  0  0  0  0  0  0  0  0  0  0  0
   21.2937   18.7806   23.7424 C   0  0  0  0  0  0  0  0  0  0  0  0
   20.8248   17.8727   23.3449 H   0  0  0  0  0  0  0  0  0  0  0  0
   22.3706   18.6358   23.5794 H   0  0  0  0  0  0  0  0  0  0  0  0
   21.0758   18.8732   25.2804 C   0  0  0  0  0  0  0  0  0  0  0  0
   21.5953   19.7596   25.6674 H   0  0  0  0  0  0  0  0  0  0  0  0
   21.5831   18.0163   25.7429 H   0  0  0  0  0  0  0  0  0  0  0  0
   19.6153   18.8807   25.7960 C   0  0  2  0  0  0  0  0  0  0  0  0
   19.6641   18.8296   26.8881 H   0  0  0  0  0  0  0  0  0  0  0  0
   18.8214   17.6510   25.3209 C   0  0  0  0  0  0  0  0  0  0  0  0
   17.8377   17.6188   25.8049 H   0  0  0  0  0  0  0  0  0  0  0  0
   18.6615   17.6589   24.2370 H   0  0  0  0  0  0  0  0  0  0  0  0
   19.3496   16.7253   25.5810 H   0  0  0  0  0  0  0  0  0  0  0  0
   18.8901   20.1607   25.4908 N   0  3  0  0  0  0  0  0  0  0  0  0
   17.9290   20.1409   25.8440 H   0  0  0  0  0  0  0  0  0  0  0  0
   18.8538   20.3261   24.4822 H   0  0  0  0  0  0  0  0  0  0  0  0
   19.3579   20.9649   25.9188 H   0  0  0  0  0  0  0  0  0  0  0  0
  1  2  1  0  0  0  0
  1  3  1  0  0  0  0
  1  4  1  0  0  0  0
  1  5  1  0  0  0  0
  5  6  1  0  0  0  0
  5  7  1  0  0  0  0
  5  8  1  0  0  0  0
  8  9  1  0  0  0  0
  8 10  1  0  0  0  0
  8 11  1  0  0  0  0
 11 12  1  0  0  0  0
 11 13  1  0  0  0  0
 11 14  1  0  0  0  0
 14 15  1  0  0  0  0
 14 16  1  0  0  0  0
 14 17  1  0  0  0  0
 17 18  1  0  0  0  0
 17 19  1  0  0  0  0
 17 20  1  0  0  0  0
 20 21  1  0  0  0  0
 20 22  1  0  0  0  0
 22 23  1  0  0  0  0
 22 24  1  0  0  0  0
 22 25  1  0  0  0  0
 20 26  1  0  0  0  0
 26 27  1  0  0  0  0
 26 28  1  0  0  0  0
 26 29  1  0  0  0  0
M  END
> <VM2 Rank>
217

> <Conf_Id>
665

> <Probability>
0.00

> <Sum Probability>
100.00

> <Delta G>
8.012

> <G>
41.714

> <E>
3.122

> <-TS>
38.592

> <U+W>
-21.023

> <U>
31.074

> <W>
-52.097

> <W(PB)>
-54.487

> <W(SA)>
2.390

> <Valence>
8.726

> <Coulomb>
21.603

> <VdW>
0.745

> <VdW6>
-12.039

> <VdW12>
12.784

> <Bond>
0.398

> <Angle>
2.856

> <Pdih>
5.472

> <Idih>
0.000

> <Tether>
0.000

$$$$
VeraChem MOL file


 29 28  0  0  0  0  0  0  0  0999 V2000     
   19.6305   18.9408   19.7198 C   0  0  0  0  0  0  0  0  0  0  0  0
   20.6733   18.6360   19.8722 H   0  0  0  0  0  0  0  0  0  0  0  0
   19.2305   18.3448   18.8894 H   0  0  0  0  0  0  0  0  0  0  0  0
   19.6210   19.9945   19.4121 H   0  0  0  0  0  0  0  0  0  0  0  0
   18.7850   18.7270   20.9956 C   0  0  0  0  0  0  0  0  0  0  0  0
   18.8348   17.6718   21.2985 H   0  0  0  0  0  0  0  0  0  0  0  0
   17.7309   18.9300   20.7601 H   0  0  0  0  0  0  0  0  0  0  0  0
   19.2137   19.6308   22.1762 C   0  0  0  0  0  0  0  0  0  0  0  0
   19.1347   20.6848   21.8758 H   0  0  0  0  0  0  0  0  0  0  0  0
   18.4968   19.4934   22.9937 H   0  0  0  0  0  0  0  0  0  0  0  0
   20.6510   19.3434   22.6797 C   0  0  0  0  0  0  0  0  0  0  0  0
   21.3585   19.6279   21.8896 H   0  0  0  0  0  0  0  0  0  0  0  0
   20.8011   18.2675   22.8380 H   0  0  0  0  0  0  0  0  0  0  0  0
   21.0159   20.1358   23.9611 C   0  0  0  0  0  0  0  0  0  0  0  0
   22.0109   20.5745   23.8029 H   0  0  0  0  0  0  0  0  0  0  0  0
   20.3475   20.9975   24.0899 H   0  0  0  0  0  0  0  0  0  0  0  0
   21.0944   19.2977   25.2704 C   0  0  0  0  0  0  0  0  0  0  0  0
   21.5455   19.9390   26.0388 H   0  0  0  0  0  0  0  0  0  0  0  0
   21.8032   18.4698   25.1369 H   0  0  0  0  0  0  0  0  0  0  0  0
   19.7686   18.7538   25.8611 C   0  0  2  0  0  0  0  0  0  0  0  0
   19.9728   18.5116   26.9086 H   0  0  0  0  0  0  0  0  0  0  0  0
   19.3046   17.4443   25.1989 C   0  0  0  0  0  0  0  0  0  0  0  0
   18.4570   17.0190   25.7500 H   0  0  0  0  0  0  0  0  0  0  0  0
   18.9849   17.5902   24.1636 H   0  0  0  0  0  0  0  0  0  0  0  0
   20.1090   16.6985   25.2060 H   0  0  0  0  0  0  0  0  0  0  0  0
   18.6723   19.7823   25.8912 N   0  3  0  0  0  0  0  0  0  0  0  0
   17.8249   19.4139   26.3328 H   0  0  0  0  0  0  0  0  0  0  0  0
   18.4263   20.0844   24.9460 H   0  0  0  0  0  0  0  0  0  0  0  0
   18.9561   20.6139   26.4174 H   0  0  0  0  0  0  0  0  0  0  0  0
  1  2  1  0  0  0  0
  1  3  1  0  0  0  0
  1  4  1  0  0  0  0
  1  5  1  0  0  0  0
  5  6  1  0  0  0  0
  5  7  1  0  0  0  0
  5  8  1  0  0  0  0
  8  9  1  0  0  0  0
  8 10  1  0  0  0  0
  8 11  1  0  0  0  0
 11 12  1  0  0  0  0
 11 13  1  0  0  0  0
 11 14  1  0  0  0  0
 14 15  1  0  0  0  0
 14 16  1  0  0  0  0
 14 17  1  0  0  0  0
 17 18  1  0  0  0  0
 17 19  1  0  0  0  0
 17 20  1  0  0  0  0
 20 21  1  0  0  0  0
 20 22  1  0  0  0  0
 22 23  1  0  0  0  0
 22 24  1  0  0  0  0
 22 25  1  0  0  0  0
 20 26  1  0  0  0  0
 26 27  1  0  0  0  0
 26 28  1  0  0  0  0
 26 29  1  0  0  0  0
M  END
> <VM2 Rank>
218

> <Conf_Id>
1652

> <Probability>
0.00

> <Sum Probability>
100.00

> <Delta G>
8.052

> <G>
41.754

> <E>
3.417

> <-TS>
38.337

> <U+W>
-20.727

> <U>
31.881

> <W>
-52.608

> <W(PB)>
-54.981

> <W(SA)>
2.372

> <Valence>
9.739

> <Coulomb>
21.342

> <VdW>
0.800

> <VdW6>
-11.811

> <VdW12>
12.612

> <Bond>
0.385

> <Angle>
3.190

> <Pdih>
6.164

> <Idih>
0.000

> <Tether>
0.000

$$$$
VeraChem MOL file


 29 28  0  0  0  0  0  0  0  0999 V2000     
   18.0961   19.8649   21.1149 C   0  0  0  0  0  0  0  0  0  0  0  0
   18.1901   20.6702   21.8522 H   0  0  0  0  0  0  0  0  0  0  0  0
   18.3637   20.2726   20.1314 H   0  0  0  0  0  0  0  0  0  0  0  0
   17.0386   19.5730   21.0772 H   0  0  0  0  0  0  0  0  0  0  0  0
   18.9807   18.6464   21.4661 C   0  0  0  0  0  0  0  0  0  0  0  0
   18.7763   17.8511   20.7357 H   0  0  0  0  0  0  0  0  0  0  0  0
   18.6843   18.2387   22.4380 H   0  0  0  0  0  0  0  0  0  0  0  0
   20.4994   18.9566   21.4337 C   0  0  0  0  0  0  0  0  0  0  0  0
   21.0660   18.0170   21.4886 H   0  0  0  0  0  0  0  0  0  0  0  0
   20.7355   19.3814   20.4482 H   0  0  0  0  0  0  0  0  0  0  0  0
   21.0117   19.9342   22.5273 C   0  0  0  0  0  0  0  0  0  0  0  0
   20.2499   20.6717   22.7940 H   0  0  0  0  0  0  0  0  0  0  0  0
   21.8214   20.5272   22.0799 H   0  0  0  0  0  0  0  0  0  0  0  0
   21.6079   19.2517   23.7896 C   0  0  0  0  0  0  0  0  0  0  0  0
   22.4664   18.6463   23.4673 H   0  0  0  0  0  0  0  0  0  0  0  0
   22.0286   20.0243   24.4480 H   0  0  0  0  0  0  0  0  0  0  0  0
   20.6673   18.3398   24.6232 C   0  0  0  0  0  0  0  0  0  0  0  0
   21.3091   17.7332   25.2759 H   0  0  0  0  0  0  0  0  0  0  0  0
   20.1501   17.6184   23.9815 H   0  0  0  0  0  0  0  0  0  0  0  0
   19.6644   19.0905   25.5315 C   0  0  2  0  0  0  0  0  0  0  0  0
   20.2247   19.8173   26.1276 H   0  0  0  0  0  0  0  0  0  0  0  0
   18.9824   18.1052   26.4945 C   0  0  0  0  0  0  0  0  0  0  0  0
   18.4078   17.3481   25.9462 H   0  0  0  0  0  0  0  0  0  0  0  0
   19.7247   17.5877   27.1148 H   0  0  0  0  0  0  0  0  0  0  0  0
   18.2967   18.6326   27.1691 H   0  0  0  0  0  0  0  0  0  0  0  0
   18.6261   19.8667   24.7732 N   0  3  0  0  0  0  0  0  0  0  0  0
   18.0014   20.3729   25.4077 H   0  0  0  0  0  0  0  0  0  0  0  0
   18.0493   19.2501   24.1954 H   0  0  0  0  0  0  0  0  0  0  0  0
   19.0635   20.5535   24.1548 H   0  0  0  0  0  0  0  0  0  0  0  0
  1  2  1  0  0  0  0
  1  3  1  0  0  0  0
  1  4  1  0  0  0  0
  1  5  1  0  0  0  0
  5  6  1  0  0  0  0
  5  7  1  0  0  0  0
  5  8  1  0  0  0  0
  8  9  1  0  0  0  0
  8 10  1  0  0  0  0
  8 11  1  0  0  0  0
 11 12  1  0  0  0  0
 11 13  1  0  0  0  0
 11 14  1  0  0  0  0
 14 15  1  0  0  0  0
 14 16  1  0  0  0  0
 14 17  1  0  0  0  0
 17 18  1  0  0  0  0
 17 19  1  0  0  0  0
 17 20  1  0  0  0  0
 20 21  1  0  0  0  0
 20 22  1  0  0  0  0
 22 23  1  0  0  0  0
 22 24  1  0  0  0  0
 22 25  1  0  0  0  0
 20 26  1  0  0  0  0
 26 27  1  0  0  0  0
 26 28  1  0  0  0  0
 26 29  1  0  0  0  0
M  END
> <VM2 Rank>
219

> <Conf_Id>
622

> <Probability>
0.00

> <Sum Probability>
100.00

> <Delta G>
9.172

> <G>
42.874

> <E>
4.509

> <-TS>
38.365

> <U+W>
-19.636

> <U>
31.754

> <W>
-51.390

> <W(PB)>
-53.731

> <W(SA)>
2.341

> <Valence>
9.082

> <Coulomb>
22.210

> <VdW>
0.463

> <VdW6>
-12.280

> <VdW12>
12.742

> <Bond>
0.434

> <Angle>
3.630

> <Pdih>
5.018

> <Idih>
0.000

> <Tether>
0.000

$$$$
VeraChem MOL file


 29 28  0  0  0  0  0  0  0  0999 V2000     
   18.4850   20.3853   20.9999 C   0  0  0  0  0  0  0  0  0  0  0  0
   19.1887   21.1322   21.3869 H   0  0  0  0  0  0  0  0  0  0  0  0
   18.0644   20.7850   20.0680 H   0  0  0  0  0  0  0  0  0  0  0  0
   17.6601   20.2790   21.7159 H   0  0  0  0  0  0  0  0  0  0  0  0
   19.1756   19.0276   20.7366 C   0  0  0  0  0  0  0  0  0  0  0  0
   19.9891   19.1588   20.0093 H   0  0  0  0  0  0  0  0  0  0  0  0
   18.4497   18.3498   20.2657 H   0  0  0  0  0  0  0  0  0  0  0  0
   19.7218   18.3570   22.0189 C   0  0  0  0  0  0  0  0  0  0  0  0
   18.9112   18.2580   22.7489 H   0  0  0  0  0  0  0  0  0  0  0  0
   20.0259   17.3304   21.7716 H   0  0  0  0  0  0  0  0  0  0  0  0
   20.9423   19.0964   22.6258 C   0  0  0  0  0  0  0  0  0  0  0  0
   20.7397   20.1647   22.7668 H   0  0  0  0  0  0  0  0  0  0  0  0
   21.7601   19.0505   21.8932 H   0  0  0  0  0  0  0  0  0  0  0  0
   21.4394   18.4696   23.9550 C   0  0  0  0  0  0  0  0  0  0  0  0
   21.1145   17.4240   24.0381 H   0  0  0  0  0  0  0  0  0  0  0  0
   22.5362   18.4223   23.9085 H   0  0  0  0  0  0  0  0  0  0  0  0
   21.0731   19.2659   25.2413 C   0  0  0  0  0  0  0  0  0  0  0  0
   21.4652   20.2878   25.1563 H   0  0  0  0  0  0  0  0  0  0  0  0
   21.6180   18.8165   26.0819 H   0  0  0  0  0  0  0  0  0  0  0  0
   19.5778   19.3356   25.6386 C   0  0  2  0  0  0  0  0  0  0  0  0
   19.5289   19.8462   26.6053 H   0  0  0  0  0  0  0  0  0  0  0  0
   18.9619   17.9392   25.8357 C   0  0  0  0  0  0  0  0  0  0  0  0
   17.9415   18.0216   26.2295 H   0  0  0  0  0  0  0  0  0  0  0  0
   18.9155   17.3733   24.8991 H   0  0  0  0  0  0  0  0  0  0  0  0
   19.5490   17.3564   26.5562 H   0  0  0  0  0  0  0  0  0  0  0  0
   18.7592   20.1795   24.7023 N   0  3  0  0  0  0  0  0  0  0  0  0
   18.8217   19.8224   23.7443 H   0  0  0  0  0  0  0  0  0  0  0  0
   19.0893   21.1491   24.6927 H   0  0  0  0  0  0  0  0  0  0  0  0
   17.7723   20.1935   24.9761 H   0  0  0  0  0  0  0  0  0  0  0  0
  1  2  1  0  0  0  0
  1  3  1  0  0  0  0
  1  4  1  0  0  0  0
  1  5  1  0  0  0  0
  5  6  1  0  0  0  0
  5  7  1  0  0  0  0
  5  8  1  0  0  0  0
  8  9  1  0  0  0  0
  8 10  1  0  0  0  0
  8 11  1  0  0  0  0
 11 12  1  0  0  0  0
 11 13  1  0  0  0  0
 11 14  1  0  0  0  0
 14 15  1  0  0  0  0
 14 16  1  0  0  0  0
 14 17  1  0  0  0  0
 17 18  1  0  0  0  0
 17 19  1  0  0  0  0
 17 20  1  0  0  0  0
 20 21  1  0  0  0  0
 20 22  1  0  0  0  0
 22 23  1  0  0  0  0
 22 24  1  0  0  0  0
 22 25  1  0  0  0  0
 20 26  1  0  0  0  0
 26 27  1  0  0  0  0
 26 28  1  0  0  0  0
 26 29  1  0  0  0  0
M  END
> <VM2 Rank>
220

> <Conf_Id>
1336

> <Probability>
0.00

> <Sum Probability>
100.00

> <Delta G>
9.293

> <G>
42.996

> <E>
4.105

> <-TS>
38.891

> <U+W>
-20.040

> <U>
30.902

> <W>
-50.942

> <W(PB)>
-53.280

> <W(SA)>
2.337

> <Valence>
8.630

> <Coulomb>
21.734

> <VdW>
0.539

> <VdW6>
-12.780

> <VdW12>
13.319

> <Bond>
0.379

> <Angle>
2.934

> <Pdih>
5.317

> <Idih>
0.000

> <Tether>
0.000

$$$$
VeraChem MOL file


 29 28  0  0  0  0  0  0  0  0999 V2000     
   21.0666   20.2867   21.2486 C   0  0  0  0  0  0  0  0  0  0  0  0
   21.7521   20.3026   20.3915 H   0  0  0  0  0  0  0  0  0  0  0  0
   20.9155   21.3244   21.5734 H   0  0  0  0  0  0  0  0  0  0  0  0
   21.5635   19.7478   22.0633 H   0  0  0  0  0  0  0  0  0  0  0  0
   19.7224   19.6310   20.8551 C   0  0  0  0  0  0  0  0  0  0  0  0
   19.8949   18.6258   20.4459 H   0  0  0  0  0  0  0  0  0  0  0  0
   19.2832   20.2175   20.0359 H   0  0  0  0  0  0  0  0  0  0  0  0
   18.7096   19.5754   22.0279 C   0  0  0  0  0  0  0  0  0  0  0  0
   18.9704   20.3315   22.7753 H   0  0  0  0  0  0  0  0  0  0  0  0
   17.7274   19.8801   21.6407 H   0  0  0  0  0  0  0  0  0  0  0  0
   18.5388   18.1683   22.6675 C   0  0  0  0  0  0  0  0  0  0  0  0
   18.1875   17.4904   21.8772 H   0  0  0  0  0  0  0  0  0  0  0  0
   17.7284   18.1865   23.4081 H   0  0  0  0  0  0  0  0  0  0  0  0
   19.8105   17.5416   23.3003 C   0  0  0  0  0  0  0  0  0  0  0  0
   19.7104   16.4496   23.2308 H   0  0  0  0  0  0  0  0  0  0  0  0
   20.6962   17.7788   22.7008 H   0  0  0  0  0  0  0  0  0  0  0  0
   20.0768   17.8745   24.7936 C   0  0  0  0  0  0  0  0  0  0  0  0
   21.0079   17.3638   25.0736 H   0  0  0  0  0  0  0  0  0  0  0  0
   19.2954   17.4253   25.4207 H   0  0  0  0  0  0  0  0  0  0  0  0
   20.2080   19.3775   25.1280 C   0  0  2  0  0  0  0  0  0  0  0  0
   20.6499   19.8877   24.2668 H   0  0  0  0  0  0  0  0  0  0  0  0
   21.1320   19.5863   26.3389 C   0  0  0  0  0  0  0  0  0  0  0  0
   20.7416   19.0764   27.2286 H   0  0  0  0  0  0  0  0  0  0  0  0
   22.1373   19.1971   26.1346 H   0  0  0  0  0  0  0  0  0  0  0  0
   21.2318   20.6536   26.5721 H   0  0  0  0  0  0  0  0  0  0  0  0
   18.8713   20.0147   25.3941 N   0  3  0  0  0  0  0  0  0  0  0  0
   18.4235   19.6064   26.2191 H   0  0  0  0  0  0  0  0  0  0  0  0
   18.2378   19.8832   24.6008 H   0  0  0  0  0  0  0  0  0  0  0  0
   18.9619   21.0211   25.5609 H   0  0  0  0  0  0  0  0  0  0  0  0
  1  2  1  0  0  0  0
  1  3  1  0  0  0  0
  1  4  1  0  0  0  0
  1  5  1  0  0  0  0
  5  6  1  0  0  0  0
  5  7  1  0  0  0  0
  5  8  1  0  0  0  0
  8  9  1  0  0  0  0
  8 10  1  0  0  0  0
  8 11  1  0  0  0  0
 11 12  1  0  0  0  0
 11 13  1  0  0  0  0
 11 14  1  0  0  0  0
 14 15  1  0  0  0  0
 14 16  1  0  0  0  0
 14 17  1  0  0  0  0
 17 18  1  0  0  0  0
 17 19  1  0  0  0  0
 17 20  1  0  0  0  0
 20 21  1  0  0  0  0
 20 22  1  0  0  0  0
 22 23  1  0  0  0  0
 22 24  1  0  0  0  0
 22 25  1  0  0  0  0
 20 26  1  0  0  0  0
 26 27  1  0  0  0  0
 26 28  1  0  0  0  0
 26 29  1  0  0  0  0
M  END
> <VM2 Rank>
221

> <Conf_Id>
1635

> <Probability>
0.00

> <Sum Probability>
100.00

> <Delta G>
9.977

> <G>
43.679

> <E>
5.441

> <-TS>
38.238

> <U+W>
-18.703

> <U>
33.704

> <W>
-52.407

> <W(PB)>
-54.808

> <W(SA)>
2.401

> <Valence>
11.195

> <Coulomb>
21.655

> <VdW>
0.854

> <VdW6>
-12.375

> <VdW12>
13.229

> <Bond>
0.401

> <Angle>
3.380

> <Pdih>
7.413

> <Idih>
0.000

> <Tether>
0.000

$$$$
